# DDEC6 charges by PACMAN v1.1 (https://github.com/mtap-research/PACMAN-charge/)
data_2015[Cd][dia]3[ASR]3
_chemical_formula_sum              "Cd4 H168 C152 N16 O32"
_cell_length_a       13.7818
_cell_length_b       15.0617
_cell_length_c       19.3555
_cell_angle_alpha    90
_cell_angle_beta     90
_cell_angle_gamma    90

_symmetry_space_group_name_H-M    "P 1"
_symmetry_Int_Tables_number       1

loop_
  _symmetry_equiv_pos_as_xyz
  'x, y, z'

loop_
  _atom_site_type_symbol
  _atom_site_label
  _atom_site_symmetry_multiplicity
  _atom_site_fract_x
  _atom_site_fract_y
  _atom_site_fract_z
  _atom_site_occupancy
  _atom_site_charge
Cd  Cd1       1.0  0.80232  0.13903  0.96630  1.0000 0.7860993167
Cd  Cd2       1.0  0.69768  0.86097  0.46630  1.0000 0.7860993167
Cd  Cd3       1.0  0.19768  0.63903  0.53370  1.0000 0.7860993167
Cd  Cd4       1.0  0.30231  0.36097  0.03370  1.0000 0.7860993167
H   H1        1.0  0.74400  0.03490  0.10820  1.0000 0.3328270932
H   H2        1.0  0.75599  0.96510  0.60820  1.0000 0.3328270932
H   H3        1.0  0.25599  0.53490  0.39180  1.0000 0.3328270932
H   H4        1.0  0.24400  0.46510  0.89180  1.0000 0.3328270932
H   H5        1.0  0.83390  0.09160  0.70550  1.0000 0.1268610037
H   H6        1.0  0.66609  0.90840  0.20550  1.0000 0.1268610037
H   H7        1.0  0.16609  0.59160  0.79450  1.0000 0.1268610037
H   H8        1.0  0.33390  0.40840  0.29450  1.0000 0.1268610037
H   H9        1.0  0.90040  0.20670  0.56670  1.0000 0.3067442199
H   H10       1.0  0.59959  0.79330  0.06670  1.0000 0.3067442199
H   H11       1.0  0.09959  0.70670  0.93330  1.0000 0.3067442199
H   H12       1.0  0.40041  0.29330  0.43330  1.0000 0.3067442199
H   H13       1.0  0.73181  0.17300  0.10880  1.0000 0.0899593845
H   H14       1.0  0.76819  0.82700  0.60880  1.0000 0.0899593845
H   H15       1.0  0.26820  0.67300  0.39120  1.0000 0.0899593845
H   H16       1.0  0.23181  0.32700  0.89120  1.0000 0.0899593845
H   H17       1.0  0.58460  0.21160  0.05760  1.0000 0.0899593845
H   H18       1.0  0.91539  0.78840  0.55760  1.0000 0.0899593845
H   H19       1.0  0.41540  0.71160  0.44240  1.0000 0.0899593845
H   H20       1.0  0.08460  0.28840  0.94240  1.0000 0.0899593845
H   H21       1.0  0.43610  0.12830  0.91150  1.0000 0.0999620407
H   H22       1.0  0.06389  0.87170  0.41150  1.0000 0.0999620407
H   H23       1.0  0.56390  0.62830  0.58850  1.0000 0.0999620407
H   H24       1.0  0.93610  0.37170  0.08850  1.0000 0.0999620407
H   H25       1.0  0.61111  0.06030  0.23400  1.0000 0.1202408788
H   H26       1.0  0.88889  0.93970  0.73400  1.0000 0.1202408788
H   H27       1.0  0.38889  0.56030  0.26600  1.0000 0.1202408788
H   H28       1.0  0.11110  0.43970  0.76600  1.0000 0.1202408788
H   H29       1.0  0.54061  0.11490  0.33210  1.0000 0.0999620407
H   H30       1.0  0.95939  0.88510  0.83210  1.0000 0.0999620407
H   H31       1.0  0.45939  0.61490  0.16790  1.0000 0.0999620407
H   H32       1.0  0.04060  0.38510  0.66790  1.0000 0.0999620407
H   H33       1.0  0.38830  0.05760  0.01420  1.0000 0.0701352042
H   H34       1.0  0.11169  0.94240  0.51420  1.0000 0.0701352042
H   H35       1.0  0.61169  0.55760  0.48580  1.0000 0.0701352042
H   H36       1.0  0.88830  0.44240  0.98580  1.0000 0.0701352042
H   H37       1.0  0.66870  0.31850  0.10440  1.0000 0.1268610037
H   H38       1.0  0.83130  0.68150  0.60440  1.0000 0.1268610037
H   H39       1.0  0.33129  0.81850  0.39560  1.0000 0.1268610037
H   H40       1.0  0.16870  0.18150  0.89560  1.0000 0.1268610037
H   H41       1.0  0.53620  0.40870  0.31370  1.0000 0.1268610037
H   H42       1.0  0.96379  0.59130  0.81370  1.0000 0.1268610037
H   H43       1.0  0.46380  0.90870  0.18630  1.0000 0.1268610037
H   H44       1.0  0.03620  0.09130  0.68630  1.0000 0.1268610037
H   H45       1.0  0.49561  0.98250  0.93480  1.0000 0.0999620407
H   H46       1.0  0.00439  0.01750  0.43480  1.0000 0.0999620407
H   H47       1.0  0.50440  0.48250  0.56520  1.0000 0.0999620407
H   H48       1.0  0.99560  0.51750  0.06520  1.0000 0.0999620407
H   H49       1.0  0.50180  0.94460  0.01040  1.0000 0.1115860504
H   H50       1.0  0.99819  0.05540  0.51040  1.0000 0.1115860504
H   H51       1.0  0.49819  0.44460  0.48960  1.0000 0.1115860504
H   H52       1.0  0.00180  0.55540  0.98960  1.0000 0.1115860504
H   H53       1.0  0.65190  0.99090  0.02370  1.0000 0.0899593845
H   H54       1.0  0.84810  0.00910  0.52370  1.0000 0.0899593845
H   H55       1.0  0.34809  0.49090  0.47630  1.0000 0.0899593845
H   H56       1.0  0.15190  0.50910  0.97630  1.0000 0.0899593845
H   H57       1.0  0.65350  0.00110  0.94300  1.0000 0.0999620407
H   H58       1.0  0.84649  0.99890  0.44300  1.0000 0.0999620407
H   H59       1.0  0.34649  0.50110  0.55700  1.0000 0.0999620407
H   H60       1.0  0.15351  0.49890  0.05700  1.0000 0.0999620407
H   H61       1.0  0.80420  0.29770  0.61990  1.0000 0.0701352042
H   H62       1.0  0.69580  0.70230  0.11990  1.0000 0.0701352042
H   H63       1.0  0.19579  0.79770  0.88010  1.0000 0.0701352042
H   H64       1.0  0.30421  0.20230  0.38010  1.0000 0.0701352042
H   H65       1.0  0.51091  0.05080  0.10620  1.0000 0.1115860504
H   H66       1.0  0.98909  0.94920  0.60620  1.0000 0.1115860504
H   H67       1.0  0.48909  0.55080  0.39380  1.0000 0.1115860504
H   H68       1.0  0.01090  0.44920  0.89380  1.0000 0.1115860504
H   H69       1.0  0.45781  0.14310  0.10080  1.0000 0.1202408788
H   H70       1.0  0.04219  0.85690  0.60080  1.0000 0.1202408788
H   H71       1.0  0.54219  0.64310  0.39920  1.0000 0.1202408788
H   H72       1.0  0.95780  0.35690  0.89920  1.0000 0.1202408788
H   H73       1.0  0.82910  0.06470  0.82140  1.0000 0.0999620407
H   H74       1.0  0.67090  0.93530  0.32140  1.0000 0.0999620407
H   H75       1.0  0.17089  0.56470  0.67860  1.0000 0.0999620407
H   H76       1.0  0.32910  0.43530  0.17860  1.0000 0.0999620407
H   H77       1.0  0.69920  0.45510  0.88820  1.0000 0.1379976591
H   H78       1.0  0.80080  0.54490  0.38820  1.0000 0.1379976591
H   H79       1.0  0.30079  0.95510  0.61180  1.0000 0.1379976591
H   H80       1.0  0.19920  0.04490  0.11180  1.0000 0.1379976591
H   H81       1.0  0.73370  0.38700  0.69050  1.0000 0.1202408788
H   H82       1.0  0.76629  0.61300  0.19050  1.0000 0.1202408788
H   H83       1.0  0.26630  0.88700  0.80950  1.0000 0.1202408788
H   H84       1.0  0.23370  0.11300  0.30950  1.0000 0.1202408788
H   H85       1.0  0.57330  0.51020  0.23060  1.0000 0.1202408788
H   H86       1.0  0.92669  0.48980  0.73060  1.0000 0.1202408788
H   H87       1.0  0.42669  0.01020  0.26940  1.0000 0.1202408788
H   H88       1.0  0.07330  0.98980  0.76940  1.0000 0.1202408788
H   H89       1.0  0.74501  0.31870  0.92290  1.0000 0.1202408788
H   H90       1.0  0.75499  0.68130  0.42290  1.0000 0.1202408788
H   H91       1.0  0.25499  0.81870  0.57710  1.0000 0.1202408788
H   H92       1.0  0.24500  0.18130  0.07710  1.0000 0.1202408788
H   H93       1.0  0.58960  0.14260  0.89520  1.0000 0.0899593845
H   H94       1.0  0.91039  0.85740  0.39520  1.0000 0.0899593845
H   H95       1.0  0.41039  0.64260  0.60480  1.0000 0.0899593845
H   H96       1.0  0.08960  0.35740  0.10480  1.0000 0.0899593845
H   H97       1.0  0.58700  0.22750  0.94210  1.0000 0.0999620407
H   H98       1.0  0.91300  0.77250  0.44210  1.0000 0.0999620407
H   H99       1.0  0.41300  0.72750  0.55790  1.0000 0.0999620407
H   H100      1.0  0.08700  0.27250  0.05790  1.0000 0.0999620407
H   H101      1.0  0.67390  0.51900  0.01880  1.0000 0.1115860504
H   H102      1.0  0.82609  0.48100  0.51880  1.0000 0.1115860504
H   H103      1.0  0.32609  0.01900  0.48120  1.0000 0.1115860504
H   H104      1.0  0.17391  0.98100  0.98120  1.0000 0.1115860504
H   H105      1.0  0.61150  0.43250  0.02630  1.0000 0.1268610037
H   H106      1.0  0.88849  0.56750  0.52630  1.0000 0.1268610037
H   H107      1.0  0.38849  0.93250  0.47370  1.0000 0.1268610037
H   H108      1.0  0.11150  0.06750  0.97370  1.0000 0.1268610037
H   H109      1.0  0.72180  0.43130  0.04600  1.0000 0.1115860504
H   H110      1.0  0.77819  0.56870  0.54600  1.0000 0.1115860504
H   H111      1.0  0.27820  0.93130  0.45400  1.0000 0.1115860504
H   H112      1.0  0.22180  0.06870  0.95400  1.0000 0.1115860504
H   H113      1.0  0.62040  0.59890  0.71160  1.0000 0.1379976591
H   H114      1.0  0.87960  0.40110  0.21160  1.0000 0.1379976591
H   H115      1.0  0.37959  0.09890  0.78840  1.0000 0.1379976591
H   H116      1.0  0.12040  0.90110  0.28840  1.0000 0.1379976591
H   H117      1.0  0.58240  0.50190  0.69990  1.0000 0.1268610037
H   H118      1.0  0.91760  0.49810  0.19990  1.0000 0.1268610037
H   H119      1.0  0.41759  0.00190  0.80010  1.0000 0.1268610037
H   H120      1.0  0.08240  0.99810  0.30010  1.0000 0.1268610037
H   H121      1.0  0.68600  0.52900  0.67380  1.0000 0.1268610037
H   H122      1.0  0.81399  0.47100  0.17380  1.0000 0.1268610037
H   H123      1.0  0.31400  0.02900  0.82620  1.0000 0.1268610037
H   H124      1.0  0.18601  0.97100  0.32620  1.0000 0.1268610037
H   H125      1.0  0.73430  0.12250  0.60190  1.0000 0.0899593845
H   H126      1.0  0.76569  0.87750  0.10190  1.0000 0.0899593845
H   H127      1.0  0.26570  0.62250  0.89810  1.0000 0.0899593845
H   H128      1.0  0.23430  0.37750  0.39810  1.0000 0.0899593845
H   H129      1.0  0.78200  0.24670  0.50160  1.0000 0.0999620407
H   H130      1.0  0.71800  0.75330  0.00160  1.0000 0.0999620407
H   H131      1.0  0.21799  0.74670  0.99840  1.0000 0.0999620407
H   H132      1.0  0.28201  0.25330  0.49840  1.0000 0.0999620407
H   H133      1.0  0.78590  0.14240  0.49650  1.0000 0.1115860504
H   H134      1.0  0.71409  0.85760  0.99650  1.0000 0.1115860504
H   H135      1.0  0.21409  0.64240  0.00350  1.0000 0.1115860504
H   H136      1.0  0.28591  0.35760  0.50350  1.0000 0.1115860504
H   H137      1.0  0.49740  0.16110  0.58520  1.0000 0.0899593845
H   H138      1.0  0.00259  0.83890  0.08520  1.0000 0.0899593845
H   H139      1.0  0.50260  0.66110  0.91480  1.0000 0.0899593845
H   H140      1.0  0.99740  0.33890  0.41480  1.0000 0.0899593845
H   H141      1.0  0.57241  0.08910  0.60880  1.0000 0.0999620407
H   H142      1.0  0.92759  0.91090  0.10880  1.0000 0.0999620407
H   H143      1.0  0.42759  0.58910  0.89120  1.0000 0.0999620407
H   H144      1.0  0.07240  0.41090  0.39120  1.0000 0.0999620407
H   H145      1.0  0.65511  0.33910  0.57880  1.0000 0.0899593845
H   H146      1.0  0.84489  0.66090  0.07880  1.0000 0.0899593845
H   H147      1.0  0.34489  0.83910  0.92120  1.0000 0.0899593845
H   H148      1.0  0.15510  0.16090  0.42120  1.0000 0.0899593845
H   H149      1.0  0.54390  0.31830  0.58560  1.0000 0.0899593845
H   H150      1.0  0.95609  0.68170  0.08560  1.0000 0.0899593845
H   H151      1.0  0.45609  0.81830  0.91440  1.0000 0.0899593845
H   H152      1.0  0.04390  0.18170  0.41440  1.0000 0.0899593845
H   H153      1.0  0.53200  0.27870  0.47660  1.0000 0.0999620407
H   H154      1.0  0.96799  0.72130  0.97660  1.0000 0.0999620407
H   H155      1.0  0.46799  0.77870  0.02340  1.0000 0.0999620407
H   H156      1.0  0.03200  0.22130  0.52340  1.0000 0.0999620407
H   H157      1.0  0.63190  0.32790  0.46690  1.0000 0.1115860504
H   H158      1.0  0.86809  0.67210  0.96690  1.0000 0.1115860504
H   H159      1.0  0.36810  0.82790  0.03310  1.0000 0.1115860504
H   H160      1.0  0.13190  0.17210  0.53310  1.0000 0.1115860504
H   H161      1.0  0.65631  0.18460  0.42560  1.0000 0.0899593845
H   H162      1.0  0.84369  0.81540  0.92560  1.0000 0.0899593845
H   H163      1.0  0.34369  0.68460  0.07440  1.0000 0.0899593845
H   H164      1.0  0.15630  0.31540  0.57440  1.0000 0.0899593845
H   H165      1.0  0.52221  0.12040  0.48070  1.0000 0.1115860504
H   H166      1.0  0.97779  0.87960  0.98070  1.0000 0.1115860504
H   H167      1.0  0.47779  0.62040  0.01930  1.0000 0.1115860504
H   H168      1.0  0.02220  0.37960  0.51930  1.0000 0.1115860504
C   C1        1.0  0.81710  0.13740  0.73545  1.0000 -0.1832696353
C   C2        1.0  0.68289  0.86260  0.23545  1.0000 -0.1832696353
C   C3        1.0  0.18290  0.63740  0.76455  1.0000 -0.1832696353
C   C4        1.0  0.31711  0.36260  0.26455  1.0000 -0.1832696353
C   C5        1.0  0.67320  0.13950  0.12081  1.0000 0.0802154002
C   C6        1.0  0.82679  0.86050  0.62081  1.0000 0.0802154002
C   C7        1.0  0.32680  0.63950  0.37919  1.0000 0.0802154002
C   C8        1.0  0.17320  0.36050  0.87919  1.0000 0.0802154002
C   C9        1.0  0.59880  0.14800  0.06189  1.0000 0.0289718221
C   C10       1.0  0.90119  0.85200  0.56189  1.0000 0.0289718221
C   C11       1.0  0.40120  0.64800  0.43811  1.0000 0.0289718221
C   C12       1.0  0.09880  0.35200  0.93811  1.0000 0.0289718221
C   C13       1.0  0.79551  0.21980  0.70914  1.0000 0.0550890436
C   C14       1.0  0.70449  0.78020  0.20914  1.0000 0.0550890436
C   C15       1.0  0.20450  0.71980  0.79086  1.0000 0.0550890436
C   C16       1.0  0.29550  0.28020  0.29086  1.0000 0.0550890436
C   C17       1.0  0.57290  0.29860  0.25860  1.0000 0.1704842319
C   C18       1.0  0.92710  0.70140  0.75860  1.0000 0.1704842319
C   C19       1.0  0.42709  0.79860  0.24140  1.0000 0.1704842319
C   C20       1.0  0.07290  0.20140  0.74140  1.0000 0.1704842319
C   C21       1.0  0.46560  0.14910  0.95465  1.0000 -0.1832696353
C   C22       1.0  0.03440  0.85090  0.45465  1.0000 -0.1832696353
C   C23       1.0  0.53439  0.64910  0.54535  1.0000 -0.1832696353
C   C24       1.0  0.96560  0.35090  0.04535  1.0000 -0.1832696353
C   C25       1.0  0.76750  0.26550  0.82817  1.0000 0.1704842319
C   C26       1.0  0.73249  0.73450  0.32817  1.0000 0.1704842319
C   C27       1.0  0.23249  0.76550  0.67183  1.0000 0.1704842319
C   C28       1.0  0.26750  0.23450  0.17183  1.0000 0.1704842319
C   C29       1.0  0.63001  0.17740  0.18605  1.0000 0.041075891
C   C30       1.0  0.86999  0.82260  0.68605  1.0000 0.041075891
C   C31       1.0  0.37000  0.67740  0.31395  1.0000 0.041075891
C   C32       1.0  0.13001  0.32260  0.81395  1.0000 0.041075891
C   C33       1.0  0.61540  0.27050  0.19493  1.0000 0.020668598
C   C34       1.0  0.88460  0.72950  0.69493  1.0000 0.020668598
C   C35       1.0  0.38459  0.77050  0.30507  1.0000 0.020668598
C   C36       1.0  0.11540  0.22950  0.80507  1.0000 0.020668598
C   C37       1.0  0.60171  0.12120  0.23849  1.0000 -0.2012350688
C   C38       1.0  0.89829  0.87880  0.73849  1.0000 -0.2012350688
C   C39       1.0  0.39830  0.62120  0.26151  1.0000 -0.2012350688
C   C40       1.0  0.10170  0.37880  0.76151  1.0000 -0.2012350688
C   C41       1.0  0.55930  0.15500  0.29810  1.0000 0.0802154002
C   C42       1.0  0.94069  0.84500  0.79810  1.0000 0.0802154002
C   C43       1.0  0.44069  0.65500  0.20190  1.0000 0.0802154002
C   C44       1.0  0.05930  0.34500  0.70190  1.0000 0.0802154002
C   C45       1.0  0.45650  0.07420  0.00800  1.0000 0.041075891
C   C46       1.0  0.04349  0.92580  0.50800  1.0000 0.041075891
C   C47       1.0  0.54349  0.57420  0.49200  1.0000 0.041075891
C   C48       1.0  0.95651  0.42580  0.99200  1.0000 0.041075891
C   C49       1.0  0.64020  0.33550  0.14590  1.0000 -0.2779888789
C   C50       1.0  0.85979  0.66450  0.64590  1.0000 -0.2779888789
C   C51       1.0  0.35979  0.83550  0.35410  1.0000 -0.2779888789
C   C52       1.0  0.14020  0.16450  0.85410  1.0000 -0.2779888789
C   C53       1.0  0.56040  0.38980  0.27130  1.0000 -0.1410002987
C   C54       1.0  0.93959  0.61020  0.77130  1.0000 -0.1410002987
C   C55       1.0  0.43960  0.88980  0.22870  1.0000 -0.1410002987
C   C56       1.0  0.06040  0.11020  0.72870  1.0000 -0.1410002987
C   C57       1.0  0.51411  0.99630  0.98190  1.0000 -0.2460613827
C   C58       1.0  0.98589  0.00370  0.48190  1.0000 -0.2460613827
C   C59       1.0  0.48589  0.49630  0.51810  1.0000 -0.2460613827
C   C60       1.0  0.01410  0.50370  0.01810  1.0000 -0.2460613827
C   C61       1.0  0.62181  0.02109  0.98496  1.0000 -0.0960158015
C   C62       1.0  0.87819  0.97891  0.48496  1.0000 -0.0960158015
C   C63       1.0  0.37820  0.52109  0.51504  1.0000 -0.0960158015
C   C64       1.0  0.12180  0.47891  0.01504  1.0000 -0.0960158015
C   C65       1.0  0.80670  0.23413  0.63049  1.0000 0.0899593845
C   C66       1.0  0.69329  0.76587  0.13049  1.0000 0.0899593845
C   C67       1.0  0.19329  0.73413  0.86951  1.0000 0.0899593845
C   C68       1.0  0.30670  0.26587  0.36951  1.0000 0.0899593845
C   C69       1.0  0.62321  0.42250  0.15820  1.0000 0.2339672913
C   C70       1.0  0.87679  0.57750  0.65820  1.0000 0.2339672913
C   C71       1.0  0.37679  0.92250  0.34180  1.0000 0.2339672913
C   C72       1.0  0.12320  0.07750  0.84180  1.0000 0.2339672913
C   C73       1.0  0.76621  0.28650  0.75658  1.0000 0.0289718221
C   C74       1.0  0.73379  0.71350  0.25658  1.0000 0.0289718221
C   C75       1.0  0.23380  0.78650  0.74342  1.0000 0.0289718221
C   C76       1.0  0.26621  0.21350  0.24342  1.0000 0.0289718221
C   C77       1.0  0.50101  0.10230  0.07700  1.0000 -0.2661839704
C   C78       1.0  0.99899  0.89770  0.57700  1.0000 -0.2661839704
C   C79       1.0  0.49899  0.60230  0.42300  1.0000 -0.2661839704
C   C80       1.0  0.00101  0.39770  0.92300  1.0000 -0.2661839704
C   C81       1.0  0.81430  0.12140  0.80584  1.0000 0.0899593845
C   C82       1.0  0.68569  0.87860  0.30584  1.0000 0.0899593845
C   C83       1.0  0.18569  0.62140  0.69416  1.0000 0.0899593845
C   C84       1.0  0.31431  0.37860  0.19416  1.0000 0.0899593845
C   C85       1.0  0.71470  0.41240  0.85530  1.0000 -0.1897968145
C   C86       1.0  0.78529  0.58760  0.35530  1.0000 -0.1897968145
C   C87       1.0  0.28530  0.91240  0.64470  1.0000 -0.1897968145
C   C88       1.0  0.21470  0.08760  0.14470  1.0000 -0.1897968145
C   C89       1.0  0.73560  0.37210  0.73720  1.0000 -0.2890016417
C   C90       1.0  0.76439  0.62790  0.23720  1.0000 -0.2890016417
C   C91       1.0  0.26439  0.87210  0.76280  1.0000 -0.2890016417
C   C92       1.0  0.23561  0.12790  0.26280  1.0000 -0.2890016417
C   C93       1.0  0.58350  0.45020  0.22220  1.0000 -0.2177514414
C   C94       1.0  0.91649  0.54980  0.72220  1.0000 -0.2177514414
C   C95       1.0  0.41649  0.95020  0.27780  1.0000 -0.2177514414
C   C96       1.0  0.08350  0.04980  0.77780  1.0000 -0.2177514414
C   C97       1.0  0.74240  0.33140  0.87590  1.0000 -0.1620604767
C   C98       1.0  0.75759  0.66860  0.37590  1.0000 -0.1620604767
C   C99       1.0  0.25759  0.83140  0.62410  1.0000 -0.1620604767
C   C100      1.0  0.24241  0.16860  0.12410  1.0000 -0.1620604767
C   C101      1.0  0.70870  0.43370  0.78530  1.0000 0.2415744831
C   C102      1.0  0.79129  0.56630  0.28530  1.0000 0.2415744831
C   C103      1.0  0.29130  0.93370  0.71470  1.0000 0.2415744831
C   C104      1.0  0.20871  0.06630  0.21470  1.0000 0.2415744831
C   C105      1.0  0.57361  0.16430  0.94100  1.0000 -0.1104297692
C   C106      1.0  0.92639  0.83570  0.44100  1.0000 -0.1104297692
C   C107      1.0  0.42639  0.66430  0.55900  1.0000 -0.1104297692
C   C108      1.0  0.07361  0.33570  0.05900  1.0000 -0.1104297692
C   C109      1.0  0.40880  0.23000  0.97898  1.0000 0.553478392
C   C110      1.0  0.09119  0.77000  0.47898  1.0000 0.553478392
C   C111      1.0  0.59120  0.73000  0.52102  1.0000 0.553478392
C   C112      1.0  0.90880  0.27000  0.02102  1.0000 0.553478392
C   C113      1.0  0.66370  0.46640  0.04590  1.0000 -0.2370871434
C   C114      1.0  0.83630  0.53360  0.54590  1.0000 -0.2370871434
C   C115      1.0  0.33630  0.96640  0.45410  1.0000 -0.2370871434
C   C116      1.0  0.16370  0.03360  0.95410  1.0000 -0.2370871434
C   C117      1.0  0.63860  0.53740  0.70960  1.0000 -0.1832696353
C   C118      1.0  0.86139  0.46260  0.20960  1.0000 -0.1832696353
C   C119      1.0  0.36139  0.03740  0.79040  1.0000 -0.1832696353
C   C120      1.0  0.13861  0.96260  0.29040  1.0000 -0.1832696353
C   C121      1.0  0.72850  0.18550  0.58987  1.0000 0.0141225049
C   C122      1.0  0.77149  0.81450  0.08987  1.0000 0.0141225049
C   C123      1.0  0.27149  0.68550  0.91013  1.0000 0.0141225049
C   C124      1.0  0.22851  0.31450  0.41013  1.0000 0.0141225049
C   C125      1.0  0.74721  0.19230  0.51202  1.0000 -0.2890016417
C   C126      1.0  0.75279  0.80770  0.01202  1.0000 -0.2890016417
C   C127      1.0  0.25279  0.69230  0.98798  1.0000 -0.2890016417
C   C128      1.0  0.24720  0.30770  0.48798  1.0000 -0.2890016417
C   C129      1.0  0.56420  0.14180  0.58070  1.0000 -0.1104297692
C   C130      1.0  0.93579  0.85820  0.08070  1.0000 -0.1104297692
C   C131      1.0  0.43579  0.64180  0.91930  1.0000 -0.1104297692
C   C132      1.0  0.06420  0.35820  0.41930  1.0000 -0.1104297692
C   C133      1.0  0.60540  0.29520  0.56910  1.0000 -0.0924436095
C   C134      1.0  0.89459  0.70480  0.06910  1.0000 -0.0924436095
C   C135      1.0  0.39459  0.79520  0.93090  1.0000 -0.0924436095
C   C136      1.0  0.10540  0.20480  0.43090  1.0000 -0.0924436095
C   C137      1.0  0.59930  0.28020  0.49130  1.0000 -0.2567237223
C   C138      1.0  0.90069  0.71980  0.99130  1.0000 -0.2567237223
C   C139      1.0  0.40070  0.78020  0.00870  1.0000 -0.2567237223
C   C140      1.0  0.09931  0.21980  0.50870  1.0000 -0.2567237223
C   C141      1.0  0.64811  0.19220  0.47560  1.0000 0.041075891
C   C142      1.0  0.85189  0.80780  0.97560  1.0000 0.041075891
C   C143      1.0  0.35189  0.69220  0.02440  1.0000 0.041075891
C   C144      1.0  0.14810  0.30780  0.52440  1.0000 0.041075891
C   C145      1.0  0.58440  0.11850  0.50530  1.0000 -0.1897968145
C   C146      1.0  0.91559  0.88150  0.00530  1.0000 -0.1897968145
C   C147      1.0  0.41559  0.61850  0.99470  1.0000 -0.1897968145
C   C148      1.0  0.08440  0.38150  0.49470  1.0000 -0.1897968145
C   C149      1.0  0.62840  0.02600  0.49320  1.0000 0.5562464019
C   C150      1.0  0.87160  0.97400  0.99320  1.0000 0.5562464019
C   C151      1.0  0.37160  0.52600  0.00680  1.0000 0.5562464019
C   C152      1.0  0.12840  0.47400  0.50680  1.0000 0.5562464019
N   N1        1.0  0.79180  0.18230  0.85177  1.0000 -0.2994458954
N   N2        1.0  0.70820  0.81770  0.35177  1.0000 -0.2994458954
N   N3        1.0  0.20819  0.68230  0.64823  1.0000 -0.2994458954
N   N4        1.0  0.29180  0.31770  0.14823  1.0000 -0.2994458954
N   N5        1.0  0.54370  0.24090  0.30977  1.0000 -0.3067144806
N   N6        1.0  0.95629  0.75910  0.80977  1.0000 -0.3067144806
N   N7        1.0  0.45630  0.74090  0.19023  1.0000 -0.3067144806
N   N8        1.0  0.04370  0.25910  0.69023  1.0000 -0.3067144806
N   N9        1.0  0.63601  0.11881  0.99263  1.0000 -0.1410002987
N   N10       1.0  0.86399  0.88119  0.49263  1.0000 -0.1410002987
N   N11       1.0  0.36400  0.61881  0.50737  1.0000 -0.1410002987
N   N12       1.0  0.13600  0.38119  0.00737  1.0000 -0.1410002987
N   N13       1.0  0.62860  0.21190  0.60651  1.0000 -0.1410002987
N   N14       1.0  0.87140  0.78810  0.10651  1.0000 -0.1410002987
N   N15       1.0  0.37139  0.71190  0.89349  1.0000 -0.1410002987
N   N16       1.0  0.12860  0.28810  0.39349  1.0000 -0.1410002987
O   O1        1.0  0.69881  0.04906  0.13345  1.0000 -0.4897442105
O   O2        1.0  0.80119  0.95094  0.63345  1.0000 -0.4897442105
O   O3        1.0  0.30119  0.54906  0.36655  1.0000 -0.4897442105
O   O4        1.0  0.19880  0.45094  0.86655  1.0000 -0.4897442105
O   O5        1.0  0.89460  0.19890  0.60840  1.0000 -0.4897442105
O   O6        1.0  0.60540  0.80110  0.10840  1.0000 -0.4897442105
O   O7        1.0  0.10539  0.69890  0.89160  1.0000 -0.4897442105
O   O8        1.0  0.39460  0.30110  0.39160  1.0000 -0.4897442105
O   O9        1.0  0.64040  0.49020  0.11312  1.0000 -0.1620604767
O   O10       1.0  0.85959  0.50980  0.61312  1.0000 -0.1620604767
O   O11       1.0  0.35959  0.99020  0.38688  1.0000 -0.1620604767
O   O12       1.0  0.14041  0.00980  0.88688  1.0000 -0.1620604767
O   O13       1.0  0.67500  0.51380  0.76800  1.0000 -0.0924436095
O   O14       1.0  0.82499  0.48620  0.26800  1.0000 -0.0924436095
O   O15       1.0  0.32499  0.01380  0.73200  1.0000 -0.0924436095
O   O16       1.0  0.17500  0.98620  0.23200  1.0000 -0.0924436095
O   O17       1.0  0.31838  0.22859  0.97292  1.0000 -0.5690451244
O   O18       1.0  0.18161  0.77141  0.47292  1.0000 -0.5690451244
O   O19       1.0  0.68161  0.72859  0.52708  1.0000 -0.5690451244
O   O20       1.0  0.81839  0.27141  0.02708  1.0000 -0.5690451244
O   O21       1.0  0.45170  0.29243  0.00786  1.0000 -0.5215329657
O   O22       1.0  0.04829  0.70757  0.50786  1.0000 -0.5215329657
O   O23       1.0  0.54829  0.79243  0.49214  1.0000 -0.5215329657
O   O24       1.0  0.95171  0.20757  0.99214  1.0000 -0.5215329657
O   O25       1.0  0.65180  0.97838  0.54352  1.0000 -0.5439013819
O   O26       1.0  0.84819  0.02162  0.04352  1.0000 -0.5439013819
O   O27       1.0  0.34819  0.47838  0.95648  1.0000 -0.5439013819
O   O28       1.0  0.15180  0.52162  0.45648  1.0000 -0.5439013819
O   O29       1.0  0.63930  0.00037  0.43235  1.0000 -0.5528879146
O   O30       1.0  0.86069  0.99963  0.93235  1.0000 -0.5528879146
O   O31       1.0  0.36069  0.50037  0.06765  1.0000 -0.5528879146
O   O32       1.0  0.13930  0.49963  0.56765  1.0000 -0.5528879146
