# DDEC6 charges by PACMAN v1.1 (https://github.com/mtap-research/PACMAN-charge/)
data_2015[Yb][nan]3[ASR]1
_chemical_formula_sum              "Yb8 H216 C264 O48"
_cell_length_a       5.7721
_cell_length_b       32.7626
_cell_length_c       34.95
_cell_angle_alpha    90
_cell_angle_beta     90
_cell_angle_gamma    90

_symmetry_space_group_name_H-M    "P 1"
_symmetry_Int_Tables_number       1

loop_
  _symmetry_equiv_pos_as_xyz
  'x, y, z'

loop_
  _atom_site_type_symbol
  _atom_site_label
  _atom_site_symmetry_multiplicity
  _atom_site_fract_x
  _atom_site_fract_y
  _atom_site_fract_z
  _atom_site_occupancy
  _atom_site_charge
Yb  Yb1       1.0  0.88010  0.54371  0.25000  1.0000 2.1569006759
Yb  Yb2       1.0  0.38010  0.95629  0.75000  1.0000 2.1569006759
Yb  Yb3       1.0  0.61990  0.04371  0.25000  1.0000 2.1569006759
Yb  Yb4       1.0  0.11990  0.45629  0.75000  1.0000 2.1569006759
Yb  Yb5       1.0  0.44630  0.31885  0.75000  1.0000 1.998986395
Yb  Yb6       1.0  0.94630  0.18115  0.25000  1.0000 1.998986395
Yb  Yb7       1.0  0.05370  0.81885  0.75000  1.0000 1.998986395
Yb  Yb8       1.0  0.55370  0.68115  0.25000  1.0000 1.998986395
H   H1        1.0  0.33000  0.35430  0.56520  1.0000 0.1208415339
H   H2        1.0  0.83000  0.14570  0.43480  1.0000 0.1208415339
H   H3        1.0  0.17000  0.85430  0.93480  1.0000 0.1208415339
H   H4        1.0  0.67000  0.64570  0.06520  1.0000 0.1208415339
H   H5        1.0  0.67000  0.64570  0.43480  1.0000 0.1208415339
H   H6        1.0  0.17000  0.85430  0.56520  1.0000 0.1208415339
H   H7        1.0  0.83000  0.14570  0.06520  1.0000 0.1208415339
H   H8        1.0  0.33000  0.35430  0.93480  1.0000 0.1208415339
H   H9        1.0  0.40240  0.35070  0.63010  1.0000 0.1208415339
H   H10       1.0  0.90240  0.14930  0.36990  1.0000 0.1208415339
H   H11       1.0  0.09760  0.85070  0.86990  1.0000 0.1208415339
H   H12       1.0  0.59760  0.64930  0.13010  1.0000 0.1208415339
H   H13       1.0  0.59760  0.64930  0.36990  1.0000 0.1208415339
H   H14       1.0  0.09760  0.85070  0.63010  1.0000 0.1208415339
H   H15       1.0  0.90240  0.14930  0.13010  1.0000 0.1208415339
H   H16       1.0  0.40240  0.35070  0.86990  1.0000 0.1208415339
H   H17       1.0  0.69050  0.29770  0.44260  1.0000 0.1208415339
H   H18       1.0  0.19050  0.20230  0.55740  1.0000 0.1208415339
H   H19       1.0  0.80950  0.79770  0.05740  1.0000 0.1208415339
H   H20       1.0  0.30950  0.70230  0.94260  1.0000 0.1208415339
H   H21       1.0  0.30950  0.70230  0.55740  1.0000 0.1208415339
H   H22       1.0  0.80950  0.79770  0.44260  1.0000 0.1208415339
H   H23       1.0  0.19050  0.20230  0.94260  1.0000 0.1208415339
H   H24       1.0  0.69050  0.29770  0.05740  1.0000 0.1208415339
H   H25       1.0  0.50430  0.27560  0.46770  1.0000 0.1208415339
H   H26       1.0  0.00430  0.22440  0.53230  1.0000 0.1208415339
H   H27       1.0  0.99570  0.77560  0.03230  1.0000 0.1208415339
H   H28       1.0  0.49570  0.72440  0.96770  1.0000 0.1208415339
H   H29       1.0  0.49570  0.72440  0.53230  1.0000 0.1208415339
H   H30       1.0  0.99570  0.77560  0.46770  1.0000 0.1208415339
H   H31       1.0  0.00430  0.22440  0.96770  1.0000 0.1208415339
H   H32       1.0  0.50430  0.27560  0.03230  1.0000 0.1208415339
H   H33       1.0  0.80810  0.40930  0.64940  1.0000 0.1208415339
H   H34       1.0  0.30810  0.09070  0.35060  1.0000 0.1208415339
H   H35       1.0  0.69190  0.90930  0.85060  1.0000 0.1208415339
H   H36       1.0  0.19190  0.59070  0.14940  1.0000 0.1208415339
H   H37       1.0  0.19190  0.59070  0.35060  1.0000 0.1208415339
H   H38       1.0  0.69190  0.90930  0.64940  1.0000 0.1208415339
H   H39       1.0  0.30810  0.09070  0.14940  1.0000 0.1208415339
H   H40       1.0  0.80810  0.40930  0.85060  1.0000 0.1208415339
H   H41       1.0  0.73940  0.41290  0.58460  1.0000 0.1208415339
H   H42       1.0  0.23940  0.08710  0.41540  1.0000 0.1208415339
H   H43       1.0  0.76060  0.91290  0.91540  1.0000 0.1208415339
H   H44       1.0  0.26060  0.58710  0.08460  1.0000 0.1208415339
H   H45       1.0  0.26060  0.58710  0.41540  1.0000 0.1208415339
H   H46       1.0  0.76060  0.91290  0.58460  1.0000 0.1208415339
H   H47       1.0  0.23940  0.08710  0.08460  1.0000 0.1208415339
H   H48       1.0  0.73940  0.41290  0.91540  1.0000 0.1208415339
H   H49       1.0  0.86220  0.35700  0.52080  1.0000 0.1208415339
H   H50       1.0  0.36220  0.14300  0.47920  1.0000 0.1208415339
H   H51       1.0  0.63780  0.85700  0.97920  1.0000 0.1208415339
H   H52       1.0  0.13780  0.64300  0.02080  1.0000 0.1208415339
H   H53       1.0  0.13780  0.64300  0.47920  1.0000 0.1208415339
H   H54       1.0  0.63780  0.85700  0.52080  1.0000 0.1208415339
H   H55       1.0  0.36220  0.14300  0.02080  1.0000 0.1208415339
H   H56       1.0  0.86220  0.35700  0.97920  1.0000 0.1208415339
H   H57       1.0  0.88070  0.40460  0.51850  1.0000 0.1208415339
H   H58       1.0  0.38070  0.09540  0.48150  1.0000 0.1208415339
H   H59       1.0  0.61930  0.90460  0.98150  1.0000 0.1208415339
H   H60       1.0  0.11930  0.59540  0.01850  1.0000 0.1208415339
H   H61       1.0  0.11930  0.59540  0.48150  1.0000 0.1208415339
H   H62       1.0  0.61930  0.90460  0.51850  1.0000 0.1208415339
H   H63       1.0  0.38070  0.09540  0.01850  1.0000 0.1208415339
H   H64       1.0  0.88070  0.40460  0.98150  1.0000 0.1208415339
H   H65       1.0  0.60000  0.46670  0.47030  1.0000 0.1208415339
H   H66       1.0  0.10000  0.03330  0.52970  1.0000 0.1208415339
H   H67       1.0  0.90000  0.96670  0.02970  1.0000 0.1208415339
H   H68       1.0  0.40000  0.53330  0.97030  1.0000 0.1208415339
H   H69       1.0  0.40000  0.53330  0.52970  1.0000 0.1208415339
H   H70       1.0  0.90000  0.96670  0.47030  1.0000 0.1208415339
H   H71       1.0  0.10000  0.03330  0.97030  1.0000 0.1208415339
H   H72       1.0  0.60000  0.46670  0.02970  1.0000 0.1208415339
H   H73       1.0  0.76860  0.43850  0.44720  1.0000 0.1208415339
H   H74       1.0  0.26860  0.06150  0.55280  1.0000 0.1208415339
H   H75       1.0  0.73140  0.93850  0.05280  1.0000 0.1208415339
H   H76       1.0  0.23140  0.56150  0.94720  1.0000 0.1208415339
H   H77       1.0  0.23140  0.56150  0.55280  1.0000 0.1208415339
H   H78       1.0  0.73140  0.93850  0.44720  1.0000 0.1208415339
H   H79       1.0  0.26860  0.06150  0.94720  1.0000 0.1208415339
H   H80       1.0  0.76860  0.43850  0.05280  1.0000 0.1208415339
H   H81       1.0  0.30820  0.45900  0.52530  1.0000 0.1387329728
H   H82       1.0  0.80820  0.04100  0.47470  1.0000 0.1387329728
H   H83       1.0  0.19180  0.95900  0.97470  1.0000 0.1387329728
H   H84       1.0  0.69180  0.54100  0.02530  1.0000 0.1387329728
H   H85       1.0  0.69180  0.54100  0.47470  1.0000 0.1387329728
H   H86       1.0  0.19180  0.95900  0.52530  1.0000 0.1387329728
H   H87       1.0  0.80820  0.04100  0.02530  1.0000 0.1387329728
H   H88       1.0  0.30820  0.45900  0.97470  1.0000 0.1387329728
H   H89       1.0  0.05640  0.45330  0.50930  1.0000 0.1296007622
H   H90       1.0  0.55640  0.04670  0.49070  1.0000 0.1296007622
H   H91       1.0  0.44360  0.95330  0.99070  1.0000 0.1296007622
H   H92       1.0  0.94360  0.54670  0.00930  1.0000 0.1296007622
H   H93       1.0  0.94360  0.54670  0.49070  1.0000 0.1296007622
H   H94       1.0  0.44360  0.95330  0.50930  1.0000 0.1296007622
H   H95       1.0  0.55640  0.04670  0.00930  1.0000 0.1296007622
H   H96       1.0  0.05640  0.45330  0.99070  1.0000 0.1296007622
H   H97       1.0  0.24720  0.47390  0.48390  1.0000 0.1296007622
H   H98       1.0  0.74720  0.02610  0.51610  1.0000 0.1296007622
H   H99       1.0  0.25280  0.97390  0.01610  1.0000 0.1296007622
H   H100      1.0  0.75280  0.52610  0.98390  1.0000 0.1296007622
H   H101      1.0  0.75280  0.52610  0.51610  1.0000 0.1296007622
H   H102      1.0  0.25280  0.97390  0.48390  1.0000 0.1296007622
H   H103      1.0  0.74720  0.02610  0.98390  1.0000 0.1296007622
H   H104      1.0  0.24720  0.47390  0.01610  1.0000 0.1296007622
H   H105      1.0  0.67100  0.23510  0.40350  1.0000 0.1208415339
H   H106      1.0  0.17100  0.26490  0.59650  1.0000 0.1208415339
H   H107      1.0  0.82900  0.73510  0.09650  1.0000 0.1208415339
H   H108      1.0  0.32900  0.76490  0.90350  1.0000 0.1208415339
H   H109      1.0  0.32900  0.76490  0.59650  1.0000 0.1208415339
H   H110      1.0  0.82900  0.73510  0.40350  1.0000 0.1208415339
H   H111      1.0  0.17100  0.26490  0.90350  1.0000 0.1208415339
H   H112      1.0  0.67100  0.23510  0.09650  1.0000 0.1208415339
H   H113      1.0  0.24030  0.43820  0.40380  1.0000 0.1296007622
H   H114      1.0  0.74030  0.06180  0.59620  1.0000 0.1296007622
H   H115      1.0  0.25970  0.93820  0.09620  1.0000 0.1296007622
H   H116      1.0  0.75970  0.56180  0.90380  1.0000 0.1296007622
H   H117      1.0  0.75970  0.56180  0.59620  1.0000 0.1296007622
H   H118      1.0  0.25970  0.93820  0.40380  1.0000 0.1296007622
H   H119      1.0  0.74030  0.06180  0.90380  1.0000 0.1296007622
H   H120      1.0  0.24030  0.43820  0.09620  1.0000 0.1296007622
H   H121      1.0  0.14620  0.31280  0.40680  1.0000 0.1296007622
H   H122      1.0  0.64620  0.18720  0.59320  1.0000 0.1296007622
H   H123      1.0  0.35380  0.81280  0.09320  1.0000 0.1296007622
H   H124      1.0  0.85380  0.68720  0.90680  1.0000 0.1296007622
H   H125      1.0  0.85380  0.68720  0.59320  1.0000 0.1296007622
H   H126      1.0  0.35380  0.81280  0.40680  1.0000 0.1296007622
H   H127      1.0  0.64620  0.18720  0.90680  1.0000 0.1296007622
H   H128      1.0  0.14620  0.31280  0.09320  1.0000 0.1296007622
H   H129      1.0  0.98150  0.28240  0.35410  1.0000 0.1208415339
H   H130      1.0  0.48150  0.21760  0.64590  1.0000 0.1208415339
H   H131      1.0  0.51850  0.78240  0.14590  1.0000 0.1208415339
H   H132      1.0  0.01850  0.71760  0.85410  1.0000 0.1208415339
H   H133      1.0  0.01850  0.71760  0.64590  1.0000 0.1208415339
H   H134      1.0  0.51850  0.78240  0.35410  1.0000 0.1208415339
H   H135      1.0  0.48150  0.21760  0.85410  1.0000 0.1208415339
H   H136      1.0  0.98150  0.28240  0.14590  1.0000 0.1208415339
H   H137      1.0  0.52030  0.20650  0.34810  1.0000 0.1208415339
H   H138      1.0  0.02030  0.29350  0.65190  1.0000 0.1208415339
H   H139      1.0  0.97970  0.70650  0.15190  1.0000 0.1208415339
H   H140      1.0  0.47970  0.79350  0.84810  1.0000 0.1208415339
H   H141      1.0  0.47970  0.79350  0.65190  1.0000 0.1208415339
H   H142      1.0  0.97970  0.70650  0.34810  1.0000 0.1208415339
H   H143      1.0  0.02030  0.29350  0.84810  1.0000 0.1208415339
H   H144      1.0  0.52030  0.20650  0.15190  1.0000 0.1208415339
H   H145      1.0  0.10310  0.28120  0.47730  1.0000 0.1296007622
H   H146      1.0  0.60310  0.21880  0.52270  1.0000 0.1296007622
H   H147      1.0  0.39690  0.78120  0.02270  1.0000 0.1296007622
H   H148      1.0  0.89690  0.71880  0.97730  1.0000 0.1296007622
H   H149      1.0  0.89690  0.71880  0.52270  1.0000 0.1296007622
H   H150      1.0  0.39690  0.78120  0.47730  1.0000 0.1296007622
H   H151      1.0  0.60310  0.21880  0.97730  1.0000 0.1296007622
H   H152      1.0  0.10310  0.28120  0.02270  1.0000 0.1296007622
H   H153      1.0  0.98490  0.30580  0.51040  1.0000 0.1296007622
H   H154      1.0  0.48490  0.19420  0.48960  1.0000 0.1296007622
H   H155      1.0  0.51510  0.80580  0.98960  1.0000 0.1296007622
H   H156      1.0  0.01510  0.69420  0.01040  1.0000 0.1296007622
H   H157      1.0  0.01510  0.69420  0.48960  1.0000 0.1296007622
H   H158      1.0  0.51510  0.80580  0.51040  1.0000 0.1296007622
H   H159      1.0  0.48490  0.19420  0.01040  1.0000 0.1296007622
H   H160      1.0  0.98490  0.30580  0.98960  1.0000 0.1296007622
H   H161      1.0  0.22710  0.28530  0.51700  1.0000 0.1387329728
H   H162      1.0  0.72710  0.21470  0.48300  1.0000 0.1387329728
H   H163      1.0  0.27290  0.78530  0.98300  1.0000 0.1387329728
H   H164      1.0  0.77290  0.71470  0.01700  1.0000 0.1387329728
H   H165      1.0  0.77290  0.71470  0.48300  1.0000 0.1387329728
H   H166      1.0  0.27290  0.78530  0.51700  1.0000 0.1387329728
H   H167      1.0  0.72710  0.21470  0.01700  1.0000 0.1387329728
H   H168      1.0  0.22710  0.28530  0.98300  1.0000 0.1387329728
H   H169      1.0  0.87630  0.37200  0.43020  1.0000 0.1296007622
H   H170      1.0  0.37630  0.12800  0.56980  1.0000 0.1296007622
H   H171      1.0  0.62370  0.87200  0.06980  1.0000 0.1296007622
H   H172      1.0  0.12370  0.62800  0.93020  1.0000 0.1296007622
H   H173      1.0  0.12370  0.62800  0.56980  1.0000 0.1296007622
H   H174      1.0  0.62370  0.87200  0.43020  1.0000 0.1296007622
H   H175      1.0  0.37630  0.12800  0.93020  1.0000 0.1296007622
H   H176      1.0  0.87630  0.37200  0.06980  1.0000 0.1296007622
H   H177      1.0  0.71140  0.39190  0.39980  1.0000 0.1296007622
H   H178      1.0  0.21140  0.10810  0.60020  1.0000 0.1296007622
H   H179      1.0  0.78860  0.89190  0.10020  1.0000 0.1296007622
H   H180      1.0  0.28860  0.60810  0.89980  1.0000 0.1296007622
H   H181      1.0  0.28860  0.60810  0.60020  1.0000 0.1296007622
H   H182      1.0  0.78860  0.89190  0.39980  1.0000 0.1296007622
H   H183      1.0  0.21140  0.10810  0.89980  1.0000 0.1296007622
H   H184      1.0  0.71140  0.39190  0.10020  1.0000 0.1296007622
H   H185      1.0  0.72000  0.34430  0.40430  1.0000 0.1296007622
H   H186      1.0  0.22000  0.15570  0.59570  1.0000 0.1296007622
H   H187      1.0  0.78000  0.84430  0.09570  1.0000 0.1296007622
H   H188      1.0  0.28000  0.65570  0.90430  1.0000 0.1296007622
H   H189      1.0  0.28000  0.65570  0.59570  1.0000 0.1296007622
H   H190      1.0  0.78000  0.84430  0.40430  1.0000 0.1296007622
H   H191      1.0  0.22000  0.15570  0.90430  1.0000 0.1296007622
H   H192      1.0  0.72000  0.34430  0.09570  1.0000 0.1296007622
H   H193      1.0  0.81830  0.50230  0.40890  1.0000 0.1296007622
H   H194      1.0  0.31830  0.99770  0.59110  1.0000 0.1296007622
H   H195      1.0  0.68170  0.00230  0.09110  1.0000 0.1296007622
H   H196      1.0  0.18170  0.49770  0.90890  1.0000 0.1296007622
H   H197      1.0  0.18170  0.49770  0.59110  1.0000 0.1296007622
H   H198      1.0  0.68170  0.00230  0.40890  1.0000 0.1296007622
H   H199      1.0  0.31830  0.99770  0.90890  1.0000 0.1296007622
H   H200      1.0  0.81830  0.50230  0.09110  1.0000 0.1296007622
H   H201      1.0  0.14260  0.47050  0.34770  1.0000 0.1208415339
H   H202      1.0  0.64260  0.02950  0.65230  1.0000 0.1208415339
H   H203      1.0  0.35740  0.97050  0.15230  1.0000 0.1208415339
H   H204      1.0  0.85740  0.52950  0.84770  1.0000 0.1208415339
H   H205      1.0  0.85740  0.52950  0.65230  1.0000 0.1208415339
H   H206      1.0  0.35740  0.97050  0.34770  1.0000 0.1208415339
H   H207      1.0  0.64260  0.02950  0.84770  1.0000 0.1208415339
H   H208      1.0  0.14260  0.47050  0.15230  1.0000 0.1208415339
H   H209      1.0  0.71850  0.53450  0.35290  1.0000 0.1208415339
H   H210      1.0  0.21850  0.96550  0.64710  1.0000 0.1208415339
H   H211      1.0  0.78150  0.03450  0.14710  1.0000 0.1208415339
H   H212      1.0  0.28150  0.46550  0.85290  1.0000 0.1208415339
H   H213      1.0  0.28150  0.46550  0.64710  1.0000 0.1208415339
H   H214      1.0  0.78150  0.03450  0.35290  1.0000 0.1208415339
H   H215      1.0  0.21850  0.96550  0.85290  1.0000 0.1208415339
H   H216      1.0  0.71850  0.53450  0.14710  1.0000 0.1208415339
C   C1        1.0  0.22200  0.36500  0.58220  1.0000 -0.1616804284
C   C2        1.0  0.72200  0.13500  0.41780  1.0000 -0.1616804284
C   C3        1.0  0.27800  0.86500  0.91780  1.0000 -0.1616804284
C   C4        1.0  0.77800  0.63500  0.08220  1.0000 -0.1616804284
C   C5        1.0  0.77800  0.63500  0.41780  1.0000 -0.1616804284
C   C6        1.0  0.27800  0.86500  0.58220  1.0000 -0.1616804284
C   C7        1.0  0.72200  0.13500  0.08220  1.0000 -0.1616804284
C   C8        1.0  0.22200  0.36500  0.91780  1.0000 -0.1616804284
C   C9        1.0  0.26900  0.36340  0.62120  1.0000 -0.0998125333
C   C10       1.0  0.76900  0.13660  0.37880  1.0000 -0.0998125333
C   C11       1.0  0.23100  0.86340  0.87880  1.0000 -0.0998125333
C   C12       1.0  0.73100  0.63660  0.12120  1.0000 -0.0998125333
C   C13       1.0  0.73100  0.63660  0.37880  1.0000 -0.0998125333
C   C14       1.0  0.23100  0.86340  0.62120  1.0000 -0.0998125333
C   C15       1.0  0.76900  0.13660  0.12120  1.0000 -0.0998125333
C   C16       1.0  0.26900  0.36340  0.87880  1.0000 -0.0998125333
C   C17       1.0  0.52500  0.29490  0.44690  1.0000 -0.3027241361
C   C18       1.0  0.02500  0.20510  0.55310  1.0000 -0.3027241361
C   C19       1.0  0.97500  0.79490  0.05310  1.0000 -0.3027241361
C   C20       1.0  0.47500  0.70510  0.94690  1.0000 -0.3027241361
C   C21       1.0  0.47500  0.70510  0.55310  1.0000 -0.3027241361
C   C22       1.0  0.97500  0.79490  0.44690  1.0000 -0.3027241361
C   C23       1.0  0.02500  0.20510  0.94690  1.0000 -0.3027241361
C   C24       1.0  0.52500  0.29490  0.05310  1.0000 -0.3027241361
C   C25       1.0  0.11500  0.38070  0.64660  1.0000 -0.0442328845
C   C26       1.0  0.61500  0.11930  0.35340  1.0000 -0.0442328845
C   C27       1.0  0.38500  0.88070  0.85340  1.0000 -0.0442328845
C   C28       1.0  0.88500  0.61930  0.14660  1.0000 -0.0442328845
C   C29       1.0  0.88500  0.61930  0.35340  1.0000 -0.0442328845
C   C30       1.0  0.38500  0.88070  0.64660  1.0000 -0.0442328845
C   C31       1.0  0.61500  0.11930  0.14660  1.0000 -0.0442328845
C   C32       1.0  0.11500  0.38070  0.85340  1.0000 -0.0442328845
C   C33       1.0  0.02400  0.38160  0.56800  1.0000 0.1387329728
C   C34       1.0  0.52400  0.11840  0.43200  1.0000 0.1387329728
C   C35       1.0  0.47600  0.88160  0.93200  1.0000 0.1387329728
C   C36       1.0  0.97600  0.61840  0.06800  1.0000 0.1387329728
C   C37       1.0  0.97600  0.61840  0.43200  1.0000 0.1387329728
C   C38       1.0  0.47600  0.88160  0.56800  1.0000 0.1387329728
C   C39       1.0  0.52400  0.11840  0.06800  1.0000 0.1387329728
C   C40       1.0  0.02400  0.38160  0.93200  1.0000 0.1387329728
C   C41       1.0  0.43000  0.33650  0.45970  1.0000 -0.0093146307
C   C42       1.0  0.93000  0.16350  0.54030  1.0000 -0.0093146307
C   C43       1.0  0.07000  0.83650  0.04030  1.0000 -0.0093146307
C   C44       1.0  0.57000  0.66350  0.95970  1.0000 -0.0093146307
C   C45       1.0  0.57000  0.66350  0.54030  1.0000 -0.0093146307
C   C46       1.0  0.07000  0.83650  0.45970  1.0000 -0.0093146307
C   C47       1.0  0.93000  0.16350  0.95970  1.0000 -0.0093146307
C   C48       1.0  0.43000  0.33650  0.04030  1.0000 -0.0093146307
C   C49       1.0  0.46500  0.40890  0.46190  1.0000 -0.0016902236
C   C50       1.0  0.96500  0.09110  0.53810  1.0000 -0.0016902236
C   C51       1.0  0.03500  0.90890  0.03810  1.0000 -0.0016902236
C   C52       1.0  0.53500  0.59110  0.96190  1.0000 -0.0016902236
C   C53       1.0  0.53500  0.59110  0.53810  1.0000 -0.0016902236
C   C54       1.0  0.03500  0.90890  0.46190  1.0000 -0.0016902236
C   C55       1.0  0.96500  0.09110  0.96190  1.0000 -0.0016902236
C   C56       1.0  0.46500  0.40890  0.03810  1.0000 -0.0016902236
C   C57       1.0  0.28400  0.41200  0.48700  1.0000 0.0364044359
C   C58       1.0  0.78400  0.08800  0.51300  1.0000 0.0364044359
C   C59       1.0  0.21600  0.91200  0.01300  1.0000 0.0364044359
C   C60       1.0  0.71600  0.58800  0.98700  1.0000 0.0364044359
C   C61       1.0  0.71600  0.58800  0.51300  1.0000 0.0364044359
C   C62       1.0  0.21600  0.91200  0.48700  1.0000 0.0364044359
C   C63       1.0  0.78400  0.08800  0.98700  1.0000 0.0364044359
C   C64       1.0  0.28400  0.41200  0.01300  1.0000 0.0364044359
C   C65       1.0  0.25000  0.33800  0.48490  1.0000 0.0364044359
C   C66       1.0  0.75000  0.16200  0.51510  1.0000 0.0364044359
C   C67       1.0  0.25000  0.83800  0.01510  1.0000 0.0364044359
C   C68       1.0  0.75000  0.66200  0.98490  1.0000 0.0364044359
C   C69       1.0  0.75000  0.66200  0.51510  1.0000 0.0364044359
C   C70       1.0  0.25000  0.83800  0.48490  1.0000 0.0364044359
C   C71       1.0  0.75000  0.16200  0.98490  1.0000 0.0364044359
C   C72       1.0  0.25000  0.33800  0.01510  1.0000 0.0364044359
C   C73       1.0  0.41800  0.27730  0.41160  1.0000 0.1296007622
C   C74       1.0  0.91800  0.22270  0.58840  1.0000 0.1296007622
C   C75       1.0  0.08200  0.77730  0.08840  1.0000 0.1296007622
C   C76       1.0  0.58200  0.72270  0.91160  1.0000 0.1296007622
C   C77       1.0  0.58200  0.72270  0.58840  1.0000 0.1296007622
C   C78       1.0  0.08200  0.77730  0.41160  1.0000 0.1296007622
C   C79       1.0  0.91800  0.22270  0.91160  1.0000 0.1296007622
C   C80       1.0  0.41800  0.27730  0.08840  1.0000 0.1296007622
C   C81       1.0  0.13200  0.22210  0.31090  1.0000 0.5741815808
C   C82       1.0  0.63200  0.27790  0.68910  1.0000 0.5741815808
C   C83       1.0  0.36800  0.72210  0.18910  1.0000 0.5741815808
C   C84       1.0  0.86800  0.77790  0.81090  1.0000 0.5741815808
C   C85       1.0  0.86800  0.77790  0.68910  1.0000 0.5741815808
C   C86       1.0  0.36800  0.72210  0.31090  1.0000 0.5741815808
C   C87       1.0  0.63200  0.27790  0.81090  1.0000 0.5741815808
C   C88       1.0  0.13200  0.22210  0.18910  1.0000 0.5741815808
C   C89       1.0  0.54000  0.37200  0.44680  1.0000 0.0507412086
C   C90       1.0  0.04000  0.12800  0.55320  1.0000 0.0507412086
C   C91       1.0  0.96000  0.87200  0.05320  1.0000 0.0507412086
C   C92       1.0  0.46000  0.62800  0.94680  1.0000 0.0507412086
C   C93       1.0  0.46000  0.62800  0.55320  1.0000 0.0507412086
C   C94       1.0  0.96000  0.87200  0.44680  1.0000 0.0507412086
C   C95       1.0  0.04000  0.12800  0.94680  1.0000 0.0507412086
C   C96       1.0  0.54000  0.37200  0.05320  1.0000 0.0507412086
C   C97       1.0  0.91500  0.39830  0.63240  1.0000 -0.0945748818
C   C98       1.0  0.41500  0.10170  0.36760  1.0000 -0.0945748818
C   C99       1.0  0.58500  0.89830  0.86760  1.0000 -0.0945748818
C   C100      1.0  0.08500  0.60170  0.13240  1.0000 -0.0945748818
C   C101      1.0  0.08500  0.60170  0.36760  1.0000 -0.0945748818
C   C102      1.0  0.58500  0.89830  0.63240  1.0000 -0.0945748818
C   C103      1.0  0.41500  0.10170  0.13240  1.0000 -0.0945748818
C   C104      1.0  0.91500  0.39830  0.86760  1.0000 -0.0945748818
C   C105      1.0  0.87100  0.39970  0.59360  1.0000 -0.1717246781
C   C106      1.0  0.37100  0.10030  0.40640  1.0000 -0.1717246781
C   C107      1.0  0.62900  0.89970  0.90640  1.0000 -0.1717246781
C   C108      1.0  0.12900  0.60030  0.09360  1.0000 -0.1717246781
C   C109      1.0  0.12900  0.60030  0.40640  1.0000 -0.1717246781
C   C110      1.0  0.62900  0.89970  0.59360  1.0000 -0.1717246781
C   C111      1.0  0.37100  0.10030  0.09360  1.0000 -0.1717246781
C   C112      1.0  0.87100  0.39970  0.90640  1.0000 -0.1717246781
C   C113      1.0  0.96500  0.38000  0.52510  1.0000 -0.3099417445
C   C114      1.0  0.46500  0.12000  0.47490  1.0000 -0.3099417445
C   C115      1.0  0.53500  0.88000  0.97490  1.0000 -0.3099417445
C   C116      1.0  0.03500  0.62000  0.02510  1.0000 -0.3099417445
C   C117      1.0  0.03500  0.62000  0.47490  1.0000 -0.3099417445
C   C118      1.0  0.53500  0.88000  0.52510  1.0000 -0.3099417445
C   C119      1.0  0.46500  0.12000  0.02510  1.0000 -0.3099417445
C   C120      1.0  0.96500  0.38000  0.97490  1.0000 -0.3099417445
C   C121      1.0  0.60800  0.44670  0.44980  1.0000 -0.3099417445
C   C122      1.0  0.10800  0.05330  0.55020  1.0000 -0.3099417445
C   C123      1.0  0.89200  0.94670  0.05020  1.0000 -0.3099417445
C   C124      1.0  0.39200  0.55330  0.94980  1.0000 -0.3099417445
C   C125      1.0  0.39200  0.55330  0.55020  1.0000 -0.3099417445
C   C126      1.0  0.89200  0.94670  0.44980  1.0000 -0.3099417445
C   C127      1.0  0.10800  0.05330  0.94980  1.0000 -0.3099417445
C   C128      1.0  0.60800  0.44670  0.05020  1.0000 -0.3099417445
C   C129      1.0  0.23200  0.24110  0.34620  1.0000 -0.0231480432
C   C130      1.0  0.73200  0.25890  0.65380  1.0000 -0.0231480432
C   C131      1.0  0.26800  0.74110  0.15380  1.0000 -0.0231480432
C   C132      1.0  0.76800  0.75890  0.84620  1.0000 -0.0231480432
C   C133      1.0  0.76800  0.75890  0.65380  1.0000 -0.0231480432
C   C134      1.0  0.26800  0.74110  0.34620  1.0000 -0.0231480432
C   C135      1.0  0.73200  0.25890  0.84620  1.0000 -0.0231480432
C   C136      1.0  0.23200  0.24110  0.15380  1.0000 -0.0231480432
C   C137      1.0  0.16500  0.37620  0.49880  1.0000 0.0031734455
C   C138      1.0  0.66500  0.12380  0.50120  1.0000 0.0031734455
C   C139      1.0  0.33500  0.87620  0.00120  1.0000 0.0031734455
C   C140      1.0  0.83500  0.62380  0.99880  1.0000 0.0031734455
C   C141      1.0  0.83500  0.62380  0.50120  1.0000 0.0031734455
C   C142      1.0  0.33500  0.87620  0.49880  1.0000 0.0031734455
C   C143      1.0  0.66500  0.12380  0.99880  1.0000 0.0031734455
C   C144      1.0  0.16500  0.37620  0.00120  1.0000 0.0031734455
C   C145      1.0  0.21800  0.45330  0.50280  1.0000 -0.4523691443
C   C146      1.0  0.71800  0.04670  0.49720  1.0000 -0.4523691443
C   C147      1.0  0.28200  0.95330  0.99720  1.0000 -0.4523691443
C   C148      1.0  0.78200  0.54670  0.00280  1.0000 -0.4523691443
C   C149      1.0  0.78200  0.54670  0.49720  1.0000 -0.4523691443
C   C150      1.0  0.28200  0.95330  0.50280  1.0000 -0.4523691443
C   C151      1.0  0.71800  0.04670  0.00280  1.0000 -0.4523691443
C   C152      1.0  0.21800  0.45330  0.99720  1.0000 -0.4523691443
C   C153      1.0  0.16600  0.38040  0.68850  1.0000 0.6730740982
C   C154      1.0  0.66600  0.11960  0.31150  1.0000 0.6730740982
C   C155      1.0  0.33400  0.88040  0.81150  1.0000 0.6730740982
C   C156      1.0  0.83400  0.61960  0.18850  1.0000 0.6730740982
C   C157      1.0  0.83400  0.61960  0.31150  1.0000 0.6730740982
C   C158      1.0  0.33400  0.88040  0.68850  1.0000 0.6730740982
C   C159      1.0  0.66600  0.11960  0.18850  1.0000 0.6730740982
C   C160      1.0  0.16600  0.38040  0.81150  1.0000 0.6730740982
C   C161      1.0  0.53300  0.24490  0.39350  1.0000 -0.1717246781
C   C162      1.0  0.03300  0.25510  0.60650  1.0000 -0.1717246781
C   C163      1.0  0.96700  0.74490  0.10650  1.0000 -0.1717246781
C   C164      1.0  0.46700  0.75510  0.89350  1.0000 -0.1717246781
C   C165      1.0  0.46700  0.75510  0.60650  1.0000 -0.1717246781
C   C166      1.0  0.96700  0.74490  0.39350  1.0000 -0.1717246781
C   C167      1.0  0.03300  0.25510  0.89350  1.0000 -0.1717246781
C   C168      1.0  0.53300  0.24490  0.10650  1.0000 -0.1717246781
C   C169      1.0  0.34000  0.45780  0.39410  1.0000 -0.1717246781
C   C170      1.0  0.84000  0.04220  0.60590  1.0000 -0.1717246781
C   C171      1.0  0.16000  0.95780  0.10590  1.0000 -0.1717246781
C   C172      1.0  0.66000  0.54220  0.89410  1.0000 -0.1717246781
C   C173      1.0  0.66000  0.54220  0.60590  1.0000 -0.1717246781
C   C174      1.0  0.16000  0.95780  0.39410  1.0000 -0.1717246781
C   C175      1.0  0.84000  0.04220  0.89410  1.0000 -0.1717246781
C   C176      1.0  0.34000  0.45780  0.10590  1.0000 -0.1717246781
C   C177      1.0  0.22100  0.29050  0.39570  1.0000 -0.1616804284
C   C178      1.0  0.72100  0.20950  0.60430  1.0000 -0.1616804284
C   C179      1.0  0.27900  0.79050  0.10430  1.0000 -0.1616804284
C   C180      1.0  0.77900  0.70950  0.89570  1.0000 -0.1616804284
C   C181      1.0  0.77900  0.70950  0.60430  1.0000 -0.1616804284
C   C182      1.0  0.27900  0.79050  0.39570  1.0000 -0.1616804284
C   C183      1.0  0.72100  0.20950  0.89570  1.0000 -0.1616804284
C   C184      1.0  0.22100  0.29050  0.10430  1.0000 -0.1616804284
C   C185      1.0  0.53300  0.46650  0.41370  1.0000 0.1296007622
C   C186      1.0  0.03300  0.03350  0.58630  1.0000 0.1296007622
C   C187      1.0  0.96700  0.96650  0.08630  1.0000 0.1296007622
C   C188      1.0  0.46700  0.53350  0.91370  1.0000 0.1296007622
C   C189      1.0  0.46700  0.53350  0.58630  1.0000 0.1296007622
C   C190      1.0  0.96700  0.96650  0.41370  1.0000 0.1296007622
C   C191      1.0  0.03300  0.03350  0.91370  1.0000 0.1296007622
C   C192      1.0  0.53300  0.46650  0.08630  1.0000 0.1296007622
C   C193      1.0  0.12200  0.27280  0.36370  1.0000 -0.0998125333
C   C194      1.0  0.62200  0.22720  0.63630  1.0000 -0.0998125333
C   C195      1.0  0.37800  0.77280  0.13630  1.0000 -0.0998125333
C   C196      1.0  0.87800  0.72720  0.86370  1.0000 -0.0998125333
C   C197      1.0  0.87800  0.72720  0.63630  1.0000 -0.0998125333
C   C198      1.0  0.37800  0.77280  0.36370  1.0000 -0.0998125333
C   C199      1.0  0.62200  0.22720  0.86370  1.0000 -0.0998125333
C   C200      1.0  0.12200  0.27280  0.13630  1.0000 -0.0998125333
C   C201      1.0  0.42700  0.50520  0.34330  1.0000 -0.029346424
C   C202      1.0  0.92700  0.99480  0.65670  1.0000 -0.029346424
C   C203      1.0  0.07300  0.00520  0.15670  1.0000 -0.029346424
C   C204      1.0  0.57300  0.49480  0.84330  1.0000 -0.029346424
C   C205      1.0  0.57300  0.49480  0.65670  1.0000 -0.029346424
C   C206      1.0  0.07300  0.00520  0.34330  1.0000 -0.029346424
C   C207      1.0  0.92700  0.99480  0.84330  1.0000 -0.029346424
C   C208      1.0  0.42700  0.50520  0.15670  1.0000 -0.029346424
C   C209      1.0  0.44100  0.22740  0.36050  1.0000 -0.0781017002
C   C210      1.0  0.94100  0.27260  0.63950  1.0000 -0.0781017002
C   C211      1.0  0.05900  0.72740  0.13950  1.0000 -0.0781017002
C   C212      1.0  0.55900  0.77260  0.86050  1.0000 -0.0781017002
C   C213      1.0  0.55900  0.77260  0.63950  1.0000 -0.0781017002
C   C214      1.0  0.05900  0.72740  0.36050  1.0000 -0.0781017002
C   C215      1.0  0.94100  0.27260  0.86050  1.0000 -0.0781017002
C   C216      1.0  0.44100  0.22740  0.13950  1.0000 -0.0781017002
C   C217      1.0  0.13000  0.29890  0.49870  1.0000 -0.4564368688
C   C218      1.0  0.63000  0.20110  0.50130  1.0000 -0.4564368688
C   C219      1.0  0.37000  0.79890  0.00130  1.0000 -0.4564368688
C   C220      1.0  0.87000  0.70110  0.99870  1.0000 -0.4564368688
C   C221      1.0  0.87000  0.70110  0.50130  1.0000 -0.4564368688
C   C222      1.0  0.37000  0.79890  0.49870  1.0000 -0.4564368688
C   C223      1.0  0.63000  0.20110  0.99870  1.0000 -0.4564368688
C   C224      1.0  0.13000  0.29890  0.00130  1.0000 -0.4564368688
C   C225      1.0  0.72900  0.36990  0.41770  1.0000 -0.4564368688
C   C226      1.0  0.22900  0.13010  0.58230  1.0000 -0.4564368688
C   C227      1.0  0.77100  0.86990  0.08230  1.0000 -0.4564368688
C   C228      1.0  0.27100  0.63010  0.91770  1.0000 -0.4564368688
C   C229      1.0  0.27100  0.63010  0.58230  1.0000 -0.4564368688
C   C230      1.0  0.77100  0.86990  0.41770  1.0000 -0.4564368688
C   C231      1.0  0.22900  0.13010  0.91770  1.0000 -0.4564368688
C   C232      1.0  0.72900  0.36990  0.08230  1.0000 -0.4564368688
C   C233      1.0  0.67900  0.49560  0.39690  1.0000 -0.1717246781
C   C234      1.0  0.17900  0.00440  0.60310  1.0000 -0.1717246781
C   C235      1.0  0.82100  0.99560  0.10310  1.0000 -0.1717246781
C   C236      1.0  0.32100  0.50440  0.89690  1.0000 -0.1717246781
C   C237      1.0  0.32100  0.50440  0.60310  1.0000 -0.1717246781
C   C238      1.0  0.82100  0.99560  0.39690  1.0000 -0.1717246781
C   C239      1.0  0.17900  0.00440  0.89690  1.0000 -0.1717246781
C   C240      1.0  0.67900  0.49560  0.10310  1.0000 -0.1717246781
C   C241      1.0  0.28200  0.47700  0.35970  1.0000 -0.0998125333
C   C242      1.0  0.78200  0.02300  0.64030  1.0000 -0.0998125333
C   C243      1.0  0.21800  0.97700  0.14030  1.0000 -0.0998125333
C   C244      1.0  0.71800  0.52300  0.85970  1.0000 -0.0998125333
C   C245      1.0  0.71800  0.52300  0.64030  1.0000 -0.0998125333
C   C246      1.0  0.21800  0.97700  0.35970  1.0000 -0.0998125333
C   C247      1.0  0.78200  0.02300  0.85970  1.0000 -0.0998125333
C   C248      1.0  0.28200  0.47700  0.14030  1.0000 -0.0998125333
C   C249      1.0  0.62000  0.51450  0.36270  1.0000 -0.0998125333
C   C250      1.0  0.12000  0.98550  0.63730  1.0000 -0.0998125333
C   C251      1.0  0.88000  0.01450  0.13730  1.0000 -0.0998125333
C   C252      1.0  0.38000  0.48550  0.86270  1.0000 -0.0998125333
C   C253      1.0  0.38000  0.48550  0.63730  1.0000 -0.0998125333
C   C254      1.0  0.88000  0.01450  0.36270  1.0000 -0.0998125333
C   C255      1.0  0.12000  0.98550  0.86270  1.0000 -0.0998125333
C   C256      1.0  0.62000  0.51450  0.13730  1.0000 -0.0998125333
C   C257      1.0  0.38600  0.52740  0.30500  1.0000 0.6460923272
C   C258      1.0  0.88600  0.97260  0.69500  1.0000 0.6460923272
C   C259      1.0  0.11400  0.02740  0.19500  1.0000 0.6460923272
C   C260      1.0  0.61400  0.47260  0.80500  1.0000 0.6460923272
C   C261      1.0  0.61400  0.47260  0.69500  1.0000 0.6460923272
C   C262      1.0  0.11400  0.02740  0.30500  1.0000 0.6460923272
C   C263      1.0  0.88600  0.97260  0.80500  1.0000 0.6460923272
C   C264      1.0  0.38600  0.52740  0.19500  1.0000 0.6460923272
O   O1        1.0  0.28900  0.35210  0.70040  1.0000 -0.6566358861
O   O2        1.0  0.78900  0.14790  0.29960  1.0000 -0.6566358861
O   O3        1.0  0.21100  0.85210  0.79960  1.0000 -0.6566358861
O   O4        1.0  0.71100  0.64790  0.20040  1.0000 -0.6566358861
O   O5        1.0  0.71100  0.64790  0.29960  1.0000 -0.6566358861
O   O6        1.0  0.21100  0.85210  0.70040  1.0000 -0.6566358861
O   O7        1.0  0.78900  0.14790  0.20040  1.0000 -0.6566358861
O   O8        1.0  0.28900  0.35210  0.79960  1.0000 -0.6566358861
O   O9        1.0  0.23760  0.19200  0.29580  1.0000 -0.6312845033
O   O10       1.0  0.73760  0.30800  0.70420  1.0000 -0.6312845033
O   O11       1.0  0.26240  0.69200  0.20420  1.0000 -0.6312845033
O   O12       1.0  0.76240  0.80800  0.79580  1.0000 -0.6312845033
O   O13       1.0  0.76240  0.80800  0.70420  1.0000 -0.6312845033
O   O14       1.0  0.26240  0.69200  0.29580  1.0000 -0.6312845033
O   O15       1.0  0.73760  0.30800  0.79580  1.0000 -0.6312845033
O   O16       1.0  0.23760  0.19200  0.20420  1.0000 -0.6312845033
O   O17       1.0  0.95600  0.23530  0.29530  1.0000 -0.5873549265
O   O18       1.0  0.45600  0.26470  0.70470  1.0000 -0.5873549265
O   O19       1.0  0.54400  0.73530  0.20470  1.0000 -0.5873549265
O   O20       1.0  0.04400  0.76470  0.79530  1.0000 -0.5873549265
O   O21       1.0  0.04400  0.76470  0.70470  1.0000 -0.5873549265
O   O22       1.0  0.54400  0.73530  0.29530  1.0000 -0.5873549265
O   O23       1.0  0.45600  0.26470  0.79530  1.0000 -0.5873549265
O   O24       1.0  0.95600  0.23530  0.20470  1.0000 -0.5873549265
O   O25       1.0  0.06700  0.40550  0.70960  1.0000 -0.6702395958
O   O26       1.0  0.56700  0.09450  0.29040  1.0000 -0.6702395958
O   O27       1.0  0.43300  0.90550  0.79040  1.0000 -0.6702395958
O   O28       1.0  0.93300  0.59450  0.20960  1.0000 -0.6702395958
O   O29       1.0  0.93300  0.59450  0.29040  1.0000 -0.6702395958
O   O30       1.0  0.43300  0.90550  0.70960  1.0000 -0.6702395958
O   O31       1.0  0.56700  0.09450  0.20960  1.0000 -0.6702395958
O   O32       1.0  0.06700  0.40550  0.79040  1.0000 -0.6702395958
O   O33       1.0  0.16600  0.51810  0.29330  1.0000 -0.7745451909
O   O34       1.0  0.66600  0.98190  0.70670  1.0000 -0.7745451909
O   O35       1.0  0.33400  0.01810  0.20670  1.0000 -0.7745451909
O   O36       1.0  0.83400  0.48190  0.79330  1.0000 -0.7745451909
O   O37       1.0  0.83400  0.48190  0.70670  1.0000 -0.7745451909
O   O38       1.0  0.33400  0.01810  0.29330  1.0000 -0.7745451909
O   O39       1.0  0.66600  0.98190  0.79330  1.0000 -0.7745451909
O   O40       1.0  0.16600  0.51810  0.20670  1.0000 -0.7745451909
O   O41       1.0  0.54900  0.54500  0.29130  1.0000 -0.5842170399
O   O42       1.0  0.04900  0.95500  0.70870  1.0000 -0.5842170399
O   O43       1.0  0.95100  0.04500  0.20870  1.0000 -0.5842170399
O   O44       1.0  0.45100  0.45500  0.79130  1.0000 -0.5842170399
O   O45       1.0  0.45100  0.45500  0.70870  1.0000 -0.5842170399
O   O46       1.0  0.95100  0.04500  0.29130  1.0000 -0.5842170399
O   O47       1.0  0.04900  0.95500  0.79130  1.0000 -0.5842170399
O   O48       1.0  0.54900  0.54500  0.20870  1.0000 -0.5842170399
