# DDEC6 charges by PACMAN v1.1 (https://github.com/mtap-research/PACMAN-charge/)
data_2015[Co][pcu]3[ASR]2
_chemical_formula_sum              "Co4 H56 C104 N8 O18 F24"
_cell_length_a       16.2799
_cell_length_b       7.2214
_cell_length_c       24.2716
_cell_angle_alpha    90
_cell_angle_beta     116.419
_cell_angle_gamma    90

_symmetry_space_group_name_H-M    "P 1"
_symmetry_Int_Tables_number       1

loop_
  _symmetry_equiv_pos_as_xyz
  'x, y, z'

loop_
  _atom_site_type_symbol
  _atom_site_label
  _atom_site_symmetry_multiplicity
  _atom_site_fract_x
  _atom_site_fract_y
  _atom_site_fract_z
  _atom_site_occupancy
  _atom_site_charge
Co  Co1       1.0  0.55854  0.83728  0.01532  1.0000 0.8942492204
Co  Co2       1.0  0.44146  0.83728  0.48468  1.0000 0.8942492204
Co  Co3       1.0  0.44146  0.16272  0.98468  1.0000 0.8942492204
Co  Co4       1.0  0.55854  0.16272  0.51532  1.0000 0.8942492204
H   H1        1.0  0.85370  0.87730  0.14170  1.0000 0.1308587949
H   H2        1.0  0.14630  0.87730  0.35830  1.0000 0.1308587949
H   H3        1.0  0.14630  0.12270  0.85830  1.0000 0.1308587949
H   H4        1.0  0.85370  0.12270  0.64170  1.0000 0.1308587949
H   H5        1.0  0.76430  0.10630  0.07410  1.0000 0.1308587949
H   H6        1.0  0.23570  0.10630  0.42590  1.0000 0.1308587949
H   H7        1.0  0.23570  0.89370  0.92590  1.0000 0.1308587949
H   H8        1.0  0.76430  0.89370  0.57410  1.0000 0.1308587949
H   H9        1.0  0.91790  0.50560  0.18990  1.0000 0.1401494565
H   H10       1.0  0.08210  0.50560  0.31010  1.0000 0.1401494565
H   H11       1.0  0.08210  0.49440  0.81010  1.0000 0.1401494565
H   H12       1.0  0.91790  0.49440  0.68990  1.0000 0.1401494565
H   H13       1.0  0.66040  0.47660  0.08950  1.0000 0.1218043985
H   H14       1.0  0.33960  0.47660  0.41050  1.0000 0.1218043985
H   H15       1.0  0.33960  0.52340  0.91050  1.0000 0.1218043985
H   H16       1.0  0.66040  0.52340  0.58950  1.0000 0.1218043985
H   H17       1.0  0.74630  0.80070  0.99670  1.0000 0.1308587949
H   H18       1.0  0.25370  0.80070  0.50330  1.0000 0.1308587949
H   H19       1.0  0.25370  0.19930  0.00330  1.0000 0.1308587949
H   H20       1.0  0.74630  0.19930  0.49670  1.0000 0.1308587949
H   H21       1.0  0.86620  0.57050  0.04850  1.0000 0.1308587949
H   H22       1.0  0.13380  0.57050  0.45150  1.0000 0.1308587949
H   H23       1.0  0.13380  0.42950  0.95150  1.0000 0.1308587949
H   H24       1.0  0.86620  0.42950  0.54850  1.0000 0.1308587949
H   H25       1.0  0.42560  0.46930  0.10130  1.0000 0.1218043985
H   H26       1.0  0.57440  0.46930  0.39870  1.0000 0.1218043985
H   H27       1.0  0.57440  0.53070  0.89870  1.0000 0.1218043985
H   H28       1.0  0.42560  0.53070  0.60130  1.0000 0.1218043985
H   H29       1.0  0.33640  0.34540  0.14410  1.0000 0.1218043985
H   H30       1.0  0.66360  0.34540  0.35590  1.0000 0.1218043985
H   H31       1.0  0.66360  0.65460  0.85590  1.0000 0.1218043985
H   H32       1.0  0.33640  0.65460  0.64410  1.0000 0.1218043985
H   H33       1.0  0.17020  0.78520  0.08760  1.0000 0.1136604222
H   H34       1.0  0.82980  0.78520  0.41240  1.0000 0.1136604222
H   H35       1.0  0.82980  0.21480  0.91240  1.0000 0.1136604222
H   H36       1.0  0.17020  0.21480  0.58760  1.0000 0.1136604222
H   H37       1.0  0.26100  0.91240  0.04720  1.0000 0.1218043985
H   H38       1.0  0.73900  0.91240  0.45280  1.0000 0.1218043985
H   H39       1.0  0.73900  0.08760  0.95280  1.0000 0.1218043985
H   H40       1.0  0.26100  0.08760  0.54720  1.0000 0.1218043985
H   H41       1.0  0.26930  0.99230  0.29200  1.0000 0.1218043985
H   H42       1.0  0.73070  0.99230  0.20800  1.0000 0.1218043985
H   H43       1.0  0.73070  0.00770  0.70800  1.0000 0.1218043985
H   H44       1.0  0.26930  0.00770  0.79200  1.0000 0.1218043985
H   H45       1.0  0.17830  0.11770  0.19680  1.0000 0.1136604222
H   H46       1.0  0.82170  0.11770  0.30320  1.0000 0.1136604222
H   H47       1.0  0.82170  0.88230  0.80320  1.0000 0.1136604222
H   H48       1.0  0.17830  0.88230  0.69680  1.0000 0.1136604222
H   H49       1.0  0.33130  0.57850  0.24470  1.0000 0.1218043985
H   H50       1.0  0.66870  0.57850  0.25530  1.0000 0.1218043985
H   H51       1.0  0.66870  0.42150  0.75530  1.0000 0.1218043985
H   H52       1.0  0.33130  0.42150  0.74470  1.0000 0.1218043985
H   H53       1.0  0.41920  0.45590  0.34070  1.0000 0.1218043985
H   H54       1.0  0.58080  0.45590  0.15930  1.0000 0.1218043985
H   H55       1.0  0.58080  0.54410  0.65930  1.0000 0.1218043985
H   H56       1.0  0.41920  0.54410  0.84070  1.0000 0.1218043985
C   C1        1.0  0.96007  0.24500  0.22037  1.0000 -0.0172822424
C   C2        1.0  0.03993  0.24500  0.27963  1.0000 -0.0172822424
C   C3        1.0  0.03993  0.75500  0.77963  1.0000 -0.0172822424
C   C4        1.0  0.96007  0.75500  0.72037  1.0000 -0.0172822424
C   C5        1.0  0.93936  0.05920  0.20482  1.0000 0.1823036345
C   C6        1.0  0.06064  0.05920  0.29518  1.0000 0.1823036345
C   C7        1.0  0.06064  0.94080  0.79518  1.0000 0.1823036345
C   C8        1.0  0.93936  0.94080  0.70482  1.0000 0.1823036345
C   C9        1.0  0.86657  0.00220  0.15084  1.0000 -0.1831973073
C   C10       1.0  0.13343  0.00220  0.34916  1.0000 -0.1831973073
C   C11       1.0  0.13343  0.99780  0.84916  1.0000 -0.1831973073
C   C12       1.0  0.86657  0.99780  0.65084  1.0000 -0.1831973073
C   C13       1.0  0.81373  0.13880  0.11104  1.0000 -0.1670437408
C   C14       1.0  0.18627  0.13880  0.38896  1.0000 -0.1670437408
C   C15       1.0  0.18627  0.86120  0.88896  1.0000 -0.1670437408
C   C16       1.0  0.81373  0.86120  0.61104  1.0000 -0.1670437408
C   C17       1.0  0.83396  0.32500  0.12595  1.0000 0.1401494565
C   C18       1.0  0.16604  0.32500  0.37405  1.0000 0.1401494565
C   C19       1.0  0.16604  0.67500  0.87405  1.0000 0.1401494565
C   C20       1.0  0.83396  0.67500  0.62595  1.0000 0.1401494565
C   C21       1.0  0.90604  0.38070  0.18039  1.0000 -0.1986049019
C   C22       1.0  0.09396  0.38070  0.31961  1.0000 -0.1986049019
C   C23       1.0  0.09396  0.61930  0.81961  1.0000 -0.1986049019
C   C24       1.0  0.90604  0.61930  0.68039  1.0000 -0.1986049019
C   C25       1.0  0.69666  0.52980  0.07303  1.0000 0.1218043985
C   C26       1.0  0.30334  0.52980  0.42697  1.0000 0.1218043985
C   C27       1.0  0.30334  0.47020  0.92697  1.0000 0.1218043985
C   C28       1.0  0.69666  0.47020  0.57303  1.0000 0.1218043985
C   C29       1.0  0.74412  0.70660  0.02216  1.0000 -0.0275390893
C   C30       1.0  0.25588  0.70660  0.47784  1.0000 -0.0275390893
C   C31       1.0  0.25588  0.29340  0.97784  1.0000 -0.0275390893
C   C32       1.0  0.74412  0.29340  0.52216  1.0000 -0.0275390893
C   C33       1.0  0.81069  0.57990  0.05065  1.0000 -0.0972440146
C   C34       1.0  0.18931  0.57990  0.44935  1.0000 -0.0972440146
C   C35       1.0  0.18931  0.42010  0.94935  1.0000 -0.0972440146
C   C36       1.0  0.81069  0.42010  0.55065  1.0000 -0.0972440146
C   C37       1.0  0.41235  0.79150  0.04402  1.0000 0.5690052556
C   C38       1.0  0.58765  0.79150  0.45598  1.0000 0.5690052556
C   C39       1.0  0.58765  0.20850  0.95598  1.0000 0.5690052556
C   C40       1.0  0.41235  0.20850  0.54402  1.0000 0.5690052556
C   C41       1.0  0.35365  0.70560  0.07062  1.0000 -0.0172822424
C   C42       1.0  0.64635  0.70560  0.42938  1.0000 -0.0172822424
C   C43       1.0  0.64635  0.29440  0.92938  1.0000 -0.0172822424
C   C44       1.0  0.35365  0.29440  0.57062  1.0000 -0.0172822424
C   C45       1.0  0.37494  0.53450  0.09918  1.0000 -0.0882345735
C   C46       1.0  0.62506  0.53450  0.40082  1.0000 -0.0882345735
C   C47       1.0  0.62506  0.46550  0.90082  1.0000 -0.0882345735
C   C48       1.0  0.37494  0.46550  0.59918  1.0000 -0.0882345735
C   C49       1.0  0.32101  0.46000  0.12460  1.0000 -0.1377949071
C   C50       1.0  0.67899  0.46000  0.37540  1.0000 -0.1377949071
C   C51       1.0  0.67899  0.54000  0.87540  1.0000 -0.1377949071
C   C52       1.0  0.32101  0.54000  0.62460  1.0000 -0.1377949071
C   C53       1.0  0.24477  0.55290  0.12149  1.0000 0.0738102133
C   C54       1.0  0.75523  0.55290  0.37851  1.0000 0.0738102133
C   C55       1.0  0.75523  0.44710  0.87851  1.0000 0.0738102133
C   C56       1.0  0.24477  0.44710  0.62149  1.0000 0.0738102133
C   C57       1.0  0.22225  0.72230  0.09131  1.0000 -0.158688019
C   C58       1.0  0.77775  0.72230  0.40869  1.0000 -0.158688019
C   C59       1.0  0.77775  0.27770  0.90869  1.0000 -0.158688019
C   C60       1.0  0.22225  0.27770  0.59131  1.0000 -0.158688019
C   C61       1.0  0.27643  0.79790  0.06672  1.0000 -0.0972440146
C   C62       1.0  0.72357  0.79790  0.43328  1.0000 -0.0972440146
C   C63       1.0  0.72357  0.20210  0.93328  1.0000 -0.0972440146
C   C64       1.0  0.27643  0.20210  0.56672  1.0000 -0.0972440146
C   C65       1.0  0.18492  0.45920  0.14842  1.0000 -0.2745969696
C   C66       1.0  0.81508  0.45920  0.35158  1.0000 -0.2745969696
C   C67       1.0  0.81508  0.54080  0.85158  1.0000 -0.2745969696
C   C68       1.0  0.18492  0.54080  0.64842  1.0000 -0.2745969696
C   C69       1.0  0.24501  0.36190  0.21016  1.0000 0.0799801509
C   C70       1.0  0.75499  0.36190  0.28984  1.0000 0.0799801509
C   C71       1.0  0.75499  0.63810  0.78984  1.0000 0.0799801509
C   C72       1.0  0.24501  0.63810  0.71016  1.0000 0.0799801509
C   C73       1.0  0.40935  0.13220  0.39024  1.0000 0.5690052556
C   C74       1.0  0.59065  0.13220  0.10976  1.0000 0.5690052556
C   C75       1.0  0.59065  0.86780  0.60976  1.0000 0.5690052556
C   C76       1.0  0.40935  0.86780  0.89024  1.0000 0.5690052556
C   C77       1.0  0.35366  0.21090  0.32677  1.0000 -0.0275390893
C   C78       1.0  0.64634  0.21090  0.17323  1.0000 -0.0275390893
C   C79       1.0  0.64634  0.78910  0.67323  1.0000 -0.0275390893
C   C80       1.0  0.35366  0.78910  0.82677  1.0000 -0.0275390893
C   C81       1.0  0.28145  0.11120  0.28277  1.0000 -0.0882345735
C   C82       1.0  0.71855  0.11120  0.21723  1.0000 -0.0882345735
C   C83       1.0  0.71855  0.88880  0.71723  1.0000 -0.0882345735
C   C84       1.0  0.28145  0.88880  0.78277  1.0000 -0.0882345735
C   C85       1.0  0.22714  0.18580  0.22540  1.0000 -0.1509422464
C   C86       1.0  0.77286  0.18580  0.27460  1.0000 -0.1509422464
C   C87       1.0  0.77286  0.81420  0.77460  1.0000 -0.1509422464
C   C88       1.0  0.22714  0.81420  0.72540  1.0000 -0.1509422464
C   C89       1.0  0.31805  0.46080  0.25419  1.0000 -0.1377949071
C   C90       1.0  0.68195  0.46080  0.24581  1.0000 -0.1377949071
C   C91       1.0  0.68195  0.53920  0.74581  1.0000 -0.1377949071
C   C92       1.0  0.31805  0.53920  0.75419  1.0000 -0.1377949071
C   C93       1.0  0.37118  0.38690  0.31173  1.0000 -0.0972440146
C   C94       1.0  0.62882  0.38690  0.18827  1.0000 -0.0972440146
C   C95       1.0  0.62882  0.61310  0.68827  1.0000 -0.0972440146
C   C96       1.0  0.37118  0.61310  0.81173  1.0000 -0.0972440146
C   C97       1.0  0.12059  0.32440  0.09885  1.0000 0.6623103964
C   C98       1.0  0.87941  0.32440  0.40115  1.0000 0.6623103964
C   C99       1.0  0.87941  0.67560  0.90115  1.0000 0.6623103964
C   C100      1.0  0.12059  0.67560  0.59885  1.0000 0.6623103964
C   C101      1.0  0.12503  0.60160  0.16210  1.0000 0.6623103964
C   C102      1.0  0.87497  0.60160  0.33790  1.0000 0.6623103964
C   C103      1.0  0.87497  0.39840  0.83790  1.0000 0.6623103964
C   C104      1.0  0.12503  0.39840  0.66210  1.0000 0.6623103964
N   N1        1.0  0.67266  0.67540  0.03660  1.0000 -0.2857273025
N   N2        1.0  0.32734  0.67540  0.46340  1.0000 -0.2857273025
N   N3        1.0  0.32734  0.32460  0.96340  1.0000 -0.2857273025
N   N4        1.0  0.67266  0.32460  0.53660  1.0000 -0.2857273025
N   N5        1.0  0.78029  0.46760  0.08343  1.0000 0.005501749
N   N6        1.0  0.21971  0.46760  0.41657  1.0000 0.005501749
N   N7        1.0  0.21971  0.53240  0.91657  1.0000 0.005501749
N   N8        1.0  0.78029  0.53240  0.58343  1.0000 0.005501749
O   O1        1.0  0.48120  0.70150  0.04829  1.0000 -0.5244674785
O   O2        1.0  0.51880  0.70150  0.45171  1.0000 -0.5244674785
O   O3        1.0  0.51880  0.29850  0.95171  1.0000 -0.5244674785
O   O4        1.0  0.48120  0.29850  0.54829  1.0000 -0.5244674785
O   O5        1.0  0.47514  0.22860  0.42695  1.0000 -0.5428086844
O   O6        1.0  0.52486  0.22860  0.07305  1.0000 -0.5428086844
O   O7        1.0  0.52486  0.77140  0.57305  1.0000 -0.5428086844
O   O8        1.0  0.47514  0.77140  0.92695  1.0000 -0.5428086844
O   O9        1.0  0.38523  0.97840  0.40224  1.0000 -0.5428086844
O   O10       1.0  0.61477  0.97840  0.09776  1.0000 -0.5428086844
O   O11       1.0  0.61477  0.02160  0.59776  1.0000 -0.5428086844
O   O12       1.0  0.38523  0.02160  0.90224  1.0000 -0.5428086844
O   O13       1.0  0.38858  0.94770  0.01893  1.0000 -0.581466983
O   O14       1.0  0.61142  0.94770  0.48107  1.0000 -0.581466983
O   O15       1.0  0.61142  0.05230  0.98107  1.0000 -0.581466983
O   O16       1.0  0.38858  0.05230  0.51893  1.0000 -0.581466983
O   O17       1.0  0.00000  0.94270  0.25000  1.0000 -0.2110295397
O   O18       1.0  0.00000  0.05730  0.75000  1.0000 -0.2110295397
F   F1        1.0  0.05517  0.66820  0.11154  1.0000 -0.1986049019
F   F2        1.0  0.94483  0.66820  0.38846  1.0000 -0.1986049019
F   F3        1.0  0.94483  0.33180  0.88846  1.0000 -0.1986049019
F   F4        1.0  0.05517  0.33180  0.61154  1.0000 -0.1986049019
F   F5        1.0  0.08810  0.52690  0.19625  1.0000 -0.1893639592
F   F6        1.0  0.91190  0.52690  0.30375  1.0000 -0.1893639592
F   F7        1.0  0.91190  0.47310  0.80375  1.0000 -0.1893639592
F   F8        1.0  0.08810  0.47310  0.69625  1.0000 -0.1893639592
F   F9        1.0  0.17357  0.74620  0.19346  1.0000 -0.1893639592
F   F10       1.0  0.82643  0.74620  0.30654  1.0000 -0.1893639592
F   F11       1.0  0.82643  0.25380  0.80654  1.0000 -0.1893639592
F   F12       1.0  0.17357  0.25380  0.69346  1.0000 -0.1893639592
F   F13       1.0  0.05434  0.25490  0.11116  1.0000 -0.1986049019
F   F14       1.0  0.94566  0.25490  0.38884  1.0000 -0.1986049019
F   F15       1.0  0.94566  0.74510  0.88884  1.0000 -0.1986049019
F   F16       1.0  0.05434  0.74510  0.61116  1.0000 -0.1986049019
F   F17       1.0  0.07849  0.40460  0.04361  1.0000 -0.1893639592
F   F18       1.0  0.92151  0.40460  0.45639  1.0000 -0.1893639592
F   F19       1.0  0.92151  0.59540  0.95639  1.0000 -0.1893639592
F   F20       1.0  0.07849  0.59540  0.54361  1.0000 -0.1893639592
F   F21       1.0  0.16686  0.18019  0.09219  1.0000 -0.1893639592
F   F22       1.0  0.83314  0.18019  0.40781  1.0000 -0.1893639592
F   F23       1.0  0.83314  0.81981  0.90781  1.0000 -0.1893639592
F   F24       1.0  0.16686  0.81981  0.59219  1.0000 -0.1893639592
