# DDEC6 charges by PACMAN v1.1 (https://github.com/mtap-research/PACMAN-charge/)
data_2015[Zn][nts]3[ASR]1
_chemical_formula_sum              "Zn24 H240 C432 N72 O112"
_cell_length_a       38.564
_cell_length_b       38.564
_cell_length_c       38.564
_cell_angle_alpha    120.678
_cell_angle_beta     120.678
_cell_angle_gamma    88.8299

_symmetry_space_group_name_H-M    "P 1"
_symmetry_Int_Tables_number       1

loop_
  _symmetry_equiv_pos_as_xyz
  'x, y, z'

loop_
  _atom_site_type_symbol
  _atom_site_label
  _atom_site_symmetry_multiplicity
  _atom_site_fract_x
  _atom_site_fract_y
  _atom_site_fract_z
  _atom_site_occupancy
  _atom_site_charge
Zn  Zn1       1.0  0.70299  0.55223  0.25522  1.0000 0.8860964923
Zn  Zn2       1.0  0.55223  0.29701  0.84924  1.0000 0.8860964923
Zn  Zn3       1.0  0.29701  0.44777  0.74478  1.0000 0.8860964923
Zn  Zn4       1.0  0.44777  0.70299  0.15076  1.0000 0.8860964923
Zn  Zn5       1.0  0.73044  0.52792  0.05410  1.0000 0.9169454673
Zn  Zn6       1.0  0.52792  0.47382  0.79748  1.0000 0.9169454673
Zn  Zn7       1.0  0.47382  0.67634  0.94590  1.0000 0.9169454673
Zn  Zn8       1.0  0.67634  0.73044  0.20252  1.0000 0.9169454673
Zn  Zn9       1.0  0.26956  0.47208  0.94590  1.0000 0.9169454673
Zn  Zn10      1.0  0.47208  0.52618  0.20252  1.0000 0.9169454673
Zn  Zn11      1.0  0.52618  0.32366  0.05410  1.0000 0.9169454673
Zn  Zn12      1.0  0.32366  0.26956  0.79748  1.0000 0.9169454673
Zn  Zn13      1.0  0.77028  0.56930  0.33958  1.0000 0.8840531557
Zn  Zn14      1.0  0.56930  0.22972  0.79902  1.0000 0.8840531557
Zn  Zn15      1.0  0.22972  0.43070  0.66042  1.0000 0.8840531557
Zn  Zn16      1.0  0.43070  0.77028  0.20098  1.0000 0.8840531557
Zn  Zn17      1.0  0.80669  0.53732  0.07165  1.0000 0.9137802847
Zn  Zn18      1.0  0.53732  0.46567  0.73063  1.0000 0.9137802847
Zn  Zn19      1.0  0.46567  0.73504  0.92835  1.0000 0.9169454673
Zn  Zn20      1.0  0.73504  0.80669  0.26937  1.0000 0.9137802847
Zn  Zn21      1.0  0.19331  0.46268  0.92835  1.0000 0.9137802847
Zn  Zn22      1.0  0.46268  0.53433  0.26937  1.0000 0.9137802847
Zn  Zn23      1.0  0.53433  0.26496  0.07165  1.0000 0.9137802847
Zn  Zn24      1.0  0.26496  0.19331  0.73063  1.0000 0.9137802847
H   H1        1.0  0.29030  0.41530  0.58800  1.0000 0.1415997143
H   H2        1.0  0.41530  0.82730  0.12500  1.0000 0.1415997143
H   H3        1.0  0.82730  0.70230  0.41200  1.0000 0.1415997143
H   H4        1.0  0.70230  0.29030  0.87500  1.0000 0.1415997143
H   H5        1.0  0.70970  0.58470  0.41200  1.0000 0.1415997143
H   H6        1.0  0.58470  0.17270  0.87500  1.0000 0.1415997143
H   H7        1.0  0.17270  0.29770  0.58800  1.0000 0.1415997143
H   H8        1.0  0.29770  0.70970  0.12500  1.0000 0.1415997143
H   H9        1.0  0.40570  0.42850  0.61420  1.0000 0.1503878941
H   H10       1.0  0.42850  0.81430  0.02280  1.0000 0.1503878941
H   H11       1.0  0.81430  0.79150  0.38580  1.0000 0.1503878941
H   H12       1.0  0.79150  0.40570  0.97720  1.0000 0.1503878941
H   H13       1.0  0.59430  0.57150  0.38580  1.0000 0.1503878941
H   H14       1.0  0.57150  0.18570  0.97720  1.0000 0.1503878941
H   H15       1.0  0.18570  0.20850  0.61420  1.0000 0.1503878941
H   H16       1.0  0.20850  0.59430  0.02280  1.0000 0.1503878941
H   H17       1.0  0.23980  0.46720  0.48740  1.0000 0.12092692
H   H18       1.0  0.46720  0.97980  0.22740  1.0000 0.12092692
H   H19       1.0  0.97980  0.75240  0.51260  1.0000 0.12092692
H   H20       1.0  0.75240  0.23980  0.77260  1.0000 0.12092692
H   H21       1.0  0.76020  0.53280  0.51260  1.0000 0.12092692
H   H22       1.0  0.53280  0.02020  0.77260  1.0000 0.12092692
H   H23       1.0  0.02020  0.24760  0.48740  1.0000 0.12092692
H   H24       1.0  0.24760  0.76020  0.22740  1.0000 0.12092692
H   H25       1.0  0.28400  0.40350  0.40790  1.0000 0.1301879468
H   H26       1.0  0.40350  0.99560  0.11950  1.0000 0.1301879468
H   H27       1.0  0.99560  0.87610  0.59210  1.0000 0.1301879468
H   H28       1.0  0.87610  0.28400  0.88050  1.0000 0.1301879468
H   H29       1.0  0.71600  0.59650  0.59210  1.0000 0.1301879468
H   H30       1.0  0.59650  0.00440  0.88050  1.0000 0.1301879468
H   H31       1.0  0.00440  0.12390  0.40790  1.0000 0.1301879468
H   H32       1.0  0.12390  0.71600  0.11950  1.0000 0.1301879468
H   H33       1.0  0.18910  0.46950  0.42240  1.0000 0.1301879468
H   H34       1.0  0.46950  0.04710  0.28040  1.0000 0.1301879468
H   H35       1.0  0.04710  0.76670  0.57760  1.0000 0.1301879468
H   H36       1.0  0.76670  0.18910  0.71960  1.0000 0.1301879468
H   H37       1.0  0.81090  0.53050  0.57760  1.0000 0.1301879468
H   H38       1.0  0.53050  0.95290  0.71960  1.0000 0.1301879468
H   H39       1.0  0.95290  0.23330  0.42240  1.0000 0.1301879468
H   H40       1.0  0.23330  0.81090  0.28040  1.0000 0.1301879468
H   H41       1.0  0.23690  0.41580  0.34990  1.0000 0.1301879468
H   H42       1.0  0.41580  0.06590  0.17890  1.0000 0.1301879468
H   H43       1.0  0.06590  0.88700  0.65010  1.0000 0.1301879468
H   H44       1.0  0.88700  0.23690  0.82110  1.0000 0.1301879468
H   H45       1.0  0.76310  0.58420  0.65010  1.0000 0.1301879468
H   H46       1.0  0.58420  0.93410  0.82110  1.0000 0.1301879468
H   H47       1.0  0.93410  0.11300  0.34990  1.0000 0.1301879468
H   H48       1.0  0.11300  0.76310  0.17890  1.0000 0.1301879468
H   H49       1.0  0.21810  0.45090  0.31960  1.0000 0.12092692
H   H50       1.0  0.45090  0.13130  0.23280  1.0000 0.12092692
H   H51       1.0  0.13130  0.89850  0.68040  1.0000 0.12092692
H   H52       1.0  0.89850  0.21810  0.76720  1.0000 0.12092692
H   H53       1.0  0.78190  0.54910  0.68040  1.0000 0.12092692
H   H54       1.0  0.54910  0.86870  0.76720  1.0000 0.12092692
H   H55       1.0  0.86870  0.10150  0.31960  1.0000 0.12092692
H   H56       1.0  0.10150  0.78190  0.23280  1.0000 0.12092692
H   H57       1.0  0.14120  0.46880  0.36480  1.0000 0.12092692
H   H58       1.0  0.46880  0.10400  0.32760  1.0000 0.12092692
H   H59       1.0  0.10400  0.77640  0.63520  1.0000 0.12092692
H   H60       1.0  0.77640  0.14120  0.67240  1.0000 0.12092692
H   H61       1.0  0.85880  0.53120  0.63520  1.0000 0.12092692
H   H62       1.0  0.53120  0.89600  0.67240  1.0000 0.12092692
H   H63       1.0  0.89600  0.22360  0.36480  1.0000 0.12092692
H   H64       1.0  0.22360  0.85880  0.32760  1.0000 0.12092692
H   H65       1.0  0.86540  0.53150  0.05890  1.0000 0.4365876912
H   H66       1.0  0.53150  0.47260  0.66610  1.0000 0.4365876912
H   H67       1.0  0.47260  0.80650  0.94110  1.0000 0.4365876912
H   H68       1.0  0.80650  0.86540  0.33390  1.0000 0.4365876912
H   H69       1.0  0.13460  0.46850  0.94110  1.0000 0.4365876912
H   H70       1.0  0.46850  0.52740  0.33390  1.0000 0.4365876912
H   H71       1.0  0.52740  0.19350  0.05890  1.0000 0.4365876912
H   H72       1.0  0.19350  0.13460  0.66610  1.0000 0.4365876912
H   H73       1.0  0.67150  0.53820  0.06710  1.0000 0.430583395
H   H74       1.0  0.53820  0.47110  0.86670  1.0000 0.430583395
H   H75       1.0  0.47110  0.60440  0.93290  1.0000 0.430583395
H   H76       1.0  0.60440  0.67150  0.13330  1.0000 0.430583395
H   H77       1.0  0.32850  0.46180  0.93290  1.0000 0.430583395
H   H78       1.0  0.46180  0.52890  0.13330  1.0000 0.430583395
H   H79       1.0  0.52890  0.39560  0.06710  1.0000 0.430583395
H   H80       1.0  0.39560  0.32850  0.86670  1.0000 0.430583395
H   H81       1.0  0.76340  0.53930  0.18450  1.0000 0.1503878941
H   H82       1.0  0.53930  0.35480  0.77590  1.0000 0.1503878941
H   H83       1.0  0.35480  0.57890  0.81550  1.0000 0.1503878941
H   H84       1.0  0.57890  0.76340  0.22410  1.0000 0.1503878941
H   H85       1.0  0.23660  0.46070  0.81550  1.0000 0.1503878941
H   H86       1.0  0.46070  0.64520  0.22410  1.0000 0.1503878941
H   H87       1.0  0.64520  0.42110  0.18450  1.0000 0.1503878941
H   H88       1.0  0.42110  0.23660  0.77590  1.0000 0.1503878941
H   H89       1.0  0.85800  0.54020  0.29820  1.0000 0.1503878941
H   H90       1.0  0.54020  0.24200  0.68220  1.0000 0.1503878941
H   H91       1.0  0.24200  0.55980  0.70180  1.0000 0.1503878941
H   H92       1.0  0.55980  0.85800  0.31780  1.0000 0.1503878941
H   H93       1.0  0.14200  0.45980  0.70180  1.0000 0.1503878941
H   H94       1.0  0.45980  0.75800  0.31780  1.0000 0.1503878941
H   H95       1.0  0.75800  0.44020  0.29820  1.0000 0.1503878941
H   H96       1.0  0.44020  0.14200  0.68220  1.0000 0.1503878941
H   H97       1.0  0.99280  0.49510  0.23830  1.0000 0.12092692
H   H98       1.0  0.49510  0.25680  0.50230  1.0000 0.12092692
H   H99       1.0  0.25680  0.75450  0.76170  1.0000 0.12092692
H   H100      1.0  0.75450  0.99280  0.49770  1.0000 0.12092692
H   H101      1.0  0.00720  0.50490  0.76170  1.0000 0.12092692
H   H102      1.0  0.50490  0.74320  0.49770  1.0000 0.12092692
H   H103      1.0  0.74320  0.24550  0.23830  1.0000 0.12092692
H   H104      1.0  0.24550  0.00720  0.50230  1.0000 0.12092692
H   H105      1.0  0.87210  0.52800  0.19630  1.0000 0.1503878941
H   H106      1.0  0.52800  0.33170  0.65590  1.0000 0.1503878941
H   H107      1.0  0.33170  0.67580  0.80370  1.0000 0.1503878941
H   H108      1.0  0.67580  0.87210  0.34410  1.0000 0.1503878941
H   H109      1.0  0.12790  0.47200  0.80370  1.0000 0.1503878941
H   H110      1.0  0.47200  0.66830  0.34410  1.0000 0.1503878941
H   H111      1.0  0.66830  0.32420  0.19630  1.0000 0.1503878941
H   H112      1.0  0.32420  0.12790  0.65590  1.0000 0.1503878941
H   H113      1.0  0.11290  0.48040  0.25710  1.0000 0.12092692
H   H114      1.0  0.48040  0.22330  0.36750  1.0000 0.12092692
H   H115      1.0  0.22330  0.85580  0.74290  1.0000 0.12092692
H   H116      1.0  0.85580  0.11290  0.63250  1.0000 0.12092692
H   H117      1.0  0.88710  0.51960  0.74290  1.0000 0.12092692
H   H118      1.0  0.51960  0.77670  0.63250  1.0000 0.12092692
H   H119      1.0  0.77670  0.14420  0.25710  1.0000 0.12092692
H   H120      1.0  0.14420  0.88710  0.36750  1.0000 0.12092692
H   H121      1.0  0.25710  0.47930  0.24640  1.0000 0.12092692
H   H122      1.0  0.47930  0.23290  0.22220  1.0000 0.12092692
H   H123      1.0  0.23290  0.01070  0.75360  1.0000 0.12092692
H   H124      1.0  0.01070  0.25710  0.77780  1.0000 0.12092692
H   H125      1.0  0.74290  0.52070  0.75360  1.0000 0.12092692
H   H126      1.0  0.52070  0.76710  0.77780  1.0000 0.12092692
H   H127      1.0  0.76710  0.98930  0.24640  1.0000 0.12092692
H   H128      1.0  0.98930  0.74290  0.22220  1.0000 0.12092692
H   H129      1.0  0.93120  0.50820  0.23000  1.0000 0.1301879468
H   H130      1.0  0.50820  0.27820  0.57700  1.0000 0.1301879468
H   H131      1.0  0.27820  0.70120  0.77000  1.0000 0.1301879468
H   H132      1.0  0.70120  0.93120  0.42300  1.0000 0.1301879468
H   H133      1.0  0.06880  0.49180  0.77000  1.0000 0.1301879468
H   H134      1.0  0.49180  0.72180  0.42300  1.0000 0.1301879468
H   H135      1.0  0.72180  0.29880  0.23000  1.0000 0.1301879468
H   H136      1.0  0.29880  0.06880  0.57700  1.0000 0.1301879468
H   H137      1.0  0.10430  0.51300  0.37650  1.0000 0.12092692
H   H138      1.0  0.51300  0.13650  0.40870  1.0000 0.12092692
H   H139      1.0  0.13650  0.72780  0.62350  1.0000 0.12092692
H   H140      1.0  0.72780  0.10430  0.59130  1.0000 0.12092692
H   H141      1.0  0.89570  0.48700  0.62350  1.0000 0.12092692
H   H142      1.0  0.48700  0.86350  0.59130  1.0000 0.12092692
H   H143      1.0  0.86350  0.27220  0.37650  1.0000 0.12092692
H   H144      1.0  0.27220  0.89570  0.40870  1.0000 0.12092692
H   H145      1.0  0.12060  0.45280  0.19640  1.0000 0.1301879468
H   H146      1.0  0.45280  0.25640  0.33220  1.0000 0.1301879468
H   H147      1.0  0.25640  0.92420  0.80360  1.0000 0.1301879468
H   H148      1.0  0.92420  0.12060  0.66780  1.0000 0.1301879468
H   H149      1.0  0.87940  0.54720  0.80360  1.0000 0.1301879468
H   H150      1.0  0.54720  0.74360  0.66780  1.0000 0.1301879468
H   H151      1.0  0.74360  0.07580  0.19640  1.0000 0.1301879468
H   H152      1.0  0.07580  0.87940  0.33220  1.0000 0.1301879468
H   H153      1.0  0.24000  0.47640  0.29400  1.0000 0.1301879468
H   H154      1.0  0.47640  0.18240  0.23640  1.0000 0.1301879468
H   H155      1.0  0.18240  0.94600  0.70600  1.0000 0.1301879468
H   H156      1.0  0.94600  0.24000  0.76360  1.0000 0.1301879468
H   H157      1.0  0.76000  0.52360  0.70600  1.0000 0.1301879468
H   H158      1.0  0.52360  0.81760  0.76360  1.0000 0.1301879468
H   H159      1.0  0.81760  0.05400  0.29400  1.0000 0.1301879468
H   H160      1.0  0.05400  0.76000  0.23640  1.0000 0.1301879468
H   H161      1.0  0.13760  0.44710  0.14550  1.0000 0.1301879468
H   H162      1.0  0.44710  0.30160  0.30950  1.0000 0.1301879468
H   H163      1.0  0.30160  0.99210  0.85450  1.0000 0.1301879468
H   H164      1.0  0.99210  0.13760  0.69050  1.0000 0.1301879468
H   H165      1.0  0.86240  0.55290  0.85450  1.0000 0.1301879468
H   H166      1.0  0.55290  0.69840  0.69050  1.0000 0.1301879468
H   H167      1.0  0.69840  0.00790  0.14550  1.0000 0.1301879468
H   H168      1.0  0.00790  0.86240  0.30950  1.0000 0.1301879468
H   H169      1.0  0.04870  0.46850  0.23800  1.0000 0.12092692
H   H170      1.0  0.46850  0.23050  0.41980  1.0000 0.12092692
H   H171      1.0  0.23050  0.81070  0.76200  1.0000 0.12092692
H   H172      1.0  0.81070  0.04870  0.58020  1.0000 0.12092692
H   H173      1.0  0.95130  0.53150  0.76200  1.0000 0.12092692
H   H174      1.0  0.53150  0.76950  0.58020  1.0000 0.12092692
H   H175      1.0  0.76950  0.18930  0.23800  1.0000 0.12092692
H   H176      1.0  0.18930  0.95130  0.41980  1.0000 0.12092692
H   H177      1.0  0.04560  0.53230  0.37370  1.0000 0.12092692
H   H178      1.0  0.53230  0.15860  0.48670  1.0000 0.12092692
H   H179      1.0  0.15860  0.67190  0.62630  1.0000 0.12092692
H   H180      1.0  0.67190  0.04560  0.51330  1.0000 0.12092692
H   H181      1.0  0.95440  0.46770  0.62630  1.0000 0.12092692
H   H182      1.0  0.46770  0.84140  0.51330  1.0000 0.12092692
H   H183      1.0  0.84140  0.32810  0.37370  1.0000 0.12092692
H   H184      1.0  0.32810  0.95440  0.48670  1.0000 0.12092692
H   H185      1.0  0.39130  0.43750  0.71440  1.0000 0.1503878941
H   H186      1.0  0.43750  0.72310  0.04620  1.0000 0.1503878941
H   H187      1.0  0.72310  0.67690  0.28560  1.0000 0.1503878941
H   H188      1.0  0.67690  0.39130  0.95380  1.0000 0.1503878941
H   H189      1.0  0.60870  0.56250  0.28560  1.0000 0.1503878941
H   H190      1.0  0.56250  0.27690  0.95380  1.0000 0.1503878941
H   H191      1.0  0.27690  0.32310  0.71440  1.0000 0.1503878941
H   H192      1.0  0.32310  0.60870  0.04620  1.0000 0.1503878941
H   H193      1.0  0.27860  0.44190  0.53890  1.0000 0.1301879468
H   H194      1.0  0.44190  0.90300  0.16330  1.0000 0.1301879468
H   H195      1.0  0.90300  0.73970  0.46110  1.0000 0.1301879468
H   H196      1.0  0.73970  0.27860  0.83670  1.0000 0.1301879468
H   H197      1.0  0.72140  0.55810  0.46110  1.0000 0.1415997143
H   H198      1.0  0.55810  0.09700  0.83670  1.0000 0.1301879468
H   H199      1.0  0.09700  0.26030  0.53890  1.0000 0.1415997143
H   H200      1.0  0.26030  0.72140  0.16330  1.0000 0.1301879468
H   H201      1.0  0.27620  0.48060  0.19680  1.0000 0.1301879468
H   H202      1.0  0.48060  0.28380  0.20440  1.0000 0.1301879468
H   H203      1.0  0.28380  0.07940  0.80320  1.0000 0.1301879468
H   H204      1.0  0.07940  0.27620  0.79560  1.0000 0.1301879468
H   H205      1.0  0.72380  0.51940  0.80320  1.0000 0.1301879468
H   H206      1.0  0.51940  0.71620  0.79560  1.0000 0.1301879468
H   H207      1.0  0.71620  0.92060  0.19680  1.0000 0.1301879468
H   H208      1.0  0.92060  0.72380  0.20440  1.0000 0.1301879468
H   H209      1.0  0.32380  0.49060  0.18100  1.0000 0.1503878941
H   H210      1.0  0.49060  0.30960  0.16680  1.0000 0.1415997143
H   H211      1.0  0.30960  0.14280  0.81900  1.0000 0.1415997143
H   H212      1.0  0.14280  0.32380  0.83320  1.0000 0.1415997143
H   H213      1.0  0.67620  0.50940  0.81900  1.0000 0.1503878941
H   H214      1.0  0.50940  0.69040  0.83320  1.0000 0.1503878941
H   H215      1.0  0.69040  0.85720  0.18100  1.0000 0.1503878941
H   H216      1.0  0.85720  0.67620  0.16680  1.0000 0.1415997143
H   H217      1.0  0.22330  0.46320  0.05190  1.0000 0.1503878941
H   H218      1.0  0.46320  0.41130  0.23990  1.0000 0.1503878941
H   H219      1.0  0.41130  0.17140  0.94810  1.0000 0.1503878941
H   H220      1.0  0.17140  0.22330  0.76010  1.0000 0.1503878941
H   H221      1.0  0.77670  0.53680  0.94810  1.0000 0.1503878941
H   H222      1.0  0.53680  0.58870  0.76010  1.0000 0.1503878941
H   H223      1.0  0.58870  0.82860  0.05190  1.0000 0.1503878941
H   H224      1.0  0.82860  0.77670  0.23990  1.0000 0.1503878941
H   H225      1.0  0.34070  0.48670  0.08460  1.0000 0.1503878941
H   H226      1.0  0.48670  0.40210  0.14600  1.0000 0.1503878941
H   H227      1.0  0.40210  0.25610  0.91540  1.0000 0.1503878941
H   H228      1.0  0.25610  0.34070  0.85400  1.0000 0.1503878941
H   H229      1.0  0.65930  0.51330  0.91540  1.0000 0.1503878941
H   H230      1.0  0.51330  0.59790  0.85400  1.0000 0.1503878941
H   H231      1.0  0.59790  0.74390  0.08460  1.0000 0.1503878941
H   H232      1.0  0.74390  0.65930  0.14600  1.0000 0.1503878941
H   H233      1.0  0.24180  0.40380  0.43180  1.0000 0.1503878941
H   H234      1.0  0.40380  0.97200  0.16200  1.0000 0.1503878941
H   H235      1.0  0.97200  0.81000  0.56820  1.0000 0.1503878941
H   H236      1.0  0.81000  0.24180  0.83800  1.0000 0.1503878941
H   H237      1.0  0.75820  0.59620  0.56820  1.0000 0.1574232049
H   H238      1.0  0.59620  0.02800  0.83800  1.0000 0.1503878941
H   H239      1.0  0.02800  0.19000  0.43180  1.0000 0.1503878941
H   H240      1.0  0.19000  0.75820  0.16200  1.0000 0.1574232049
C   C1        1.0  0.31950  0.42113  0.60907  1.0000 -0.1706759123
C   C2        1.0  0.42113  0.81206  0.10163  1.0000 -0.1706759123
C   C3        1.0  0.81206  0.71043  0.39093  1.0000 -0.1706759123
C   C4        1.0  0.71043  0.31950  0.89837  1.0000 -0.1706759123
C   C5        1.0  0.68050  0.57887  0.39093  1.0000 -0.1706759123
C   C6        1.0  0.57887  0.18794  0.89837  1.0000 -0.1706759123
C   C7        1.0  0.18794  0.28957  0.60907  1.0000 -0.1706759123
C   C8        1.0  0.28957  0.68050  0.10163  1.0000 -0.1706759123
C   C9        1.0  0.38868  0.42893  0.62485  1.0000 -0.1508113743
C   C10       1.0  0.42893  0.80408  0.04025  1.0000 -0.1508113743
C   C11       1.0  0.80408  0.76383  0.37515  1.0000 -0.1508113743
C   C12       1.0  0.76383  0.38868  0.95975  1.0000 -0.1508113743
C   C13       1.0  0.61132  0.57107  0.37515  1.0000 -0.1508113743
C   C14       1.0  0.57107  0.19592  0.95975  1.0000 -0.1508113743
C   C15       1.0  0.19592  0.23617  0.62485  1.0000 -0.1508113743
C   C16       1.0  0.23617  0.61132  0.04025  1.0000 -0.1508113743
C   C17       1.0  0.26470  0.43026  0.45142  1.0000 -0.0471482976
C   C18       1.0  0.43026  0.97884  0.16556  1.0000 -0.0471482976
C   C19       1.0  0.97884  0.81328  0.54858  1.0000 -0.0471482976
C   C20       1.0  0.81328  0.26470  0.83444  1.0000 -0.0471482976
C   C21       1.0  0.73530  0.56974  0.54858  1.0000 -0.0471482976
C   C22       1.0  0.56974  0.02116  0.83444  1.0000 -0.0471482976
C   C23       1.0  0.02116  0.18672  0.45142  1.0000 -0.0471482976
C   C24       1.0  0.18672  0.73530  0.16556  1.0000 -0.0471482976
C   C25       1.0  0.23846  0.45428  0.45856  1.0000 -0.1508113743
C   C26       1.0  0.45428  0.99572  0.21582  1.0000 -0.1508113743
C   C27       1.0  0.99572  0.77990  0.54144  1.0000 -0.1508113743
C   C28       1.0  0.77990  0.23846  0.78418  1.0000 -0.1508113743
C   C29       1.0  0.76154  0.54572  0.54144  1.0000 -0.1508113743
C   C30       1.0  0.54572  0.00428  0.78418  1.0000 -0.1508113743
C   C31       1.0  0.00428  0.22010  0.45856  1.0000 -0.1508113743
C   C32       1.0  0.22010  0.76154  0.21582  1.0000 -0.1508113743
C   C33       1.0  0.26523  0.41756  0.41227  1.0000 -0.1210342197
C   C34       1.0  0.41756  0.00529  0.15233  1.0000 -0.1210342197
C   C35       1.0  0.00529  0.85296  0.58773  1.0000 -0.1210342197
C   C36       1.0  0.85296  0.26523  0.84767  1.0000 -0.1210342197
C   C37       1.0  0.73477  0.58244  0.58773  1.0000 -0.1210342197
C   C38       1.0  0.58244  0.99471  0.84767  1.0000 -0.1210342197
C   C39       1.0  0.99471  0.14704  0.41227  1.0000 -0.1210342197
C   C40       1.0  0.14704  0.73477  0.15233  1.0000 -0.1210342197
C   C41       1.0  0.21017  0.45812  0.42071  1.0000 -0.1706759123
C   C42       1.0  0.45812  0.03741  0.24795  1.0000 -0.1602159079
C   C43       1.0  0.03741  0.78946  0.57929  1.0000 -0.1602159079
C   C44       1.0  0.78946  0.21017  0.75205  1.0000 -0.1602159079
C   C45       1.0  0.78983  0.54188  0.57929  1.0000 -0.1602159079
C   C46       1.0  0.54188  0.96259  0.75205  1.0000 -0.1602159079
C   C47       1.0  0.96259  0.21054  0.42071  1.0000 -0.1602159079
C   C48       1.0  0.21054  0.78983  0.24795  1.0000 -0.1706759123
C   C49       1.0  0.23693  0.42581  0.37752  1.0000 -0.1602159079
C   C50       1.0  0.42581  0.04829  0.18888  1.0000 -0.1602159079
C   C51       1.0  0.04829  0.85941  0.62248  1.0000 -0.1602159079
C   C52       1.0  0.85941  0.23693  0.81112  1.0000 -0.1602159079
C   C53       1.0  0.76307  0.57419  0.62248  1.0000 -0.1602159079
C   C54       1.0  0.57419  0.95171  0.81112  1.0000 -0.1602159079
C   C55       1.0  0.95171  0.14059  0.37752  1.0000 -0.1602159079
C   C56       1.0  0.14059  0.76307  0.18888  1.0000 -0.1602159079
C   C57       1.0  0.21102  0.44680  0.38256  1.0000 0.0738238196
C   C58       1.0  0.44680  0.06424  0.23578  1.0000 0.0738238196
C   C59       1.0  0.06424  0.82846  0.61744  1.0000 0.0738238196
C   C60       1.0  0.82846  0.21102  0.76422  1.0000 0.0738238196
C   C61       1.0  0.78898  0.55320  0.61744  1.0000 0.0738238196
C   C62       1.0  0.55320  0.93576  0.76422  1.0000 0.0738238196
C   C63       1.0  0.93576  0.17154  0.38256  1.0000 0.0738238196
C   C64       1.0  0.17154  0.78898  0.23578  1.0000 0.0738238196
C   C65       1.0  0.18287  0.45591  0.34618  1.0000 0.1018994673
C   C66       1.0  0.45591  0.10973  0.27304  1.0000 0.1018994673
C   C67       1.0  0.10973  0.83669  0.65382  1.0000 0.1018994673
C   C68       1.0  0.83669  0.18287  0.72696  1.0000 0.1018994673
C   C69       1.0  0.81713  0.54409  0.65382  1.0000 0.1018994673
C   C70       1.0  0.54409  0.89027  0.72696  1.0000 0.1112330262
C   C71       1.0  0.89027  0.16331  0.34618  1.0000 0.1018994673
C   C72       1.0  0.16331  0.81713  0.27304  1.0000 0.1018994673
C   C73       1.0  0.19352  0.45646  0.31670  1.0000 -0.2076380279
C   C74       1.0  0.45646  0.13976  0.26294  1.0000 -0.2076380279
C   C75       1.0  0.13976  0.87682  0.68330  1.0000 -0.2076380279
C   C76       1.0  0.87682  0.19352  0.73706  1.0000 -0.2076380279
C   C77       1.0  0.80648  0.54354  0.68330  1.0000 -0.2076380279
C   C78       1.0  0.54354  0.86024  0.73706  1.0000 -0.2076380279
C   C79       1.0  0.86024  0.12318  0.31670  1.0000 -0.2076380279
C   C80       1.0  0.12318  0.80648  0.26294  1.0000 -0.2076380279
C   C81       1.0  0.14734  0.46748  0.34382  1.0000 -0.2041679324
C   C82       1.0  0.46748  0.12366  0.32014  1.0000 -0.2041679324
C   C83       1.0  0.12366  0.80352  0.65618  1.0000 -0.2076380279
C   C84       1.0  0.80352  0.14734  0.67986  1.0000 -0.2041679324
C   C85       1.0  0.85266  0.53252  0.65618  1.0000 -0.2041679324
C   C86       1.0  0.53252  0.87634  0.67986  1.0000 -0.2076380279
C   C87       1.0  0.87634  0.19648  0.34382  1.0000 -0.2041679324
C   C88       1.0  0.19648  0.85266  0.32014  1.0000 -0.2041679324
C   C89       1.0  0.79080  0.53830  0.20156  1.0000 -0.1108908934
C   C90       1.0  0.53830  0.33674  0.74750  1.0000 -0.1108908934
C   C91       1.0  0.33674  0.58924  0.79844  1.0000 -0.0984758259
C   C92       1.0  0.58924  0.79080  0.25250  1.0000 -0.0984758259
C   C93       1.0  0.20920  0.46170  0.79844  1.0000 -0.0984758259
C   C94       1.0  0.46170  0.66326  0.25250  1.0000 -0.0984758259
C   C95       1.0  0.66326  0.41076  0.20156  1.0000 -0.0984758259
C   C96       1.0  0.41076  0.20920  0.74750  1.0000 -0.0984758259
C   C97       1.0  0.79777  0.53329  0.13826  1.0000 0.5893309861
C   C98       1.0  0.53329  0.39503  0.73552  1.0000 0.5893309861
C   C99       1.0  0.39503  0.65951  0.86174  1.0000 0.5893309861
C   C100      1.0  0.65951  0.79777  0.26448  1.0000 0.5893309861
C   C101      1.0  0.20223  0.46671  0.86174  1.0000 0.5893309861
C   C102      1.0  0.46671  0.60497  0.26448  1.0000 0.5893309861
C   C103      1.0  0.60497  0.34049  0.13826  1.0000 0.5893309861
C   C104      1.0  0.34049  0.20223  0.73552  1.0000 0.5893309861
C   C105      1.0  0.80705  0.54125  0.24466  1.0000 -0.0079791491
C   C106      1.0  0.54125  0.29659  0.73420  1.0000 -0.0079791491
C   C107      1.0  0.29659  0.56239  0.75534  1.0000 -0.0079791491
C   C108      1.0  0.56239  0.80705  0.26580  1.0000 -0.0079791491
C   C109      1.0  0.19295  0.45875  0.75534  1.0000 -0.0079791491
C   C110      1.0  0.45875  0.70341  0.26580  1.0000 -0.0079791491
C   C111      1.0  0.70341  0.43761  0.24466  1.0000 -0.0079791491
C   C112      1.0  0.43761  0.19295  0.73420  1.0000 -0.0079791491
C   C113      1.0  0.78115  0.54864  0.26573  1.0000 0.5893309861
C   C114      1.0  0.54864  0.28291  0.76749  1.0000 0.5893309861
C   C115      1.0  0.28291  0.51542  0.73427  1.0000 0.5893309861
C   C116      1.0  0.51542  0.78115  0.23251  1.0000 0.5893309861
C   C117      1.0  0.21885  0.45136  0.73427  1.0000 0.5893309861
C   C118      1.0  0.45136  0.71709  0.23251  1.0000 0.5893309861
C   C119      1.0  0.71709  0.48458  0.26573  1.0000 0.5893309861
C   C120      1.0  0.48458  0.21885  0.76749  1.0000 0.5893309861
C   C121      1.0  0.84721  0.53872  0.26955  1.0000 -0.1417099036
C   C122      1.0  0.53872  0.26917  0.69151  1.0000 -0.1417099036
C   C123      1.0  0.26917  0.57766  0.73045  1.0000 -0.1417099036
C   C124      1.0  0.57766  0.84721  0.30849  1.0000 -0.1508113743
C   C125      1.0  0.15279  0.46128  0.73045  1.0000 -0.1417099036
C   C126      1.0  0.46128  0.73083  0.30849  1.0000 -0.1417099036
C   C127      1.0  0.73083  0.42234  0.26955  1.0000 -0.1417099036
C   C128      1.0  0.42234  0.15279  0.69151  1.0000 -0.1508113743
C   C129      1.0  0.81527  0.53388  0.18387  1.0000 0.0009771246
C   C130      1.0  0.53388  0.35001  0.71861  1.0000 0.0009771246
C   C131      1.0  0.35001  0.63140  0.81613  1.0000 0.0009771246
C   C132      1.0  0.63140  0.81527  0.28139  1.0000 0.0009771246
C   C133      1.0  0.18473  0.46612  0.81613  1.0000 0.0009771246
C   C134      1.0  0.46612  0.64999  0.28139  1.0000 0.0009771246
C   C135      1.0  0.64999  0.36860  0.18387  1.0000 0.0009771246
C   C136      1.0  0.36860  0.18473  0.71861  1.0000 0.0009771246
C   C137      1.0  0.01357  0.49558  0.26551  1.0000 -0.1108908934
C   C138      1.0  0.49558  0.23007  0.48201  1.0000 -0.1108908934
C   C139      1.0  0.23007  0.74806  0.73449  1.0000 -0.1108908934
C   C140      1.0  0.74806  0.01357  0.51799  1.0000 -0.1108908934
C   C141      1.0  0.98643  0.50442  0.73449  1.0000 -0.1108908934
C   C142      1.0  0.50442  0.76993  0.51799  1.0000 -0.1108908934
C   C143      1.0  0.76993  0.25194  0.26551  1.0000 -0.1108908934
C   C144      1.0  0.25194  0.98643  0.48201  1.0000 -0.1108908934
C   C145      1.0  0.20089  0.46724  0.19427  1.0000 0.0518904386
C   C146      1.0  0.46724  0.27297  0.26635  1.0000 0.0518904386
C   C147      1.0  0.27297  0.00662  0.80573  1.0000 0.0518904386
C   C148      1.0  0.00662  0.20089  0.73365  1.0000 0.0518904386
C   C149      1.0  0.79911  0.53276  0.80573  1.0000 0.0518904386
C   C150      1.0  0.53276  0.72703  0.73365  1.0000 0.0518904386
C   C151      1.0  0.72703  0.99338  0.19427  1.0000 0.0518904386
C   C152      1.0  0.99338  0.79911  0.26635  1.0000 0.0518904386
C   C153      1.0  0.85571  0.53130  0.20833  1.0000 -0.1706759123
C   C154      1.0  0.53130  0.32297  0.67559  1.0000 -0.1706759123
C   C155      1.0  0.32297  0.64738  0.79167  1.0000 -0.1706759123
C   C156      1.0  0.64738  0.85571  0.32441  1.0000 -0.1706759123
C   C157      1.0  0.14429  0.46870  0.79167  1.0000 -0.1706759123
C   C158      1.0  0.46870  0.67703  0.32441  1.0000 -0.1706759123
C   C159      1.0  0.67703  0.35262  0.20833  1.0000 -0.1706759123
C   C160      1.0  0.35262  0.14429  0.67559  1.0000 -0.1706759123
C   C161      1.0  0.87120  0.53380  0.25100  1.0000 0.1503878941
C   C162      1.0  0.53380  0.28280  0.66260  1.0000 0.1503878941
C   C163      1.0  0.28280  0.62020  0.74900  1.0000 0.1415997143
C   C164      1.0  0.62020  0.87120  0.33740  1.0000 0.1415997143
C   C165      1.0  0.12880  0.46620  0.74900  1.0000 0.1415997143
C   C166      1.0  0.46620  0.71720  0.33740  1.0000 0.1503878941
C   C167      1.0  0.71720  0.37980  0.25100  1.0000 0.1415997143
C   C168      1.0  0.37980  0.12880  0.66260  1.0000 0.1415997143
C   C169      1.0  0.17825  0.46520  0.25127  1.0000 0.0738238196
C   C170      1.0  0.46520  0.21393  0.28695  1.0000 0.0738238196
C   C171      1.0  0.21393  0.92698  0.74873  1.0000 0.0738238196
C   C172      1.0  0.92698  0.17825  0.71305  1.0000 0.0738238196
C   C173      1.0  0.82175  0.53480  0.74873  1.0000 0.0754552781
C   C174      1.0  0.53480  0.78607  0.71305  1.0000 0.0738238196
C   C175      1.0  0.78607  0.07302  0.25127  1.0000 0.0738238196
C   C176      1.0  0.07302  0.82175  0.28695  1.0000 0.0738238196
C   C177      1.0  0.12085  0.47694  0.31019  1.0000 0.0942193455
C   C178      1.0  0.47694  0.16675  0.35609  1.0000 0.0942193455
C   C179      1.0  0.16675  0.81066  0.68981  1.0000 0.0942193455
C   C180      1.0  0.81066  0.12085  0.64391  1.0000 0.0942193455
C   C181      1.0  0.87915  0.52306  0.68981  1.0000 0.0942193455
C   C182      1.0  0.52306  0.83325  0.64391  1.0000 0.0942193455
C   C183      1.0  0.83325  0.18934  0.31019  1.0000 0.0942193455
C   C184      1.0  0.18934  0.87915  0.35609  1.0000 0.0942193455
C   C185      1.0  0.13076  0.47504  0.28018  1.0000 -0.1853552717
C   C186      1.0  0.47504  0.19486  0.34428  1.0000 -0.1853552717
C   C187      1.0  0.19486  0.85058  0.71982  1.0000 -0.1853552717
C   C188      1.0  0.85058  0.13076  0.65572  1.0000 -0.1853552717
C   C189      1.0  0.86924  0.52496  0.71982  1.0000 -0.1853552717
C   C190      1.0  0.52496  0.80514  0.65572  1.0000 -0.1853552717
C   C191      1.0  0.80514  0.14942  0.28018  1.0000 -0.1846323163
C   C192      1.0  0.14942  0.86924  0.34428  1.0000 -0.1853552717
C   C193      1.0  0.22871  0.47358  0.23527  1.0000 -0.1260819045
C   C194      1.0  0.47358  0.23831  0.24487  1.0000 -0.1210342197
C   C195      1.0  0.23831  0.99344  0.76473  1.0000 -0.1210342197
C   C196      1.0  0.99344  0.22871  0.75513  1.0000 -0.1260819045
C   C197      1.0  0.77129  0.52642  0.76473  1.0000 -0.1210342197
C   C198      1.0  0.52642  0.76169  0.75513  1.0000 -0.1210342197
C   C199      1.0  0.76169  0.00656  0.23527  1.0000 -0.1260819045
C   C200      1.0  0.00656  0.77129  0.24487  1.0000 -0.1260819045
C   C201      1.0  0.93729  0.51746  0.26061  1.0000 -0.1602159079
C   C202      1.0  0.51746  0.25685  0.58017  1.0000 -0.1508113743
C   C203      1.0  0.25685  0.67668  0.73939  1.0000 -0.1508113743
C   C204      1.0  0.67668  0.93729  0.41983  1.0000 -0.1508113743
C   C205      1.0  0.06271  0.48254  0.73939  1.0000 -0.1508113743
C   C206      1.0  0.48254  0.74315  0.41983  1.0000 -0.1508113743
C   C207      1.0  0.74315  0.32332  0.26061  1.0000 -0.1602159079
C   C208      1.0  0.32332  0.06271  0.58017  1.0000 -0.1602159079
C   C209      1.0  0.16663  0.46540  0.28281  1.0000 0.1018994673
C   C210      1.0  0.46540  0.18259  0.29877  1.0000 0.1018994673
C   C211      1.0  0.18259  0.88382  0.71719  1.0000 0.1018994673
C   C212      1.0  0.88382  0.16663  0.70123  1.0000 0.1018994673
C   C213      1.0  0.83337  0.53460  0.71719  1.0000 0.1018994673
C   C214      1.0  0.53460  0.81741  0.70123  1.0000 0.1018994673
C   C215      1.0  0.81741  0.11618  0.28281  1.0000 0.1018994673
C   C216      1.0  0.11618  0.83337  0.29877  1.0000 0.1018994673
C   C217      1.0  0.00996  0.50792  0.30014  1.0000 0.0518904386
C   C218      1.0  0.50792  0.20778  0.49796  1.0000 0.0518904386
C   C219      1.0  0.20778  0.70982  0.69986  1.0000 0.0518904386
C   C220      1.0  0.70982  0.00996  0.50204  1.0000 0.0518904386
C   C221      1.0  0.99004  0.49208  0.69986  1.0000 0.0518904386
C   C222      1.0  0.49208  0.79222  0.50204  1.0000 0.0518904386
C   C223      1.0  0.79222  0.29018  0.30014  1.0000 0.0518904386
C   C224      1.0  0.29018  0.99004  0.49796  1.0000 0.0518904386
C   C225      1.0  0.08092  0.50714  0.34678  1.0000 -0.1602159079
C   C226      1.0  0.50714  0.16036  0.42622  1.0000 -0.1602159079
C   C227      1.0  0.16036  0.73414  0.65322  1.0000 -0.1602159079
C   C228      1.0  0.73414  0.08092  0.57378  1.0000 -0.1602159079
C   C229      1.0  0.91908  0.49286  0.65322  1.0000 -0.1602159079
C   C230      1.0  0.49286  0.83964  0.57378  1.0000 -0.1602159079
C   C231      1.0  0.83964  0.26586  0.34678  1.0000 -0.1602159079
C   C232      1.0  0.26586  0.91908  0.42622  1.0000 -0.1602159079
C   C233      1.0  0.08302  0.48847  0.30769  1.0000 0.0738238196
C   C234      1.0  0.48847  0.18078  0.40545  1.0000 0.0738238196
C   C235      1.0  0.18078  0.77533  0.69231  1.0000 0.0738238196
C   C236      1.0  0.77533  0.08302  0.59455  1.0000 0.0738238196
C   C237      1.0  0.91698  0.51153  0.69231  1.0000 0.0738238196
C   C238      1.0  0.51153  0.81922  0.59455  1.0000 0.0738238196
C   C239      1.0  0.81922  0.22467  0.30769  1.0000 0.0738238196
C   C240      1.0  0.22467  0.91698  0.40545  1.0000 0.0738238196
C   C241      1.0  0.14888  0.45742  0.20726  1.0000 -0.1508113743
C   C242      1.0  0.45742  0.25016  0.30854  1.0000 -0.1508113743
C   C243      1.0  0.25016  0.94162  0.79274  1.0000 -0.1508113743
C   C244      1.0  0.94162  0.14888  0.69146  1.0000 -0.1508113743
C   C245      1.0  0.85112  0.54258  0.79274  1.0000 -0.1508113743
C   C246      1.0  0.54258  0.74984  0.69146  1.0000 -0.1508113743
C   C247      1.0  0.74984  0.05838  0.20726  1.0000 -0.1508113743
C   C248      1.0  0.05838  0.85112  0.30854  1.0000 -0.1508113743
C   C249      1.0  0.97320  0.52067  0.29829  1.0000 0.1415997143
C   C250      1.0  0.52067  0.22238  0.54747  1.0000 0.1415997143
C   C251      1.0  0.22238  0.67491  0.70171  1.0000 0.1301879468
C   C252      1.0  0.67491  0.97320  0.45253  1.0000 0.1415997143
C   C253      1.0  0.02680  0.47933  0.70171  1.0000 0.1415997143
C   C254      1.0  0.47933  0.77762  0.45253  1.0000 0.1415997143
C   C255      1.0  0.77762  0.32509  0.29829  1.0000 0.1415997143
C   C256      1.0  0.32509  0.02680  0.54747  1.0000 0.1301879468
C   C257      1.0  0.21846  0.47229  0.26451  1.0000 -0.1602159079
C   C258      1.0  0.47229  0.20778  0.25383  1.0000 -0.1602159079
C   C259      1.0  0.20778  0.95395  0.73549  1.0000 -0.1602159079
C   C260      1.0  0.95395  0.21846  0.74617  1.0000 -0.1602159079
C   C261      1.0  0.78154  0.52771  0.73549  1.0000 -0.1602159079
C   C262      1.0  0.52771  0.79222  0.74617  1.0000 -0.1602159079
C   C263      1.0  0.79222  0.04605  0.26451  1.0000 -0.1602159079
C   C264      1.0  0.04605  0.78154  0.25383  1.0000 -0.1602159079
C   C265      1.0  0.15918  0.45589  0.17749  1.0000 -0.1260819045
C   C266      1.0  0.45589  0.27840  0.29671  1.0000 -0.1210342197
C   C267      1.0  0.27840  0.98169  0.82251  1.0000 -0.1210342197
C   C268      1.0  0.98169  0.15918  0.70329  1.0000 -0.1210342197
C   C269      1.0  0.84082  0.54411  0.82251  1.0000 -0.1210342197
C   C270      1.0  0.54411  0.72160  0.70329  1.0000 -0.1260819045
C   C271      1.0  0.72160  0.01831  0.17749  1.0000 -0.1260819045
C   C272      1.0  0.01831  0.84082  0.29671  1.0000 -0.1260819045
C   C273      1.0  0.04938  0.48194  0.26648  1.0000 -0.1417099036
C   C274      1.0  0.48194  0.21546  0.43256  1.0000 -0.1417099036
C   C275      1.0  0.21546  0.78290  0.73352  1.0000 -0.1508113743
C   C276      1.0  0.78290  0.04938  0.56744  1.0000 -0.1417099036
C   C277      1.0  0.95062  0.51806  0.73352  1.0000 -0.1417099036
C   C278      1.0  0.51806  0.78454  0.56744  1.0000 -0.1417099036
C   C279      1.0  0.78454  0.21710  0.26648  1.0000 -0.1417099036
C   C280      1.0  0.21710  0.95062  0.43256  1.0000 -0.1508113743
C   C281      1.0  0.04542  0.51847  0.34555  1.0000 -0.1108908934
C   C282      1.0  0.51847  0.17292  0.47305  1.0000 -0.1108908934
C   C283      1.0  0.17292  0.69987  0.65445  1.0000 -0.1108908934
C   C284      1.0  0.69987  0.04542  0.52695  1.0000 -0.1108908934
C   C285      1.0  0.95458  0.48153  0.65445  1.0000 -0.1108908934
C   C286      1.0  0.48153  0.82708  0.52695  1.0000 -0.1108908934
C   C287      1.0  0.82708  0.30013  0.34555  1.0000 -0.1108908934
C   C288      1.0  0.30013  0.95458  0.47305  1.0000 -0.1108908934
C   C289      1.0  0.33711  0.42772  0.65457  1.0000 -0.0007972653
C   C290      1.0  0.42772  0.77315  0.09061  1.0000 0.0009771246
C   C291      1.0  0.77315  0.68254  0.34543  1.0000 -0.0007972653
C   C292      1.0  0.68254  0.33711  0.90939  1.0000 0.0009771246
C   C293      1.0  0.66289  0.57228  0.34543  1.0000 0.0009771246
C   C294      1.0  0.57228  0.22685  0.90939  1.0000 -0.0007972653
C   C295      1.0  0.22685  0.31746  0.65457  1.0000 -0.0007972653
C   C296      1.0  0.31746  0.66289  0.09061  1.0000 -0.0007972653
C   C297      1.0  0.37983  0.43401  0.68454  1.0000 -0.0984758259
C   C298      1.0  0.43401  0.74947  0.05418  1.0000 -0.0984758259
C   C299      1.0  0.74947  0.69529  0.31546  1.0000 -0.0984758259
C   C300      1.0  0.69529  0.37983  0.94582  1.0000 -0.0984758259
C   C301      1.0  0.62017  0.56599  0.31546  1.0000 -0.0984758259
C   C302      1.0  0.56599  0.25053  0.94582  1.0000 -0.0984758259
C   C303      1.0  0.25053  0.30471  0.68454  1.0000 -0.0984758259
C   C304      1.0  0.30471  0.62017  0.05418  1.0000 -0.0984758259
C   C305      1.0  0.40565  0.43517  0.66960  1.0000 0.008180178
C   C306      1.0  0.43517  0.76557  0.02952  1.0000 0.008180178
C   C307      1.0  0.76557  0.73605  0.33040  1.0000 0.008180178
C   C308      1.0  0.73605  0.40565  0.97048  1.0000 0.008180178
C   C309      1.0  0.59435  0.56483  0.33040  1.0000 0.008180178
C   C310      1.0  0.56483  0.23443  0.97048  1.0000 0.008180178
C   C311      1.0  0.23443  0.26395  0.66960  1.0000 0.008180178
C   C312      1.0  0.26395  0.59435  0.02952  1.0000 0.008180178
C   C313      1.0  0.30903  0.42981  0.67194  1.0000 0.5893309861
C   C314      1.0  0.42981  0.75787  0.12078  1.0000 0.5893309861
C   C315      1.0  0.75787  0.63709  0.32806  1.0000 0.5893309861
C   C316      1.0  0.63709  0.30903  0.87922  1.0000 0.5893309861
C   C317      1.0  0.69097  0.57019  0.32806  1.0000 0.5893309861
C   C318      1.0  0.57019  0.24213  0.87922  1.0000 0.5893309861
C   C319      1.0  0.24213  0.36291  0.67194  1.0000 0.5893309861
C   C320      1.0  0.36291  0.69097  0.12078  1.0000 0.5893309861
C   C321      1.0  0.34555  0.42324  0.59581  1.0000 0.1415997143
C   C322      1.0  0.42324  0.82743  0.07769  1.0000 0.1415997143
C   C323      1.0  0.82743  0.74974  0.40419  1.0000 0.1415997143
C   C324      1.0  0.74974  0.34555  0.92231  1.0000 0.1415997143
C   C325      1.0  0.65445  0.57676  0.40419  1.0000 0.1415997143
C   C326      1.0  0.57676  0.17257  0.92231  1.0000 0.1415997143
C   C327      1.0  0.17257  0.25026  0.59581  1.0000 0.1415997143
C   C328      1.0  0.25026  0.65445  0.07769  1.0000 0.1415997143
C   C329      1.0  0.29548  0.43030  0.52830  1.0000 -0.1417099036
C   C330      1.0  0.43030  0.90200  0.13482  1.0000 -0.1417099036
C   C331      1.0  0.90200  0.76718  0.47170  1.0000 -0.1417099036
C   C332      1.0  0.76718  0.29548  0.86518  1.0000 -0.1417099036
C   C333      1.0  0.70452  0.56970  0.47170  1.0000 -0.1417099036
C   C334      1.0  0.56970  0.09800  0.86518  1.0000 -0.1417099036
C   C335      1.0  0.09800  0.23282  0.52830  1.0000 -0.1417099036
C   C336      1.0  0.23282  0.70452  0.13482  1.0000 -0.1417099036
C   C337      1.0  0.29187  0.42122  0.48683  1.0000 0.1112330262
C   C338      1.0  0.42122  0.93439  0.12935  1.0000 0.1112330262
C   C339      1.0  0.93439  0.80504  0.51317  1.0000 0.1112330262
C   C340      1.0  0.80504  0.29187  0.87065  1.0000 0.1112330262
C   C341      1.0  0.70813  0.57878  0.51317  1.0000 0.1112330262
C   C342      1.0  0.57878  0.06561  0.87065  1.0000 0.1112330262
C   C343      1.0  0.06561  0.19496  0.48683  1.0000 0.1112330262
C   C344      1.0  0.19496  0.70813  0.12935  1.0000 0.1112330262
C   C345      1.0  0.24961  0.47461  0.16968  1.0000 -0.1417099036
C   C346      1.0  0.47461  0.30493  0.22500  1.0000 -0.1417099036
C   C347      1.0  0.30493  0.07993  0.83032  1.0000 -0.1417099036
C   C348      1.0  0.07993  0.24961  0.77500  1.0000 -0.1417099036
C   C349      1.0  0.75039  0.52539  0.83032  1.0000 -0.1417099036
C   C350      1.0  0.52539  0.69507  0.77500  1.0000 -0.1417099036
C   C351      1.0  0.69507  0.92007  0.16968  1.0000 -0.1417099036
C   C352      1.0  0.92007  0.75039  0.22500  1.0000 -0.1417099036
C   C353      1.0  0.21265  0.46864  0.16383  1.0000 0.12092692
C   C354      1.0  0.46864  0.30481  0.25599  1.0000 0.1112330262
C   C355      1.0  0.30481  0.04882  0.83617  1.0000 0.1112330262
C   C356      1.0  0.04882  0.21265  0.74401  1.0000 0.1112330262
C   C357      1.0  0.78735  0.53136  0.83617  1.0000 0.12092692
C   C358      1.0  0.53136  0.69519  0.74401  1.0000 0.1112330262
C   C359      1.0  0.69519  0.95118  0.16383  1.0000 0.1112330262
C   C360      1.0  0.95118  0.78735  0.25599  1.0000 0.1112330262
C   C361      1.0  0.31292  0.48624  0.15078  1.0000 -0.1602159079
C   C362      1.0  0.48624  0.33546  0.17332  1.0000 -0.1706759123
C   C363      1.0  0.33546  0.16214  0.84922  1.0000 -0.1706759123
C   C364      1.0  0.16214  0.31292  0.82668  1.0000 -0.1706759123
C   C365      1.0  0.68708  0.51376  0.84922  1.0000 -0.1706759123
C   C366      1.0  0.51376  0.66454  0.82668  1.0000 -0.1602159079
C   C367      1.0  0.66454  0.83786  0.15078  1.0000 -0.1706759123
C   C368      1.0  0.83786  0.68708  0.17332  1.0000 -0.1706759123
C   C369      1.0  0.25253  0.46964  0.07315  1.0000 -0.1508113743
C   C370      1.0  0.46964  0.39649  0.21711  1.0000 -0.1508113743
C   C371      1.0  0.39649  0.17938  0.92685  1.0000 -0.1508113743
C   C372      1.0  0.17938  0.25253  0.78289  1.0000 -0.1508113743
C   C373      1.0  0.74747  0.53036  0.92685  1.0000 -0.1508113743
C   C374      1.0  0.53036  0.60351  0.78289  1.0000 -0.1508113743
C   C375      1.0  0.60351  0.82062  0.07315  1.0000 -0.1508113743
C   C376      1.0  0.82062  0.74747  0.21711  1.0000 -0.1508113743
C   C377      1.0  0.27028  0.47536  0.11802  1.0000 0.1415997143
C   C378      1.0  0.47536  0.35734  0.20508  1.0000 0.1415997143
C   C379      1.0  0.35734  0.15226  0.88198  1.0000 0.1301879468
C   C380      1.0  0.15226  0.27028  0.79492  1.0000 0.1415997143
C   C381      1.0  0.72972  0.52464  0.88198  1.0000 0.1415997143
C   C382      1.0  0.52464  0.64266  0.79492  1.0000 0.1301879468
C   C383      1.0  0.64266  0.84774  0.11802  1.0000 0.1415997143
C   C384      1.0  0.84774  0.72972  0.20508  1.0000 0.1415997143
C   C385      1.0  0.32277  0.48410  0.09311  1.0000 -0.0984758259
C   C386      1.0  0.48410  0.39099  0.16133  1.0000 -0.0984758259
C   C387      1.0  0.39099  0.22966  0.90689  1.0000 -0.0984758259
C   C388      1.0  0.22966  0.32277  0.83867  1.0000 -0.0984758259
C   C389      1.0  0.67723  0.51590  0.90689  1.0000 -0.0984758259
C   C390      1.0  0.51590  0.60901  0.83867  1.0000 -0.0984758259
C   C391      1.0  0.60901  0.77034  0.09311  1.0000 -0.0984758259
C   C392      1.0  0.77034  0.67723  0.16133  1.0000 -0.0984758259
C   C393      1.0  0.27967  0.47385  0.06090  1.0000 0.0009771246
C   C394      1.0  0.47385  0.41295  0.19418  1.0000 0.0009771246
C   C395      1.0  0.41295  0.21877  0.93910  1.0000 0.0009771246
C   C396      1.0  0.21877  0.27967  0.80582  1.0000 0.0009771246
C   C397      1.0  0.72033  0.52615  0.93910  1.0000 0.0009771246
C   C398      1.0  0.52615  0.58705  0.80582  1.0000 0.0009771246
C   C399      1.0  0.58705  0.78123  0.06090  1.0000 0.0009771246
C   C400      1.0  0.78123  0.72033  0.19418  1.0000 0.0009771246
C   C401      1.0  0.34015  0.49073  0.13890  1.0000 0.0009771246
C   C402      1.0  0.49073  0.35183  0.15058  1.0000 0.0009771246
C   C403      1.0  0.35183  0.20125  0.86110  1.0000 0.0009771246
C   C404      1.0  0.20125  0.34015  0.84942  1.0000 0.0009771246
C   C405      1.0  0.65985  0.50927  0.86110  1.0000 0.0009771246
C   C406      1.0  0.50927  0.64817  0.84942  1.0000 0.0009771246
C   C407      1.0  0.64817  0.79875  0.13890  1.0000 0.0009771246
C   C408      1.0  0.79875  0.65985  0.15058  1.0000 0.0009771246
C   C409      1.0  0.45385  0.44591  0.70392  1.0000 0.5815247023
C   C410      1.0  0.44591  0.74199  0.99206  1.0000 0.5815247023
C   C411      1.0  0.74199  0.74993  0.29608  1.0000 0.5815247023
C   C412      1.0  0.74993  0.45385  0.00794  1.0000 0.5815247023
C   C413      1.0  0.54615  0.55409  0.29608  1.0000 0.5815247023
C   C414      1.0  0.55409  0.25801  0.00794  1.0000 0.5815247023
C   C415      1.0  0.25801  0.25007  0.70392  1.0000 0.5815247023
C   C416      1.0  0.25007  0.54615  0.99206  1.0000 0.5815247023
C   C417      1.0  0.38758  0.50521  0.17525  1.0000 0.5815247023
C   C418      1.0  0.50521  0.32996  0.11763  1.0000 0.5815247023
C   C419      1.0  0.32996  0.21233  0.82475  1.0000 0.5815247023
C   C420      1.0  0.21233  0.38758  0.88237  1.0000 0.5815247023
C   C421      1.0  0.61242  0.49479  0.82475  1.0000 0.5815247023
C   C422      1.0  0.49479  0.67004  0.88237  1.0000 0.5815247023
C   C423      1.0  0.67004  0.78767  0.17525  1.0000 0.5815247023
C   C424      1.0  0.78767  0.61242  0.11763  1.0000 0.5815247023
C   C425      1.0  0.26095  0.47015  0.01352  1.0000 0.5815247023
C   C426      1.0  0.47015  0.45663  0.20920  1.0000 0.5815247023
C   C427      1.0  0.45663  0.24743  0.98648  1.0000 0.5815247023
C   C428      1.0  0.24743  0.26095  0.79080  1.0000 0.5815247023
C   C429      1.0  0.73905  0.52985  0.98648  1.0000 0.5815247023
C   C430      1.0  0.52985  0.54337  0.79080  1.0000 0.5815247023
C   C431      1.0  0.54337  0.75257  0.01352  1.0000 0.5815247023
C   C432      1.0  0.75257  0.73905  0.20920  1.0000 0.5815247023
N   N1        1.0  0.91230  0.52996  0.27548  1.0000 0.1503878941
N   N2        1.0  0.52996  0.25448  0.61766  1.0000 0.1574232049
N   N3        1.0  0.25448  0.63682  0.72452  1.0000 0.1503878941
N   N4        1.0  0.63682  0.91230  0.38234  1.0000 0.1574232049
N   N5        1.0  0.08770  0.47004  0.72452  1.0000 0.1503878941
N   N6        1.0  0.47004  0.74552  0.38234  1.0000 0.1503878941
N   N7        1.0  0.74552  0.36318  0.27548  1.0000 0.1503878941
N   N8        1.0  0.36318  0.08770  0.61766  1.0000 0.1503878941
N   N9        1.0  0.96821  0.53363  0.33384  1.0000 -0.2076380279
N   N10       1.0  0.53363  0.19979  0.56542  1.0000 -0.2076380279
N   N11       1.0  0.19979  0.63437  0.66616  1.0000 -0.2076380279
N   N12       1.0  0.63437  0.96821  0.43458  1.0000 -0.2076380279
N   N13       1.0  0.03179  0.46637  0.66616  1.0000 -0.2076380279
N   N14       1.0  0.46637  0.80021  0.43458  1.0000 -0.2076380279
N   N15       1.0  0.80021  0.36563  0.33384  1.0000 -0.2076380279
N   N16       1.0  0.36563  0.03179  0.56542  1.0000 -0.2076380279
N   N17       1.0  0.93212  0.54045  0.32103  1.0000 -0.1108908934
N   N18       1.0  0.54045  0.21942  0.60833  1.0000 -0.1210342197
N   N19       1.0  0.21942  0.61109  0.67897  1.0000 -0.1108908934
N   N20       1.0  0.61109  0.93212  0.39167  1.0000 -0.1210342197
N   N21       1.0  0.06788  0.45955  0.67897  1.0000 -0.1210342197
N   N22       1.0  0.45955  0.78058  0.39167  1.0000 -0.1210342197
N   N23       1.0  0.78058  0.38891  0.32103  1.0000 -0.1210342197
N   N24       1.0  0.38891  0.06788  0.60833  1.0000 -0.1108908934
N   N25       1.0  0.32805  0.41884  0.54971  1.0000 0.1503878941
N   N26       1.0  0.41884  0.86913  0.09079  1.0000 0.1503878941
N   N27       1.0  0.86913  0.77834  0.45029  1.0000 0.1574232049
N   N28       1.0  0.77834  0.32805  0.90921  1.0000 0.1574232049
N   N29       1.0  0.67195  0.58116  0.45029  1.0000 0.1574232049
N   N30       1.0  0.58116  0.13087  0.90921  1.0000 0.1503878941
N   N31       1.0  0.13087  0.22166  0.54971  1.0000 0.1574232049
N   N32       1.0  0.22166  0.67195  0.09079  1.0000 0.1503878941
N   N33       1.0  0.32434  0.40556  0.48738  1.0000 -0.2076380279
N   N34       1.0  0.40556  0.91818  0.08122  1.0000 -0.2156580628
N   N35       1.0  0.91818  0.83696  0.51262  1.0000 -0.2156580628
N   N36       1.0  0.83696  0.32434  0.91878  1.0000 -0.2156580628
N   N37       1.0  0.67566  0.59444  0.51262  1.0000 -0.2156580628
N   N38       1.0  0.59444  0.08182  0.91878  1.0000 -0.2076380279
N   N39       1.0  0.08182  0.16304  0.48738  1.0000 -0.2076380279
N   N40       1.0  0.16304  0.67566  0.08122  1.0000 -0.2156580628
N   N41       1.0  0.24190  0.47055  0.13031  1.0000 0.1574232049
N   N42       1.0  0.47055  0.34024  0.22865  1.0000 0.1503878941
N   N43       1.0  0.34024  0.11159  0.86969  1.0000 0.1503878941
N   N44       1.0  0.11159  0.24190  0.77135  1.0000 0.1503878941
N   N45       1.0  0.75810  0.52945  0.86969  1.0000 0.1503878941
N   N46       1.0  0.52945  0.65976  0.77135  1.0000 0.1574232049
N   N47       1.0  0.65976  0.88841  0.13031  1.0000 0.1574232049
N   N48       1.0  0.88841  0.75810  0.22865  1.0000 0.1503878941
N   N49       1.0  0.20088  0.46046  0.09922  1.0000 -0.0984758259
N   N50       1.0  0.46046  0.36124  0.25958  1.0000 -0.0984758259
N   N51       1.0  0.36124  0.10166  0.90078  1.0000 -0.0984758259
N   N52       1.0  0.10166  0.20088  0.74042  1.0000 -0.0984758259
N   N53       1.0  0.79912  0.53954  0.90078  1.0000 -0.0984758259
N   N54       1.0  0.53954  0.63876  0.74042  1.0000 -0.0984758259
N   N55       1.0  0.63876  0.89834  0.09922  1.0000 -0.0984758259
N   N56       1.0  0.89834  0.79912  0.25958  1.0000 -0.0984758259
N   N57       1.0  0.18231  0.45884  0.11847  1.0000 -0.2076380279
N   N58       1.0  0.45884  0.34037  0.27653  1.0000 -0.2076380279
N   N59       1.0  0.34037  0.06384  0.88153  1.0000 -0.2076380279
N   N60       1.0  0.06384  0.18231  0.72347  1.0000 -0.2076380279
N   N61       1.0  0.81769  0.54116  0.88153  1.0000 -0.2076380279
N   N62       1.0  0.54116  0.65963  0.72347  1.0000 -0.2076380279
N   N63       1.0  0.65963  0.93616  0.11847  1.0000 -0.2076380279
N   N64       1.0  0.93616  0.81769  0.27653  1.0000 -0.2076380279
N   N65       1.0  0.34628  0.40507  0.52619  1.0000 -0.1210342197
N   N66       1.0  0.40507  0.87888  0.05879  1.0000 -0.1210342197
N   N67       1.0  0.87888  0.82009  0.47381  1.0000 -0.1210342197
N   N68       1.0  0.82009  0.34628  0.94121  1.0000 -0.1210342197
N   N69       1.0  0.65372  0.59493  0.47381  1.0000 -0.1210342197
N   N70       1.0  0.59493  0.12112  0.94121  1.0000 -0.1210342197
N   N71       1.0  0.12112  0.17991  0.52619  1.0000 -0.1210342197
N   N72       1.0  0.17991  0.65372  0.05879  1.0000 -0.1210342197
O   O1        1.0  0.86825  0.54513  0.08534  1.0000 -0.8192202524
O   O2        1.0  0.54513  0.45979  0.67688  1.0000 -0.8192202524
O   O3        1.0  0.45979  0.78291  0.91466  1.0000 -0.8192202524
O   O4        1.0  0.78291  0.86825  0.32312  1.0000 -0.8192202524
O   O5        1.0  0.13175  0.45487  0.91466  1.0000 -0.8192202524
O   O6        1.0  0.45487  0.54021  0.32312  1.0000 -0.8192202524
O   O7        1.0  0.54021  0.21709  0.08534  1.0000 -0.8192202524
O   O8        1.0  0.21709  0.13175  0.67688  1.0000 -0.8192202524
O   O9        1.0  0.66879  0.52098  0.04115  1.0000 -0.8107535691
O   O10       1.0  0.52098  0.47983  0.85219  1.0000 -0.8107535691
O   O11       1.0  0.47983  0.62764  0.95885  1.0000 -0.8107535691
O   O12       1.0  0.62764  0.66879  0.14781  1.0000 -0.8107535691
O   O13       1.0  0.33121  0.47902  0.95885  1.0000 -0.8107535691
O   O14       1.0  0.47902  0.52017  0.14781  1.0000 -0.8107535691
O   O15       1.0  0.52017  0.37236  0.04115  1.0000 -0.8107535691
O   O16       1.0  0.37236  0.33121  0.85219  1.0000 -0.8107535691
O   O17       1.0  0.82281  0.53420  0.12643  1.0000 -0.5188476519
O   O18       1.0  0.53420  0.40777  0.71139  1.0000 -0.5188476519
O   O19       1.0  0.40777  0.69638  0.87357  1.0000 -0.5188476519
O   O20       1.0  0.69638  0.82281  0.28861  1.0000 -0.5188476519
O   O21       1.0  0.17719  0.46580  0.87357  1.0000 -0.5188476519
O   O22       1.0  0.46580  0.59223  0.28861  1.0000 -0.5102676714
O   O23       1.0  0.59223  0.30362  0.12643  1.0000 -0.5188476519
O   O24       1.0  0.30362  0.17719  0.71139  1.0000 -0.5188476519
O   O25       1.0  0.74330  0.54435  0.23699  1.0000 -0.5188476519
O   O26       1.0  0.54435  0.30736  0.80105  1.0000 -0.5188476519
O   O27       1.0  0.30736  0.50631  0.76301  1.0000 -0.5188476519
O   O28       1.0  0.50631  0.74330  0.19895  1.0000 -0.5188476519
O   O29       1.0  0.25670  0.45565  0.76301  1.0000 -0.5188476519
O   O30       1.0  0.45565  0.69264  0.19895  1.0000 -0.5188476519
O   O31       1.0  0.69264  0.49369  0.23699  1.0000 -0.5188476519
O   O32       1.0  0.49369  0.25670  0.80105  1.0000 -0.5188476519
O   O33       1.0  0.75922  0.52946  0.11354  1.0000 -0.5102676714
O   O34       1.0  0.52946  0.41592  0.77024  1.0000 -0.5102676714
O   O35       1.0  0.41592  0.64568  0.88646  1.0000 -0.5102676714
O   O36       1.0  0.64568  0.75922  0.22976  1.0000 -0.5102676714
O   O37       1.0  0.24078  0.47054  0.88646  1.0000 -0.5102676714
O   O38       1.0  0.47054  0.58408  0.22976  1.0000 -0.5102676714
O   O39       1.0  0.58408  0.35432  0.11354  1.0000 -0.5102676714
O   O40       1.0  0.35432  0.24078  0.77024  1.0000 -0.5102676714
O   O41       1.0  0.80014  0.55753  0.30779  1.0000 -0.5011600577
O   O42       1.0  0.55753  0.24974  0.75739  1.0000 -0.5011600577
O   O43       1.0  0.24974  0.49235  0.69221  1.0000 -0.5011600577
O   O44       1.0  0.49235  0.80014  0.24261  1.0000 -0.5011600577
O   O45       1.0  0.19986  0.44247  0.69221  1.0000 -0.5011600577
O   O46       1.0  0.44247  0.75026  0.24261  1.0000 -0.5011600577
O   O47       1.0  0.75026  0.50765  0.30779  1.0000 -0.5011600577
O   O48       1.0  0.50765  0.19986  0.75739  1.0000 -0.5011600577
O   O49       1.0  0.32659  0.43703  0.71318  1.0000 -0.5011600577
O   O50       1.0  0.43703  0.72385  0.11044  1.0000 -0.5011600577
O   O51       1.0  0.72385  0.61341  0.28682  1.0000 -0.5011600577
O   O52       1.0  0.61341  0.32659  0.88956  1.0000 -0.5011600577
O   O53       1.0  0.67341  0.56297  0.28682  1.0000 -0.5011600577
O   O54       1.0  0.56297  0.27615  0.88956  1.0000 -0.5011600577
O   O55       1.0  0.27615  0.38659  0.71318  1.0000 -0.5011600577
O   O56       1.0  0.38659  0.67341  0.11044  1.0000 -0.5011600577
O   O57       1.0  0.27034  0.42374  0.64300  1.0000 -0.5255872651
O   O58       1.0  0.42374  0.78074  0.15340  1.0000 -0.5255872651
O   O59       1.0  0.78074  0.62734  0.35700  1.0000 -0.5255872651
O   O60       1.0  0.62734  0.27034  0.84660  1.0000 -0.5255872651
O   O61       1.0  0.72966  0.57626  0.35700  1.0000 -0.5255872651
O   O62       1.0  0.57626  0.21926  0.84660  1.0000 -0.5255872651
O   O63       1.0  0.21926  0.37266  0.64300  1.0000 -0.5188476519
O   O64       1.0  0.37266  0.72966  0.15340  1.0000 -0.5255872651
O   O65       1.0  0.40987  0.50517  0.16020  1.0000 -0.5188476519
O   O66       1.0  0.50517  0.34497  0.09530  1.0000 -0.5188476519
O   O67       1.0  0.34497  0.24967  0.83980  1.0000 -0.5188476519
O   O68       1.0  0.24967  0.40987  0.90470  1.0000 -0.5188476519
O   O69       1.0  0.59013  0.49483  0.83980  1.0000 -0.5188476519
O   O70       1.0  0.49483  0.65503  0.90470  1.0000 -0.5188476519
O   O71       1.0  0.65503  0.75033  0.16020  1.0000 -0.5188476519
O   O72       1.0  0.75033  0.59013  0.09530  1.0000 -0.5188476519
O   O73       1.0  0.46649  0.45179  0.74448  1.0000 -0.5102676714
O   O74       1.0  0.45179  0.70731  0.98530  1.0000 -0.5102676714
O   O75       1.0  0.70731  0.72201  0.25552  1.0000 -0.5102676714
O   O76       1.0  0.72201  0.46649  0.01470  1.0000 -0.5102676714
O   O77       1.0  0.53351  0.54821  0.25552  1.0000 -0.5102676714
O   O78       1.0  0.54821  0.29269  0.01470  1.0000 -0.5102676714
O   O79       1.0  0.29269  0.27799  0.74448  1.0000 -0.5102676714
O   O80       1.0  0.27799  0.53351  0.98530  1.0000 -0.5102676714
O   O81       1.0  0.47446  0.44775  0.68891  1.0000 -0.5011600577
O   O82       1.0  0.44775  0.75884  0.97329  1.0000 -0.5011600577
O   O83       1.0  0.75884  0.78555  0.31109  1.0000 -0.5011600577
O   O84       1.0  0.78555  0.47446  0.02671  1.0000 -0.5011600577
O   O85       1.0  0.52554  0.55225  0.31109  1.0000 -0.5011600577
O   O86       1.0  0.55225  0.24116  0.02671  1.0000 -0.5011600577
O   O87       1.0  0.24116  0.21445  0.68891  1.0000 -0.5011600577
O   O88       1.0  0.21445  0.52554  0.97329  1.0000 -0.5011600577
O   O89       1.0  0.28726  0.47321  0.00445  1.0000 -0.5011600577
O   O90       1.0  0.47321  0.46876  0.18595  1.0000 -0.5011600577
O   O91       1.0  0.46876  0.28281  0.99555  1.0000 -0.5011600577
O   O92       1.0  0.28281  0.28726  0.81405  1.0000 -0.5011600577
O   O93       1.0  0.71274  0.52679  0.99555  1.0000 -0.5011600577
O   O94       1.0  0.52679  0.53124  0.81405  1.0000 -0.5011600577
O   O95       1.0  0.53124  0.71719  0.00445  1.0000 -0.5011600577
O   O96       1.0  0.71719  0.71274  0.18595  1.0000 -0.5011600577
O   O97       1.0  0.40140  0.51452  0.21716  1.0000 -0.5011600577
O   O98       1.0  0.51452  0.29736  0.11312  1.0000 -0.5011600577
O   O99       1.0  0.29736  0.18424  0.78284  1.0000 -0.5011600577
O   O100      1.0  0.18424  0.40140  0.88688  1.0000 -0.5011600577
O   O101      1.0  0.59860  0.48548  0.78284  1.0000 -0.5011600577
O   O102      1.0  0.48548  0.70264  0.88688  1.0000 -0.5011600577
O   O103      1.0  0.70264  0.81576  0.21716  1.0000 -0.5011600577
O   O104      1.0  0.81576  0.59860  0.11312  1.0000 -0.5011600577
O   O105      1.0  0.22216  0.46243  0.98741  1.0000 -0.5102676714
O   O106      1.0  0.46243  0.47502  0.24027  1.0000 -0.5102676714
O   O107      1.0  0.47502  0.23475  0.01259  1.0000 -0.5102676714
O   O108      1.0  0.23475  0.22216  0.75973  1.0000 -0.5102676714
O   O109      1.0  0.77784  0.53757  0.01259  1.0000 -0.5102676714
O   O110      1.0  0.53757  0.52498  0.75973  1.0000 -0.5102676714
O   O111      1.0  0.52498  0.76525  0.98741  1.0000 -0.5102676714
O   O112      1.0  0.76525  0.77784  0.24027  1.0000 -0.5102676714
