# DDEC6 charges by PACMAN v1.1 (https://github.com/mtap-research/PACMAN-charge/)
data_2015[U][nan]3[ASR]8
_chemical_formula_sum              "U4 H20 C32 O18"
_cell_length_a       9.6655
_cell_length_b       11.002
_cell_length_c       15.5709
_cell_angle_alpha    100.488
_cell_angle_beta     107.393
_cell_angle_gamma    109.32

_symmetry_space_group_name_H-M    "P 1"
_symmetry_Int_Tables_number       1

loop_
  _symmetry_equiv_pos_as_xyz
  'x, y, z'

loop_
  _atom_site_type_symbol
  _atom_site_label
  _atom_site_symmetry_multiplicity
  _atom_site_fract_x
  _atom_site_fract_y
  _atom_site_fract_z
  _atom_site_occupancy
  _atom_site_charge
U   U1        1.0  0.22705  0.92471  0.11375  1.0000 1.9823820152
U   U2        1.0  0.77295  0.07529  0.88625  1.0000 1.9914125957
U   U3        1.0  0.35004  0.83569  0.49976  1.0000 1.7406892337
U   U4        1.0  0.64996  0.16431  0.50024  1.0000 1.7406892337
H   H1        1.0  0.13580  0.43870  0.06020  1.0000 0.1117942913
H   H2        1.0  0.86420  0.56130  0.93980  1.0000 0.1117942913
H   H3        1.0  0.36170  0.29200  0.24480  1.0000 0.0899959941
H   H4        1.0  0.63830  0.70800  0.75520  1.0000 0.0899959941
H   H5        1.0  0.49180  0.50270  0.35620  1.0000 0.0979020566
H   H6        1.0  0.50820  0.49730  0.64380  1.0000 0.0979020566
H   H7        1.0  0.46830  0.69010  0.31190  1.0000 0.0899959941
H   H8        1.0  0.53170  0.30990  0.68810  1.0000 0.0899959941
H   H9        1.0  0.35400  0.93400  0.35400  1.0000 0.2456548818
H   H10       1.0  0.64600  0.06600  0.64600  1.0000 0.2456548818
H   H11       1.0  0.50700  0.94300  0.40300  1.0000 0.1117942913
H   H12       1.0  0.49300  0.05700  0.59700  1.0000 0.1117942913
H   H13       1.0  0.86160  0.40910  0.37740  1.0000 0.1117942913
H   H14       1.0  0.13840  0.59090  0.62260  1.0000 0.1117942913
H   H15       1.0  0.95860  0.55460  0.17440  1.0000 0.0979020566
H   H16       1.0  0.04140  0.44540  0.82560  1.0000 0.0979020566
H   H17       1.0  0.73200  0.37790  0.06060  1.0000 0.0899959941
H   H18       1.0  0.26800  0.62210  0.93940  1.0000 0.0899959941
H   H19       1.0  0.56910  0.21450  0.10510  1.0000 0.0899959941
H   H20       1.0  0.43090  0.78550  0.89490  1.0000 0.0899959941
C   C1        1.0  0.27400  0.69930  0.15760  1.0000 0.5092606106
C   C2        1.0  0.72600  0.30070  0.84240  1.0000 0.5092606106
C   C3        1.0  0.29810  0.58260  0.18320  1.0000 -0.0416977723
C   C4        1.0  0.70190  0.41740  0.81680  1.0000 -0.0416977723
C   C5        1.0  0.21030  0.45220  0.11900  1.0000 -0.1215918144
C   C6        1.0  0.78970  0.54780  0.88100  1.0000 -0.1215918144
C   C7        1.0  0.23290  0.34390  0.14200  1.0000 -0.0714156266
C   C8        1.0  0.76710  0.65610  0.85800  1.0000 -0.0714156266
C   C9        1.0  0.34300  0.36480  0.23000  1.0000 -0.1215918144
C   C10       1.0  0.65700  0.63520  0.77000  1.0000 -0.1215918144
C   C11       1.0  0.42440  0.49090  0.29540  1.0000 -0.1275880329
C   C12       1.0  0.57560  0.50910  0.70460  1.0000 -0.1275880329
C   C13       1.0  0.40670  0.60290  0.26990  1.0000 -0.1215918144
C   C14       1.0  0.59330  0.39710  0.73010  1.0000 -0.1215918144
C   C15       1.0  0.14290  0.20450  0.07340  1.0000 0.618670062
C   C16       1.0  0.85710  0.79550  0.92660  1.0000 0.618670062
C   C17       1.0  0.59440  0.19330  0.27290  1.0000 0.5932454624
C   C18       1.0  0.40560  0.80670  0.72710  1.0000 0.5932454624
C   C19       1.0  0.69470  0.29970  0.24620  1.0000 -0.1111466415
C   C20       1.0  0.30530  0.70030  0.75380  1.0000 -0.1111466415
C   C21       1.0  0.83340  0.40440  0.31390  1.0000 -0.1111466415
C   C22       1.0  0.16660  0.59560  0.68610  1.0000 -0.1215918144
C   C23       1.0  0.92980  0.50160  0.28770  1.0000 -0.0416977723
C   C24       1.0  0.07020  0.49840  0.71230  1.0000 -0.0416977723
C   C25       1.0  0.89240  0.49050  0.19230  1.0000 -0.1111466415
C   C26       1.0  0.10760  0.50950  0.80770  1.0000 -0.1111466415
C   C27       1.0  0.75730  0.38460  0.12430  1.0000 -0.1215918144
C   C28       1.0  0.24270  0.61540  0.87570  1.0000 -0.1215918144
C   C29       1.0  0.65870  0.28730  0.15100  1.0000 -0.1215918144
C   C30       1.0  0.34130  0.71270  0.84900  1.0000 -0.1215918144
C   C31       1.0  0.07900  0.61240  0.36020  1.0000 0.5205007352
C   C32       1.0  0.92100  0.38760  0.63980  1.0000 0.5205007352
O   O1        1.0  0.37970  0.81960  0.20530  1.0000 -0.6538701397
O   O2        1.0  0.62030  0.18040  0.79470  1.0000 -0.6538701397
O   O3        1.0  0.14990  0.68160  0.08920  1.0000 -0.6314438027
O   O4        1.0  0.85010  0.31840  0.91080  1.0000 -0.6314438027
O   O5        1.0  0.18440  0.11310  0.08840  1.0000 -0.6538701397
O   O6        1.0  0.81560  0.88690  0.91160  1.0000 -0.6538701397
O   O7        1.0  0.02790  0.18280  0.00050  1.0000 -0.6618327341
O   O8        1.0  0.97210  0.81720  0.99950  1.0000 -0.6618327341
O   O9        1.0  0.43020  0.96460  0.40660  1.0000 -0.7993636272
O   O10       1.0  0.56980  0.03540  0.59340  1.0000 -0.7993636272
O   O11       1.0  0.16020  0.70600  0.33620  1.0000 -0.6314438027
O   O12       1.0  0.83980  0.29400  0.66380  1.0000 -0.6360257707
O   O13       1.0  0.11990  0.61690  0.44520  1.0000 -0.5910734675
O   O14       1.0  0.88010  0.38310  0.55480  1.0000 -0.5910734675
O   O15       1.0  0.46690  0.10040  0.21320  1.0000 -0.6538701397
O   O16       1.0  0.53310  0.89960  0.78680  1.0000 -0.6538701397
O   O17       1.0  0.63150  0.19850  0.35550  1.0000 -0.5980096302
O   O18       1.0  0.36850  0.80150  0.64450  1.0000 -0.5980096302
