# DDEC6 charges by PACMAN v1.1 (https://github.com/mtap-research/PACMAN-charge/)
data_2015[Tb][nan]3[ASR]13
_chemical_formula_sum              "Tb16 H200 C336 O124"
_cell_length_a       15.9451
_cell_length_b       28.148
_cell_length_c       23.9546
_cell_angle_alpha    90
_cell_angle_beta     111.482
_cell_angle_gamma    90

_symmetry_space_group_name_H-M    "P 1"
_symmetry_Int_Tables_number       1

loop_
  _symmetry_equiv_pos_as_xyz
  'x, y, z'

loop_
  _atom_site_type_symbol
  _atom_site_label
  _atom_site_symmetry_multiplicity
  _atom_site_fract_x
  _atom_site_fract_y
  _atom_site_fract_z
  _atom_site_occupancy
  _atom_site_charge
Tb  Tb1       1.0  0.91203  0.14252  0.30521  1.0000 2.1178706343
Tb  Tb2       1.0  0.08797  0.64252  0.19479  1.0000 2.1178706343
Tb  Tb3       1.0  0.08797  0.85748  0.69479  1.0000 2.1178706343
Tb  Tb4       1.0  0.91203  0.35748  0.80521  1.0000 2.1178706343
Tb  Tb5       1.0  0.65865  0.14079  0.21878  1.0000 2.0388315375
Tb  Tb6       1.0  0.34135  0.64079  0.28122  1.0000 2.0388315375
Tb  Tb7       1.0  0.34135  0.85921  0.78122  1.0000 2.0388315375
Tb  Tb8       1.0  0.65865  0.35921  0.71878  1.0000 2.0388315375
Tb  Tb9       1.0  0.43033  0.10566  0.21009  1.0000 2.0388315375
Tb  Tb10      1.0  0.56967  0.60566  0.28991  1.0000 2.0388315375
Tb  Tb11      1.0  0.56967  0.89434  0.78991  1.0000 2.0388315375
Tb  Tb12      1.0  0.43033  0.39434  0.71009  1.0000 2.0388315375
Tb  Tb13      1.0  0.20783  0.13078  0.29299  1.0000 2.1178706343
Tb  Tb14      1.0  0.79217  0.63078  0.20701  1.0000 2.1178706343
Tb  Tb15      1.0  0.79217  0.86922  0.70701  1.0000 2.1178706343
Tb  Tb16      1.0  0.20783  0.36922  0.79299  1.0000 2.1178706343
H   H1        1.0  0.18450  0.98910  0.32540  1.0000 0.1213986844
H   H2        1.0  0.81550  0.48910  0.17460  1.0000 0.1213986844
H   H3        1.0  0.81550  0.01090  0.67460  1.0000 0.1213986844
H   H4        1.0  0.18450  0.51090  0.82540  1.0000 0.1213986844
H   H5        1.0  0.96940  0.00630  0.37250  1.0000 0.1213986844
H   H6        1.0  0.03060  0.50630  0.12750  1.0000 0.1213986844
H   H7        1.0  0.03060  0.99370  0.62750  1.0000 0.1213986844
H   H8        1.0  0.96940  0.49370  0.87250  1.0000 0.1213986844
H   H9        1.0  0.17560  0.90790  0.33580  1.0000 0.1304728714
H   H10       1.0  0.82440  0.40790  0.16420  1.0000 0.1304728714
H   H11       1.0  0.82440  0.09210  0.66420  1.0000 0.1304728714
H   H12       1.0  0.17560  0.59210  0.83580  1.0000 0.1304728714
H   H13       1.0  0.96600  0.92530  0.38700  1.0000 0.1383047722
H   H14       1.0  0.03400  0.42530  0.11300  1.0000 0.1383047722
H   H15       1.0  0.03400  0.07470  0.61300  1.0000 0.1383047722
H   H16       1.0  0.96600  0.57470  0.88700  1.0000 0.1383047722
H   H17       1.0  0.20630  0.82040  0.44020  1.0000 0.1383047722
H   H18       1.0  0.79370  0.32040  0.05980  1.0000 0.1383047722
H   H19       1.0  0.79370  0.17960  0.55980  1.0000 0.1383047722
H   H20       1.0  0.20630  0.67960  0.94020  1.0000 0.1383047722
H   H21       1.0  0.03510  0.82690  0.27360  1.0000 0.1213986844
H   H22       1.0  0.96490  0.32690  0.22640  1.0000 0.1213986844
H   H23       1.0  0.96490  0.17310  0.72640  1.0000 0.1213986844
H   H24       1.0  0.03510  0.67310  0.77360  1.0000 0.1213986844
H   H25       1.0  0.27680  0.75570  0.41670  1.0000 0.1213986844
H   H26       1.0  0.72320  0.25570  0.08330  1.0000 0.1213986844
H   H27       1.0  0.72320  0.24430  0.58330  1.0000 0.1213986844
H   H28       1.0  0.27680  0.74430  0.91670  1.0000 0.1213986844
H   H29       1.0  0.10210  0.76110  0.24970  1.0000 0.1132364333
H   H30       1.0  0.89790  0.26110  0.25030  1.0000 0.1132364333
H   H31       1.0  0.89790  0.23890  0.75030  1.0000 0.1132364333
H   H32       1.0  0.10210  0.73890  0.74970  1.0000 0.1132364333
H   H33       1.0  0.83700  0.06730  0.46760  1.0000 0.1213986844
H   H34       1.0  0.16300  0.56730  0.03240  1.0000 0.1213986844
H   H35       1.0  0.16300  0.93270  0.53240  1.0000 0.1213986844
H   H36       1.0  0.83700  0.43270  0.96760  1.0000 0.1213986844
H   H37       1.0  0.62370  0.14090  0.36590  1.0000 0.1304728714
H   H38       1.0  0.37630  0.64090  0.13410  1.0000 0.1304728714
H   H39       1.0  0.37630  0.85910  0.63410  1.0000 0.1304728714
H   H40       1.0  0.62370  0.35910  0.86590  1.0000 0.1304728714
H   H41       1.0  0.76700  0.05280  0.53570  1.0000 0.1213986844
H   H42       1.0  0.23300  0.55280  0.96430  1.0000 0.1213986844
H   H43       1.0  0.23300  0.94720  0.46430  1.0000 0.1213986844
H   H44       1.0  0.76700  0.44720  0.03570  1.0000 0.1213986844
H   H45       1.0  0.55300  0.12760  0.43380  1.0000 0.1304728714
H   H46       1.0  0.44700  0.62760  0.06620  1.0000 0.1304728714
H   H47       1.0  0.44700  0.87240  0.56620  1.0000 0.1304728714
H   H48       1.0  0.55300  0.37240  0.93380  1.0000 0.1304728714
H   H49       1.0  0.63350  0.99660  0.50890  1.0000 0.1304728714
H   H50       1.0  0.36650  0.49660  0.99110  1.0000 0.1304728714
H   H51       1.0  0.36650  0.00340  0.49110  1.0000 0.1304728714
H   H52       1.0  0.63350  0.50340  0.00890  1.0000 0.1304728714
H   H53       1.0  0.58870  0.08190  0.62810  1.0000 0.1383047722
H   H54       1.0  0.41130  0.58190  0.87190  1.0000 0.1383047722
H   H55       1.0  0.41130  0.91810  0.37190  1.0000 0.1383047722
H   H56       1.0  0.58870  0.41810  0.12810  1.0000 0.1383047722
H   H57       1.0  0.62900  0.93170  0.56700  1.0000 0.1132364333
H   H58       1.0  0.37100  0.43170  0.93300  1.0000 0.1132364333
H   H59       1.0  0.37100  0.06830  0.43300  1.0000 0.1132364333
H   H60       1.0  0.62900  0.56830  0.06700  1.0000 0.1132364333
H   H61       1.0  0.56900  0.01630  0.67930  1.0000 0.1304728714
H   H62       1.0  0.43100  0.51630  0.82070  1.0000 0.1304728714
H   H63       1.0  0.43100  0.98370  0.32070  1.0000 0.1304728714
H   H64       1.0  0.56900  0.48370  0.17930  1.0000 0.1304728714
H   H65       1.0  0.88160  0.00880  0.25520  1.0000 0.1213986844
H   H66       1.0  0.11840  0.50880  0.24480  1.0000 0.1213986844
H   H67       1.0  0.11840  0.99120  0.74480  1.0000 0.1213986844
H   H68       1.0  0.88160  0.49120  0.75520  1.0000 0.1213986844
H   H69       1.0  0.74310  0.03710  0.08340  1.0000 0.1213986844
H   H70       1.0  0.25690  0.53710  0.41660  1.0000 0.1213986844
H   H71       1.0  0.25690  0.96290  0.91660  1.0000 0.1213986844
H   H72       1.0  0.74310  0.46290  0.58340  1.0000 0.1213986844
H   H73       1.0  0.93950  0.94070  0.22720  1.0000 0.1304728714
H   H74       1.0  0.06050  0.44070  0.27280  1.0000 0.1304728714
H   H75       1.0  0.06050  0.05930  0.77280  1.0000 0.1304728714
H   H76       1.0  0.93950  0.55930  0.72720  1.0000 0.1304728714
H   H77       1.0  0.80430  0.97140  0.05610  1.0000 0.1383047722
H   H78       1.0  0.19570  0.47140  0.44390  1.0000 0.1383047722
H   H79       1.0  0.19570  0.02860  0.94390  1.0000 0.1383047722
H   H80       1.0  0.80430  0.52860  0.55610  1.0000 0.1383047722
H   H81       1.0  0.00430  0.84560  0.10460  1.0000 0.1304728714
H   H82       1.0  0.99570  0.34560  0.39540  1.0000 0.1304728714
H   H83       1.0  0.99570  0.15440  0.89540  1.0000 0.1304728714
H   H84       1.0  0.00430  0.65440  0.60460  1.0000 0.1304728714
H   H85       1.0  0.81700  0.87270  0.17510  1.0000 0.1304728714
H   H86       1.0  0.18300  0.37270  0.32490  1.0000 0.1304728714
H   H87       1.0  0.18300  0.12730  0.82490  1.0000 0.1304728714
H   H88       1.0  0.81700  0.62730  0.67510  1.0000 0.1304728714
H   H89       1.0  0.00540  0.76690  0.13040  1.0000 0.1132364333
H   H90       1.0  0.99460  0.26690  0.36960  1.0000 0.1132364333
H   H91       1.0  0.99460  0.23310  0.86960  1.0000 0.1132364333
H   H92       1.0  0.00540  0.73310  0.63040  1.0000 0.1132364333
H   H93       1.0  0.81150  0.79290  0.19580  1.0000 0.1213986844
H   H94       1.0  0.18850  0.29290  0.30420  1.0000 0.1213986844
H   H95       1.0  0.18850  0.20710  0.80420  1.0000 0.1213986844
H   H96       1.0  0.81150  0.70710  0.69580  1.0000 0.1213986844
H   H97       1.0  0.55490  0.17110  0.05530  1.0000 0.1383047722
H   H98       1.0  0.44510  0.67110  0.44470  1.0000 0.1383047722
H   H99       1.0  0.44510  0.82890  0.94470  1.0000 0.1383047722
H   H100      1.0  0.55490  0.32890  0.55530  1.0000 0.1383047722
H   H101      1.0  0.34320  0.08350  0.99810  1.0000 0.1132364333
H   H102      1.0  0.65680  0.58350  0.50190  1.0000 0.1132364333
H   H103      1.0  0.65680  0.91650  0.00190  1.0000 0.1132364333
H   H104      1.0  0.34320  0.41650  0.49810  1.0000 0.1132364333
H   H105      1.0  0.53680  0.18600  0.95590  1.0000 0.1213986844
H   H106      1.0  0.46320  0.68600  0.54410  1.0000 0.1213986844
H   H107      1.0  0.46320  0.81400  0.04410  1.0000 0.1213986844
H   H108      1.0  0.53680  0.31400  0.45590  1.0000 0.1213986844
H   H109      1.0  0.33000  0.09540  0.90060  1.0000 0.1304728714
H   H110      1.0  0.67000  0.59540  0.59940  1.0000 0.1304728714
H   H111      1.0  0.67000  0.90460  0.09940  1.0000 0.1304728714
H   H112      1.0  0.33000  0.40460  0.40060  1.0000 0.1304728714
H   H113      1.0  0.39300  0.23890  0.86630  1.0000 0.1304728714
H   H114      1.0  0.60700  0.73890  0.63370  1.0000 0.1304728714
H   H115      1.0  0.60700  0.76110  0.13370  1.0000 0.1304728714
H   H116      1.0  0.39300  0.26110  0.36630  1.0000 0.1304728714
H   H117      1.0  0.52500  0.14150  0.80820  1.0000 0.1383047722
H   H118      1.0  0.47500  0.64150  0.69180  1.0000 0.1383047722
H   H119      1.0  0.47500  0.85850  0.19180  1.0000 0.1383047722
H   H120      1.0  0.52500  0.35850  0.30820  1.0000 0.1383047722
H   H121      1.0  0.44830  0.29880  0.82280  1.0000 0.1213986844
H   H122      1.0  0.55170  0.79880  0.67720  1.0000 0.1304728714
H   H123      1.0  0.55170  0.70120  0.17720  1.0000 0.1304728714
H   H124      1.0  0.44830  0.20120  0.32280  1.0000 0.1304728714
H   H125      1.0  0.58060  0.20100  0.76450  1.0000 0.1213986844
H   H126      1.0  0.41940  0.70100  0.73550  1.0000 0.1213986844
H   H127      1.0  0.41940  0.79900  0.23550  1.0000 0.1213986844
H   H128      1.0  0.58060  0.29900  0.26450  1.0000 0.1213986844
H   H129      1.0  0.36640  0.26110  0.15710  1.0000 0.1304728714
H   H130      1.0  0.63360  0.76110  0.34290  1.0000 0.1304728714
H   H131      1.0  0.63360  0.73890  0.84290  1.0000 0.1304728714
H   H132      1.0  0.36640  0.23890  0.65710  1.0000 0.1304728714
H   H133      1.0  0.14890  0.24380  0.19720  1.0000 0.1304728714
H   H134      1.0  0.85110  0.74380  0.30280  1.0000 0.1304728714
H   H135      1.0  0.85110  0.75620  0.80280  1.0000 0.1213986844
H   H136      1.0  0.14890  0.25620  0.69720  1.0000 0.1213986844
H   H137      1.0  0.33200  0.34090  0.13880  1.0000 0.1304728714
H   H138      1.0  0.66800  0.84090  0.36120  1.0000 0.1304728714
H   H139      1.0  0.66800  0.65910  0.86120  1.0000 0.1304728714
H   H140      1.0  0.33200  0.15910  0.63880  1.0000 0.1304728714
H   H141      1.0  0.11250  0.32240  0.17700  1.0000 0.1383047722
H   H142      1.0  0.88750  0.82240  0.32300  1.0000 0.1383047722
H   H143      1.0  0.88750  0.67760  0.82300  1.0000 0.1383047722
H   H144      1.0  0.11250  0.17760  0.67700  1.0000 0.1383047722
H   H145      1.0  0.33170  0.38230  0.25040  1.0000 0.1213986844
H   H146      1.0  0.66830  0.88230  0.24960  1.0000 0.1213986844
H   H147      1.0  0.66830  0.61770  0.74960  1.0000 0.1213986844
H   H148      1.0  0.33170  0.11770  0.75040  1.0000 0.1213986844
H   H149      1.0  0.19380  0.47290  0.12260  1.0000 0.1304728714
H   H150      1.0  0.80620  0.97290  0.37740  1.0000 0.1304728714
H   H151      1.0  0.80620  0.52710  0.87740  1.0000 0.1304728714
H   H152      1.0  0.19380  0.02710  0.62260  1.0000 0.1304728714
H   H153      1.0  0.43020  0.44220  0.29860  1.0000 0.1213986844
H   H154      1.0  0.56980  0.94220  0.20140  1.0000 0.1213986844
H   H155      1.0  0.56980  0.55780  0.70140  1.0000 0.1213986844
H   H156      1.0  0.43020  0.05780  0.79860  1.0000 0.1213986844
H   H157      1.0  0.28830  0.53270  0.17350  1.0000 0.1213986844
H   H158      1.0  0.71170  0.03270  0.32650  1.0000 0.1213986844
H   H159      1.0  0.71170  0.46730  0.82650  1.0000 0.1213986844
H   H160      1.0  0.28830  0.96730  0.67350  1.0000 0.1213986844
H   H161      1.0  0.24200  0.02880  0.09410  1.0000 0.1304728714
H   H162      1.0  0.75800  0.52880  0.40590  1.0000 0.1304728714
H   H163      1.0  0.75800  0.97120  0.90590  1.0000 0.1304728714
H   H164      1.0  0.24200  0.47120  0.59410  1.0000 0.1304728714
H   H165      1.0  0.15450  0.97460  0.21490  1.0000 0.1213986844
H   H166      1.0  0.84550  0.47460  0.28510  1.0000 0.1213986844
H   H167      1.0  0.84550  0.02540  0.78510  1.0000 0.1213986844
H   H168      1.0  0.15450  0.52540  0.71490  1.0000 0.1213986844
H   H169      1.0  0.18870  0.96290  0.03440  1.0000 0.1304728714
H   H170      1.0  0.81130  0.46290  0.46560  1.0000 0.1304728714
H   H171      1.0  0.81130  0.03710  0.96560  1.0000 0.1304728714
H   H172      1.0  0.18870  0.53710  0.53440  1.0000 0.1304728714
H   H173      1.0  0.11290  0.90580  0.15960  1.0000 0.1383047722
H   H174      1.0  0.88710  0.40580  0.34040  1.0000 0.1383047722
H   H175      1.0  0.88710  0.09420  0.84040  1.0000 0.1383047722
H   H176      1.0  0.11290  0.59420  0.65960  1.0000 0.1383047722
H   H177      1.0  0.21900  0.86800  0.99910  1.0000 0.1304728714
H   H178      1.0  0.78100  0.36800  0.50090  1.0000 0.1304728714
H   H179      1.0  0.78100  0.13200  0.00090  1.0000 0.1304728714
H   H180      1.0  0.21900  0.63200  0.49910  1.0000 0.1304728714
H   H181      1.0  0.97020  0.90340  0.98130  1.0000 0.1383047722
H   H182      1.0  0.02980  0.40340  0.51870  1.0000 0.1383047722
H   H183      1.0  0.02980  0.09660  0.01870  1.0000 0.1383047722
H   H184      1.0  0.97020  0.59660  0.48130  1.0000 0.1383047722
H   H185      1.0  0.17400  0.86000  0.89520  1.0000 0.1304728714
H   H186      1.0  0.82600  0.36000  0.60480  1.0000 0.1304728714
H   H187      1.0  0.82600  0.14000  0.10480  1.0000 0.1304728714
H   H188      1.0  0.17400  0.64000  0.39520  1.0000 0.1304728714
H   H189      1.0  0.92220  0.89330  0.87780  1.0000 0.1213986844
H   H190      1.0  0.07780  0.39330  0.62220  1.0000 0.1213986844
H   H191      1.0  0.07780  0.10670  0.12220  1.0000 0.1213986844
H   H192      1.0  0.92220  0.60670  0.37780  1.0000 0.1213986844
H   H193      1.0  0.31310  0.17210  0.42860  1.0000 0.3716405834
H   H194      1.0  0.68690  0.67210  0.07140  1.0000 0.3716405834
H   H195      1.0  0.68690  0.82790  0.57140  1.0000 0.3716405834
H   H196      1.0  0.31310  0.32790  0.92860  1.0000 0.3716405834
H   H197      1.0  0.23660  0.14570  0.40150  1.0000 0.3118450473
H   H198      1.0  0.76340  0.64570  0.09850  1.0000 0.3118450473
H   H199      1.0  0.76340  0.85430  0.59850  1.0000 0.3118450473
H   H200      1.0  0.23660  0.35430  0.90150  1.0000 0.3118450473
C   C1        1.0  0.07860  0.05870  0.33870  1.0000 0.6605960782
C   C2        1.0  0.92140  0.55870  0.16130  1.0000 0.6605960782
C   C3        1.0  0.92140  0.94130  0.66130  1.0000 0.6605960782
C   C4        1.0  0.07860  0.44130  0.83870  1.0000 0.6605960782
C   C5        1.0  0.07720  0.00633  0.34720  1.0000 -0.0505595334
C   C6        1.0  0.92280  0.50633  0.15280  1.0000 -0.0505595334
C   C7        1.0  0.92280  0.99367  0.65280  1.0000 -0.0505595334
C   C8        1.0  0.07720  0.49367  0.84720  1.0000 -0.0505595334
C   C9        1.0  0.13970  0.97640  0.33710  1.0000 -0.0788203502
C   C10       1.0  0.86030  0.47640  0.16290  1.0000 -0.0788203502
C   C11       1.0  0.86030  0.02360  0.66290  1.0000 -0.0788203502
C   C12       1.0  0.13970  0.52360  0.83710  1.0000 -0.0788203502
C   C13       1.0  0.01170  0.98673  0.36570  1.0000 -0.0877705801
C   C14       1.0  0.98830  0.48673  0.13430  1.0000 -0.0877705801
C   C15       1.0  0.98830  0.01327  0.63430  1.0000 -0.0877705801
C   C16       1.0  0.01170  0.51327  0.86570  1.0000 -0.0877705801
C   C17       1.0  0.13530  0.92795  0.34420  1.0000 -0.2201207532
C   C18       1.0  0.86470  0.42795  0.15580  1.0000 -0.2201207532
C   C19       1.0  0.86470  0.07205  0.65580  1.0000 -0.2201207532
C   C20       1.0  0.13530  0.57205  0.84420  1.0000 -0.2201207532
C   C21       1.0  0.00930  0.93834  0.37410  1.0000 -0.209412747
C   C22       1.0  0.99070  0.43834  0.12590  1.0000 -0.209412747
C   C23       1.0  0.99070  0.06166  0.62590  1.0000 -0.209412747
C   C24       1.0  0.00930  0.56166  0.87410  1.0000 -0.209412747
C   C25       1.0  0.07140  0.90959  0.36350  1.0000 0.239946098
C   C26       1.0  0.92860  0.40959  0.13650  1.0000 0.239946098
C   C27       1.0  0.92860  0.09041  0.63650  1.0000 0.239946098
C   C28       1.0  0.07140  0.59041  0.86350  1.0000 0.239946098
C   C29       1.0  0.11280  0.82780  0.36000  1.0000 0.2233580468
C   C30       1.0  0.88720  0.32780  0.14000  1.0000 0.2233580468
C   C31       1.0  0.88720  0.17220  0.64000  1.0000 0.2233580468
C   C32       1.0  0.11280  0.67220  0.86000  1.0000 0.2233580468
C   C33       1.0  0.18440  0.80810  0.40150  1.0000 -0.2005210588
C   C34       1.0  0.81560  0.30810  0.09850  1.0000 -0.2005210588
C   C35       1.0  0.81560  0.19190  0.59850  1.0000 -0.2005210588
C   C36       1.0  0.18440  0.69190  0.90150  1.0000 -0.2005210588
C   C37       1.0  0.08280  0.81190  0.30310  1.0000 -0.2005210588
C   C38       1.0  0.91720  0.31190  0.19690  1.0000 -0.2005210588
C   C39       1.0  0.91720  0.18810  0.69690  1.0000 -0.2005210588
C   C40       1.0  0.08280  0.68810  0.80310  1.0000 -0.2005210588
C   C41       1.0  0.22680  0.76930  0.38750  1.0000 -0.0788203502
C   C42       1.0  0.77320  0.26930  0.11250  1.0000 -0.0788203502
C   C43       1.0  0.77320  0.23070  0.61250  1.0000 -0.0788203502
C   C44       1.0  0.22680  0.73070  0.88750  1.0000 -0.0788203502
C   C45       1.0  0.12410  0.77260  0.28890  1.0000 -0.0788203502
C   C46       1.0  0.87590  0.27260  0.21110  1.0000 -0.0788203502
C   C47       1.0  0.87590  0.22740  0.71110  1.0000 -0.0788203502
C   C48       1.0  0.12410  0.72740  0.78890  1.0000 -0.0788203502
C   C49       1.0  0.19440  0.75083  0.33000  1.0000 -0.041622178
C   C50       1.0  0.80560  0.25083  0.17000  1.0000 -0.041622178
C   C51       1.0  0.80560  0.24917  0.67000  1.0000 -0.041622178
C   C52       1.0  0.19440  0.74917  0.83000  1.0000 -0.041622178
C   C53       1.0  0.23840  0.70896  0.31480  1.0000 0.6181529617
C   C54       1.0  0.76160  0.20896  0.18520  1.0000 0.6181529617
C   C55       1.0  0.76160  0.29104  0.68520  1.0000 0.6181529617
C   C56       1.0  0.23840  0.79104  0.81480  1.0000 0.6181529617
C   C57       1.0  0.78240  0.11689  0.36650  1.0000 0.6181529617
C   C58       1.0  0.21760  0.61689  0.13350  1.0000 0.6181529617
C   C59       1.0  0.21760  0.88311  0.63350  1.0000 0.6181529617
C   C60       1.0  0.78240  0.38311  0.86650  1.0000 0.6181529617
C   C61       1.0  0.73770  0.10663  0.41020  1.0000 -0.0505595334
C   C62       1.0  0.26230  0.60663  0.08980  1.0000 -0.0505595334
C   C63       1.0  0.26230  0.89337  0.58980  1.0000 -0.0505595334
C   C64       1.0  0.73770  0.39337  0.91020  1.0000 -0.0505595334
C   C65       1.0  0.78000  0.07970  0.46070  1.0000 -0.0788203502
C   C66       1.0  0.22000  0.57970  0.03930  1.0000 -0.0788203502
C   C67       1.0  0.22000  0.92030  0.53930  1.0000 -0.0788203502
C   C68       1.0  0.78000  0.42030  0.96070  1.0000 -0.0788203502
C   C69       1.0  0.65340  0.12350  0.40050  1.0000 -0.0712163089
C   C70       1.0  0.34660  0.62350  0.09950  1.0000 -0.0712163089
C   C71       1.0  0.34660  0.87650  0.59950  1.0000 -0.0712163089
C   C72       1.0  0.65340  0.37650  0.90050  1.0000 -0.0712163089
C   C73       1.0  0.73810  0.07090  0.50160  1.0000 -0.209412747
C   C74       1.0  0.26190  0.57090  0.99840  1.0000 -0.209412747
C   C75       1.0  0.26190  0.92910  0.49840  1.0000 -0.209412747
C   C76       1.0  0.73810  0.42910  0.00160  1.0000 -0.209412747
C   C77       1.0  0.61020  0.11540  0.44090  1.0000 -0.2005210588
C   C78       1.0  0.38980  0.61540  0.05910  1.0000 -0.2005210588
C   C79       1.0  0.38980  0.88460  0.55910  1.0000 -0.2005210588
C   C80       1.0  0.61020  0.38460  0.94090  1.0000 -0.2005210588
C   C81       1.0  0.65410  0.08900  0.49110  1.0000 0.239946098
C   C82       1.0  0.34590  0.58900  0.00890  1.0000 0.239946098
C   C83       1.0  0.34590  0.91100  0.50890  1.0000 0.239946098
C   C84       1.0  0.65410  0.41100  0.99110  1.0000 0.239946098
C   C85       1.0  0.61050  0.04490  0.56220  1.0000 0.239946098
C   C86       1.0  0.38950  0.54490  0.93780  1.0000 0.239946098
C   C87       1.0  0.38950  0.95510  0.43780  1.0000 0.239946098
C   C88       1.0  0.61050  0.45510  0.06220  1.0000 0.239946098
C   C89       1.0  0.62250  0.00080  0.54410  1.0000 -0.209412747
C   C90       1.0  0.37750  0.50080  0.95590  1.0000 -0.209412747
C   C91       1.0  0.37750  0.99920  0.45590  1.0000 -0.209412747
C   C92       1.0  0.62250  0.49920  0.04410  1.0000 -0.209412747
C   C93       1.0  0.59380  0.05140  0.61450  1.0000 -0.2005210588
C   C94       1.0  0.40620  0.55140  0.88550  1.0000 -0.2005210588
C   C95       1.0  0.40620  0.94860  0.38550  1.0000 -0.2005210588
C   C96       1.0  0.59380  0.44860  0.11450  1.0000 -0.2005210588
C   C97       1.0  0.61850  0.96200  0.57850  1.0000 -0.0877705801
C   C98       1.0  0.38150  0.46200  0.92150  1.0000 -0.0877705801
C   C99       1.0  0.38150  0.03800  0.42150  1.0000 -0.0877705801
C   C100      1.0  0.61850  0.53800  0.07850  1.0000 -0.0877705801
C   C101      1.0  0.58500  0.01220  0.64600  1.0000 -0.0788203502
C   C102      1.0  0.41500  0.51220  0.85400  1.0000 -0.0788203502
C   C103      1.0  0.41500  0.98780  0.35400  1.0000 -0.0788203502
C   C104      1.0  0.58500  0.48780  0.14600  1.0000 -0.0788203502
C   C105      1.0  0.59890  0.96770  0.62970  1.0000 -0.0505595334
C   C106      1.0  0.40110  0.46770  0.87030  1.0000 -0.0505595334
C   C107      1.0  0.40110  0.03230  0.37030  1.0000 -0.0505595334
C   C108      1.0  0.59890  0.53230  0.12970  1.0000 -0.0505595334
C   C109      1.0  0.59730  0.92520  0.66720  1.0000 0.6318405326
C   C110      1.0  0.40270  0.42520  0.83280  1.0000 0.6318405326
C   C111      1.0  0.40270  0.07480  0.33280  1.0000 0.6318405326
C   C112      1.0  0.59730  0.57480  0.16720  1.0000 0.6318405326
C   C113      1.0  0.75980  0.07023  0.18910  1.0000 0.6070223208
C   C114      1.0  0.24020  0.57023  0.31090  1.0000 0.6070223208
C   C115      1.0  0.24020  0.92977  0.81090  1.0000 0.6070223208
C   C116      1.0  0.75980  0.42977  0.68910  1.0000 0.6070223208
C   C117      1.0  0.80450  0.02885  0.17190  1.0000 -0.0301931696
C   C118      1.0  0.19550  0.52885  0.32810  1.0000 -0.0301931696
C   C119      1.0  0.19550  0.97115  0.82810  1.0000 -0.0301931696
C   C120      1.0  0.80450  0.47115  0.67190  1.0000 -0.0301931696
C   C121      1.0  0.86450  0.00090  0.21480  1.0000 -0.0712163089
C   C122      1.0  0.13550  0.50090  0.28520  1.0000 -0.0712163089
C   C123      1.0  0.13550  0.99910  0.78520  1.0000 -0.0712163089
C   C124      1.0  0.86450  0.49910  0.71480  1.0000 -0.0712163089
C   C125      1.0  0.78280  0.01784  0.11280  1.0000 -0.0712163089
C   C126      1.0  0.21720  0.51784  0.38720  1.0000 -0.0712163089
C   C127      1.0  0.21720  0.98216  0.88720  1.0000 -0.0712163089
C   C128      1.0  0.78280  0.48216  0.61280  1.0000 -0.0712163089
C   C129      1.0  0.90010  0.96040  0.19810  1.0000 -0.2005210588
C   C130      1.0  0.09990  0.46040  0.30190  1.0000 -0.2005210588
C   C131      1.0  0.09990  0.03960  0.80190  1.0000 -0.2005210588
C   C132      1.0  0.90010  0.53960  0.69810  1.0000 -0.2005210588
C   C133      1.0  0.87660  0.95023  0.13880  1.0000 0.2233580468
C   C134      1.0  0.12340  0.45023  0.36120  1.0000 0.2233580468
C   C135      1.0  0.12340  0.04977  0.86120  1.0000 0.2233580468
C   C136      1.0  0.87660  0.54977  0.63880  1.0000 0.2233580468
C   C137      1.0  0.81920  0.97859  0.09650  1.0000 -0.2005210588
C   C138      1.0  0.18080  0.47859  0.40350  1.0000 -0.2005210588
C   C139      1.0  0.18080  0.02141  0.90350  1.0000 -0.2005210588
C   C140      1.0  0.81920  0.52141  0.59650  1.0000 -0.2005210588
C   C141      1.0  0.91070  0.86698  0.13780  1.0000 0.2541106473
C   C142      1.0  0.08930  0.36698  0.36220  1.0000 0.2541106473
C   C143      1.0  0.08930  0.13302  0.86220  1.0000 0.2541106473
C   C144      1.0  0.91070  0.63302  0.63780  1.0000 0.2541106473
C   C145      1.0  0.96680  0.83503  0.12400  1.0000 -0.2005210588
C   C146      1.0  0.03320  0.33503  0.37600  1.0000 -0.2005210588
C   C147      1.0  0.03320  0.16497  0.87600  1.0000 -0.2005210588
C   C148      1.0  0.96680  0.66497  0.62400  1.0000 -0.2005210588
C   C149      1.0  0.85390  0.85125  0.16540  1.0000 -0.2201207532
C   C150      1.0  0.14610  0.35125  0.33460  1.0000 -0.2304993604
C   C151      1.0  0.14610  0.14875  0.83460  1.0000 -0.2304993604
C   C152      1.0  0.85390  0.64875  0.66540  1.0000 -0.2304993604
C   C153      1.0  0.96660  0.78797  0.13880  1.0000 -0.0788203502
C   C154      1.0  0.03340  0.28797  0.36120  1.0000 -0.0788203502
C   C155      1.0  0.03340  0.21203  0.86120  1.0000 -0.0788203502
C   C156      1.0  0.96660  0.71203  0.63880  1.0000 -0.0788203502
C   C157      1.0  0.90890  0.77123  0.16660  1.0000 -0.0712163089
C   C158      1.0  0.09110  0.27123  0.33340  1.0000 -0.0712163089
C   C159      1.0  0.09110  0.22877  0.83340  1.0000 -0.0712163089
C   C160      1.0  0.90890  0.72877  0.66667  1.0000 -0.0712163089
C   C161      1.0  0.85170  0.80349  0.17860  1.0000 -0.0788203502
C   C162      1.0  0.14830  0.30349  0.32140  1.0000 -0.0788203502
C   C163      1.0  0.14830  0.19651  0.82140  1.0000 -0.0788203502
C   C164      1.0  0.85170  0.69651  0.67860  1.0000 -0.0788203502
C   C165      1.0  0.91010  0.72029  0.18320  1.0000 0.6510614013
C   C166      1.0  0.08990  0.22029  0.31680  1.0000 0.6510614013
C   C167      1.0  0.08990  0.27971  0.81680  1.0000 0.6510614013
C   C168      1.0  0.91010  0.77971  0.68320  1.0000 0.6510614013
C   C169      1.0  0.45090  0.12002  0.09790  1.0000 0.6181529617
C   C170      1.0  0.54910  0.62002  0.40210  1.0000 0.6181529617
C   C171      1.0  0.54910  0.87998  0.90210  1.0000 0.6181529617
C   C172      1.0  0.45090  0.37998  0.59790  1.0000 0.6181529617
C   C173      1.0  0.44930  0.12745  0.03650  1.0000 -0.0505595334
C   C174      1.0  0.55070  0.62745  0.46350  1.0000 -0.0505595334
C   C175      1.0  0.55070  0.87255  0.96350  1.0000 -0.0505595334
C   C176      1.0  0.44930  0.37255  0.53650  1.0000 -0.041622178
C   C177      1.0  0.50800  0.15680  0.02420  1.0000 -0.0633845563
C   C178      1.0  0.49200  0.65680  0.47580  1.0000 -0.0633845563
C   C179      1.0  0.49200  0.84320  0.97580  1.0000 -0.0633845563
C   C180      1.0  0.50800  0.34320  0.52420  1.0000 -0.0633845563
C   C181      1.0  0.38230  0.10430  0.98960  1.0000 -0.0788203502
C   C182      1.0  0.61770  0.60430  0.51040  1.0000 -0.0788203502
C   C183      1.0  0.61770  0.89570  0.01040  1.0000 -0.0788203502
C   C184      1.0  0.38230  0.39570  0.48960  1.0000 -0.0788203502
C   C185      1.0  0.49770  0.16550  0.96490  1.0000 -0.2201207532
C   C186      1.0  0.50230  0.66550  0.53510  1.0000 -0.2201207532
C   C187      1.0  0.50230  0.83450  0.03510  1.0000 -0.2201207532
C   C188      1.0  0.49770  0.33450  0.46490  1.0000 -0.2201207532
C   C189      1.0  0.37350  0.11170  0.93150  1.0000 -0.209412747
C   C190      1.0  0.62650  0.61170  0.56850  1.0000 -0.209412747
C   C191      1.0  0.62650  0.88830  0.06850  1.0000 -0.209412747
C   C192      1.0  0.37350  0.38830  0.43150  1.0000 -0.209412747
C   C193      1.0  0.42850  0.14310  0.91920  1.0000 0.2541106473
C   C194      1.0  0.57150  0.64310  0.58080  1.0000 0.2541106473
C   C195      1.0  0.57150  0.85690  0.08080  1.0000 0.2541106473
C   C196      1.0  0.42850  0.35690  0.41920  1.0000 0.2541106473
C   C197      1.0  0.45320  0.18580  0.84020  1.0000 0.2276735038
C   C198      1.0  0.54680  0.68580  0.65980  1.0000 0.2276735038
C   C199      1.0  0.54680  0.81420  0.15980  1.0000 0.2276735038
C   C200      1.0  0.45320  0.31420  0.34020  1.0000 0.2276735038
C   C201      1.0  0.43060  0.23160  0.84560  1.0000 -0.2005210588
C   C202      1.0  0.56940  0.73160  0.65440  1.0000 -0.2005210588
C   C203      1.0  0.56940  0.76840  0.15440  1.0000 -0.2005210588
C   C204      1.0  0.43060  0.26840  0.34560  1.0000 -0.2005210588
C   C205      1.0  0.50980  0.17310  0.81070  1.0000 -0.2005210588
C   C206      1.0  0.49020  0.67310  0.68930  1.0000 -0.2005210588
C   C207      1.0  0.49020  0.82690  0.18930  1.0000 -0.2005210588
C   C208      1.0  0.50980  0.32690  0.31070  1.0000 -0.2005210588
C   C209      1.0  0.46390  0.26730  0.82000  1.0000 -0.0788203502
C   C210      1.0  0.53610  0.76730  0.68000  1.0000 -0.0788203502
C   C211      1.0  0.53610  0.73270  0.18000  1.0000 -0.0788203502
C   C212      1.0  0.46390  0.23270  0.32000  1.0000 -0.0788203502
C   C213      1.0  0.54320  0.20860  0.78520  1.0000 -0.0788203502
C   C214      1.0  0.45680  0.70860  0.71480  1.0000 -0.0788203502
C   C215      1.0  0.45680  0.79140  0.21480  1.0000 -0.0788203502
C   C216      1.0  0.54320  0.29140  0.28520  1.0000 -0.0788203502
C   C217      1.0  0.52110  0.25578  0.79010  1.0000 -0.041622178
C   C218      1.0  0.47890  0.75578  0.70990  1.0000 -0.041622178
C   C219      1.0  0.47890  0.74422  0.20990  1.0000 -0.041622178
C   C220      1.0  0.52110  0.24422  0.29010  1.0000 -0.041622178
C   C221      1.0  0.55830  0.29325  0.76150  1.0000 0.6070223208
C   C222      1.0  0.44170  0.79325  0.73850  1.0000 0.6070223208
C   C223      1.0  0.44170  0.70675  0.23850  1.0000 0.6070223208
C   C224      1.0  0.55830  0.20675  0.26150  1.0000 0.6070223208
C   C225      1.0  0.29050  0.19401  0.19860  1.0000 0.6510614013
C   C226      1.0  0.70950  0.69401  0.30140  1.0000 0.6510614013
C   C227      1.0  0.70950  0.80599  0.80140  1.0000 0.6510614013
C   C228      1.0  0.29050  0.30599  0.69860  1.0000 0.6510614013
C   C229      1.0  0.26270  0.24441  0.18070  1.0000 -0.041622178
C   C230      1.0  0.73730  0.74441  0.31930  1.0000 -0.041622178
C   C231      1.0  0.73730  0.75559  0.81930  1.0000 -0.041622178
C   C232      1.0  0.26270  0.25559  0.68070  1.0000 -0.041622178
C   C233      1.0  0.31550  0.27350  0.16220  1.0000 -0.0788203502
C   C234      1.0  0.68450  0.77350  0.33780  1.0000 -0.0788203502
C   C235      1.0  0.68450  0.72650  0.83780  1.0000 -0.0788203502
C   C236      1.0  0.31550  0.22650  0.66220  1.0000 -0.0788203502
C   C237      1.0  0.18670  0.26330  0.18560  1.0000 -0.0788203502
C   C238      1.0  0.81330  0.76330  0.31440  1.0000 -0.0788203502
C   C239      1.0  0.81330  0.73670  0.81440  1.0000 -0.0788203502
C   C240      1.0  0.18670  0.23670  0.68560  1.0000 -0.0788203502
C   C241      1.0  0.29500  0.32130  0.15100  1.0000 -0.2005210588
C   C242      1.0  0.70500  0.82130  0.34900  1.0000 -0.2005210588
C   C243      1.0  0.70500  0.67870  0.84900  1.0000 -0.2005210588
C   C244      1.0  0.29500  0.17870  0.65100  1.0000 -0.2005210588
C   C245      1.0  0.16500  0.31030  0.17400  1.0000 -0.190883942
C   C246      1.0  0.83500  0.81030  0.32600  1.0000 -0.190883942
C   C247      1.0  0.83500  0.68970  0.82600  1.0000 -0.190883942
C   C248      1.0  0.16500  0.18970  0.67400  1.0000 -0.190883942
C   C249      1.0  0.22080  0.33905  0.15800  1.0000 0.2276735038
C   C250      1.0  0.77920  0.83905  0.34200  1.0000 0.2276735038
C   C251      1.0  0.77920  0.66095  0.84200  1.0000 0.2276735038
C   C252      1.0  0.22080  0.16095  0.65800  1.0000 0.2276735038
C   C253      1.0  0.25830  0.42115  0.18010  1.0000 0.2276735038
C   C254      1.0  0.74170  0.92115  0.31990  1.0000 0.2276735038
C   C255      1.0  0.74170  0.57885  0.81990  1.0000 0.2276735038
C   C256      1.0  0.25830  0.07885  0.68010  1.0000 0.2276735038
C   C257      1.0  0.32490  0.41240  0.23350  1.0000 -0.209412747
C   C258      1.0  0.67510  0.91240  0.26650  1.0000 -0.209412747
C   C259      1.0  0.67510  0.58760  0.76650  1.0000 -0.209412747
C   C260      1.0  0.32490  0.08760  0.73350  1.0000 -0.209412747
C   C261      1.0  0.24240  0.46641  0.15780  1.0000 -0.2005210588
C   C262      1.0  0.75760  0.96641  0.34220  1.0000 -0.2005210588
C   C263      1.0  0.75760  0.53359  0.84220  1.0000 -0.2005210588
C   C264      1.0  0.24240  0.03359  0.65780  1.0000 -0.2005210588
C   C265      1.0  0.38280  0.44856  0.26270  1.0000 -0.0788203502
C   C266      1.0  0.61720  0.94856  0.23730  1.0000 -0.0788203502
C   C267      1.0  0.61720  0.55144  0.73730  1.0000 -0.0788203502
C   C268      1.0  0.38280  0.05144  0.76270  1.0000 -0.0788203502
C   C269      1.0  0.29930  0.50184  0.18830  1.0000 -0.0788203502
C   C270      1.0  0.70070  0.00184  0.31170  1.0000 -0.0788203502
C   C271      1.0  0.70070  0.49816  0.81170  1.0000 -0.0788203502
C   C272      1.0  0.29930  0.99816  0.68830  1.0000 -0.0788203502
C   C273      1.0  0.37180  0.49371  0.23970  1.0000 -0.0301931696
C   C274      1.0  0.62820  0.99371  0.26030  1.0000 -0.0301931696
C   C275      1.0  0.62820  0.50629  0.76030  1.0000 -0.0301931696
C   C276      1.0  0.37180  0.00629  0.73970  1.0000 -0.0301931696
C   C277      1.0  0.43690  0.53211  0.26810  1.0000 0.6070223208
C   C278      1.0  0.56310  0.03211  0.23190  1.0000 0.6070223208
C   C279      1.0  0.56310  0.46789  0.73190  1.0000 0.6070223208
C   C280      1.0  0.43690  0.96789  0.76810  1.0000 0.6070223208
C   C281      1.0  0.23750  0.05091  0.19890  1.0000 0.6439698394
C   C282      1.0  0.76250  0.55091  0.30110  1.0000 0.6439698394
C   C283      1.0  0.76250  0.94909  0.80110  1.0000 0.6439698394
C   C284      1.0  0.23750  0.44909  0.69890  1.0000 0.6439698394
C   C285      1.0  0.20280  0.00820  0.16040  1.0000 -0.0505595334
C   C286      1.0  0.79720  0.50820  0.33960  1.0000 -0.0505595334
C   C287      1.0  0.79720  0.99180  0.83960  1.0000 -0.0505595334
C   C288      1.0  0.20280  0.49180  0.66040  1.0000 -0.0505595334
C   C289      1.0  0.21400  0.00450  0.10700  1.0000 -0.0712163089
C   C290      1.0  0.78600  0.50450  0.39300  1.0000 -0.0712163089
C   C291      1.0  0.78600  0.99550  0.89300  1.0000 -0.0712163089
C   C292      1.0  0.21400  0.49550  0.60700  1.0000 -0.0712163089
C   C293      1.0  0.16360  0.97190  0.17880  1.0000 -0.0877705801
C   C294      1.0  0.83640  0.47190  0.32120  1.0000 -0.0877705801
C   C295      1.0  0.83640  0.02810  0.82120  1.0000 -0.0877705801
C   C296      1.0  0.16360  0.52810  0.67880  1.0000 -0.0877705801
C   C297      1.0  0.18360  0.96480  0.07180  1.0000 -0.2005210588
C   C298      1.0  0.81640  0.46480  0.42820  1.0000 -0.2005210588
C   C299      1.0  0.81640  0.03520  0.92820  1.0000 -0.2005210588
C   C300      1.0  0.18360  0.53520  0.57180  1.0000 -0.2005210588
C   C301      1.0  0.13700  0.93110  0.14550  1.0000 -0.190883942
C   C302      1.0  0.86300  0.43110  0.35450  1.0000 -0.190883942
C   C303      1.0  0.86300  0.06890  0.85450  1.0000 -0.190883942
C   C304      1.0  0.13700  0.56890  0.64550  1.0000 -0.190883942
C   C305      1.0  0.14640  0.92850  0.09150  1.0000 0.239946098
C   C306      1.0  0.85360  0.42850  0.40850  1.0000 0.239946098
C   C307      1.0  0.85360  0.07150  0.90850  1.0000 0.239946098
C   C308      1.0  0.14640  0.57150  0.59150  1.0000 0.239946098
C   C309      1.0  0.09630  0.88490  0.99840  1.0000 0.2233580468
C   C310      1.0  0.90370  0.38490  0.50160  1.0000 0.2233580468
C   C311      1.0  0.90370  0.11510  0.00160  1.0000 0.2233580468
C   C312      1.0  0.09630  0.61510  0.49840  1.0000 0.2233580468
C   C313      1.0  0.15910  0.87290  0.97440  1.0000 -0.209412747
C   C314      1.0  0.84090  0.37290  0.52560  1.0000 -0.209412747
C   C315      1.0  0.84090  0.12710  0.02560  1.0000 -0.209412747
C   C316      1.0  0.15910  0.62710  0.47440  1.0000 -0.209412747
C   C317      1.0  0.01090  0.89360  0.96400  1.0000 -0.209412747
C   C318      1.0  0.98910  0.39360  0.53600  1.0000 -0.209412747
C   C319      1.0  0.98910  0.10640  0.03600  1.0000 -0.209412747
C   C320      1.0  0.01090  0.60640  0.46400  1.0000 -0.209412747
C   C321      1.0  0.13200  0.86800  0.91220  1.0000 -0.0788203502
C   C322      1.0  0.86800  0.36800  0.58780  1.0000 -0.0788203502
C   C323      1.0  0.86800  0.13200  0.08780  1.0000 -0.0788203502
C   C324      1.0  0.13200  0.63200  0.41220  1.0000 -0.0788203502
C   C325      1.0  0.98220  0.88810  0.90170  1.0000 -0.0712163089
C   C326      1.0  0.01780  0.38810  0.59830  1.0000 -0.0788203502
C   C327      1.0  0.01780  0.11190  0.09830  1.0000 -0.0712163089
C   C328      1.0  0.98220  0.61190  0.40170  1.0000 -0.0712163089
C   C329      1.0  0.04300  0.87500  0.87600  1.0000 -0.041622178
C   C330      1.0  0.95700  0.37500  0.62400  1.0000 -0.041622178
C   C331      1.0  0.95700  0.12500  0.12400  1.0000 -0.041622178
C   C332      1.0  0.04300  0.62500  0.37600  1.0000 -0.041622178
C   C333      1.0  0.01300  0.86962  0.80890  1.0000 0.6510614013
C   C334      1.0  0.98700  0.36962  0.69110  1.0000 0.6510614013
C   C335      1.0  0.98700  0.13038  0.19110  1.0000 0.6510614013
C   C336      1.0  0.01300  0.63038  0.30890  1.0000 0.6510614013
O   O1        1.0  0.15103  0.07773  0.34133  1.0000 -0.6983602737
O   O2        1.0  0.84897  0.57773  0.15867  1.0000 -0.6983602737
O   O3        1.0  0.84897  0.92227  0.65867  1.0000 -0.6983602737
O   O4        1.0  0.15103  0.42227  0.84133  1.0000 -0.6983602737
O   O5        1.0  0.00630  0.08052  0.32930  1.0000 -0.6884035463
O   O6        1.0  0.99370  0.58052  0.17070  1.0000 -0.6884035463
O   O7        1.0  0.99370  0.91948  0.67070  1.0000 -0.6884035463
O   O8        1.0  0.00630  0.41948  0.82930  1.0000 -0.6884035463
O   O9        1.0  0.06520  0.86254  0.37710  1.0000 -0.2201207532
O   O10       1.0  0.93480  0.36254  0.12290  1.0000 -0.2201207532
O   O11       1.0  0.93480  0.13746  0.62290  1.0000 -0.2201207532
O   O12       1.0  0.06520  0.63746  0.87710  1.0000 -0.2201207532
O   O13       1.0  0.30935  0.69256  0.35205  1.0000 -0.5830964093
O   O14       1.0  0.69065  0.19256  0.14795  1.0000 -0.5830964093
O   O15       1.0  0.69065  0.30744  0.64795  1.0000 -0.5830964093
O   O16       1.0  0.30935  0.80744  0.85205  1.0000 -0.5830964093
O   O17       1.0  0.20467  0.69131  0.26177  1.0000 -0.7661328261
O   O18       1.0  0.79533  0.19131  0.23823  1.0000 -0.7661328261
O   O19       1.0  0.79533  0.30869  0.73823  1.0000 -0.7596990649
O   O20       1.0  0.20467  0.80869  0.76177  1.0000 -0.7661328261
O   O21       1.0  0.86046  0.10245  0.37616  1.0000 -0.6298219283
O   O22       1.0  0.13954  0.60245  0.12384  1.0000 -0.6298219283
O   O23       1.0  0.13954  0.89755  0.62384  1.0000 -0.6298219283
O   O24       1.0  0.86046  0.39755  0.87616  1.0000 -0.6298219283
O   O25       1.0  0.73951  0.14139  0.32081  1.0000 -0.6983602737
O   O26       1.0  0.26049  0.64139  0.17919  1.0000 -0.6983602737
O   O27       1.0  0.26049  0.85861  0.67919  1.0000 -0.6983602737
O   O28       1.0  0.73951  0.35861  0.82081  1.0000 -0.6983602737
O   O29       1.0  0.61030  0.08623  0.53120  1.0000 -0.2304993604
O   O30       1.0  0.38970  0.58623  0.96880  1.0000 -0.2304993604
O   O31       1.0  0.38970  0.91377  0.46880  1.0000 -0.2304993604
O   O32       1.0  0.61030  0.41377  0.03120  1.0000 -0.2304993604
O   O33       1.0  0.55110  0.92894  0.69990  1.0000 -0.6520370488
O   O34       1.0  0.44890  0.42894  0.80010  1.0000 -0.6520370488
O   O35       1.0  0.44890  0.07106  0.30010  1.0000 -0.6520370488
O   O36       1.0  0.55110  0.57106  0.19990  1.0000 -0.6520370488
O   O37       1.0  0.64079  0.88905  0.66499  1.0000 -0.6816475038
O   O38       1.0  0.35921  0.38905  0.83501  1.0000 -0.6816475038
O   O39       1.0  0.35921  0.11095  0.33501  1.0000 -0.6816475038
O   O40       1.0  0.64079  0.61095  0.16499  1.0000 -0.6816475038
O   O41       1.0  0.79435  0.08808  0.24255  1.0000 -0.7596990649
O   O42       1.0  0.20565  0.58808  0.25745  1.0000 -0.7596990649
O   O43       1.0  0.20565  0.91192  0.75745  1.0000 -0.7596990649
O   O44       1.0  0.79435  0.41192  0.74255  1.0000 -0.7596990649
O   O45       1.0  0.68875  0.08640  0.15205  1.0000 -0.5906032567
O   O46       1.0  0.31125  0.58640  0.34795  1.0000 -0.5906032567
O   O47       1.0  0.31125  0.91360  0.84795  1.0000 -0.5906032567
O   O48       1.0  0.68875  0.41360  0.65205  1.0000 -0.5906032567
O   O49       1.0  0.91490  0.91261  0.11900  1.0000 -0.2201207532
O   O50       1.0  0.08510  0.41261  0.38100  1.0000 -0.2201207532
O   O51       1.0  0.08510  0.08739  0.88100  1.0000 -0.2201207532
O   O52       1.0  0.91490  0.58739  0.61900  1.0000 -0.2201207532
O   O53       1.0  0.97328  0.69475  0.17958  1.0000 -0.7428807412
O   O54       1.0  0.02672  0.19475  0.32042  1.0000 -0.7428807412
O   O55       1.0  0.02672  0.30525  0.82042  1.0000 -0.7428807412
O   O56       1.0  0.97328  0.80525  0.67958  1.0000 -0.7428807412
O   O57       1.0  0.84800  0.70510  0.19800  1.0000 -0.6520370488
O   O58       1.0  0.15200  0.20510  0.30200  1.0000 -0.6520370488
O   O59       1.0  0.15200  0.29490  0.80200  1.0000 -0.6520370488
O   O60       1.0  0.84800  0.79490  0.69800  1.0000 -0.6520370488
O   O61       1.0  0.51393  0.13831  0.14283  1.0000 -0.7310982341
O   O62       1.0  0.48607  0.63831  0.35717  1.0000 -0.7310982341
O   O63       1.0  0.48607  0.86169  0.85717  1.0000 -0.7310982341
O   O64       1.0  0.51393  0.36169  0.64283  1.0000 -0.7310982341
O   O65       1.0  0.39012  0.09636  0.10542  1.0000 -0.5906032567
O   O66       1.0  0.60988  0.59636  0.39458  1.0000 -0.5906032567
O   O67       1.0  0.60988  0.90364  0.89458  1.0000 -0.5906032567
O   O68       1.0  0.39012  0.40364  0.60542  1.0000 -0.5906032567
O   O69       1.0  0.41490  0.14820  0.86030  1.0000 -0.2304993604
O   O70       1.0  0.58510  0.64820  0.63970  1.0000 -0.2304993604
O   O71       1.0  0.58510  0.85180  0.13970  1.0000 -0.2304993604
O   O72       1.0  0.41490  0.35180  0.36030  1.0000 -0.2304993604
O   O73       1.0  0.61438  0.28160  0.73868  1.0000 -0.5830964093
O   O74       1.0  0.38562  0.78160  0.76132  1.0000 -0.5830964093
O   O75       1.0  0.38562  0.71840  0.26132  1.0000 -0.5830964093
O   O76       1.0  0.61438  0.21840  0.23868  1.0000 -0.5830964093
O   O77       1.0  0.53609  0.33648  0.76269  1.0000 -0.7310982341
O   O78       1.0  0.46391  0.83648  0.73731  1.0000 -0.7310982341
O   O79       1.0  0.46391  0.66352  0.23731  1.0000 -0.7310982341
O   O80       1.0  0.53609  0.16352  0.26269  1.0000 -0.7310982341
O   O81       1.0  0.35241  0.17694  0.18451  1.0000 -0.6401380245
O   O82       1.0  0.64759  0.67694  0.31549  1.0000 -0.6401380245
O   O83       1.0  0.64759  0.82306  0.81549  1.0000 -0.6401380245
O   O84       1.0  0.35241  0.32306  0.68451  1.0000 -0.6401380245
O   O85       1.0  0.25165  0.17274  0.22755  1.0000 -0.6884035463
O   O86       1.0  0.74835  0.67274  0.27245  1.0000 -0.6884035463
O   O87       1.0  0.74835  0.82726  0.77245  1.0000 -0.6884035463
O   O88       1.0  0.25165  0.32726  0.72755  1.0000 -0.6884035463
O   O89       1.0  0.19680  0.38690  0.14650  1.0000 -0.2304993604
O   O90       1.0  0.80320  0.88690  0.35350  1.0000 -0.2304993604
O   O91       1.0  0.80320  0.61310  0.85350  1.0000 -0.2304993604
O   O92       1.0  0.19680  0.11310  0.64650  1.0000 -0.2304993604
O   O93       1.0  0.51626  0.52309  0.29976  1.0000 -0.573563153
O   O94       1.0  0.48374  0.02309  0.20024  1.0000 -0.573563153
O   O95       1.0  0.48374  0.47691  0.70024  1.0000 -0.573563153
O   O96       1.0  0.51626  0.97691  0.79976  1.0000 -0.573563153
O   O97       1.0  0.41026  0.57488  0.25676  1.0000 -0.7310982341
O   O98       1.0  0.58974  0.07488  0.24324  1.0000 -0.7310982341
O   O99       1.0  0.58974  0.42512  0.74324  1.0000 -0.7310982341
O   O100      1.0  0.41026  0.92512  0.75676  1.0000 -0.7310982341
O   O101      1.0  0.29253  0.07658  0.18593  1.0000 -0.6884035463
O   O102      1.0  0.70747  0.57658  0.31407  1.0000 -0.6884035463
O   O103      1.0  0.70747  0.92342  0.81407  1.0000 -0.6884035463
O   O104      1.0  0.29253  0.42342  0.68593  1.0000 -0.6884035463
O   O105      1.0  0.21249  0.05875  0.24149  1.0000 -0.6401380245
O   O106      1.0  0.78751  0.55875  0.25851  1.0000 -0.6401380245
O   O107      1.0  0.78751  0.94125  0.75851  1.0000 -0.6401380245
O   O108      1.0  0.21249  0.44125  0.74149  1.0000 -0.6401380245
O   O109      1.0  0.11930  0.88584  0.06070  1.0000 -0.2398368512
O   O110      1.0  0.88070  0.38584  0.43930  1.0000 -0.2398368512
O   O111      1.0  0.88070  0.11416  0.93930  1.0000 -0.2398368512
O   O112      1.0  0.11930  0.61416  0.56070  1.0000 -0.2398368512
O   O113      1.0  0.07223  0.86290  0.78783  1.0000 -0.6298219283
O   O114      1.0  0.92777  0.36290  0.71217  1.0000 -0.6298219283
O   O115      1.0  0.92777  0.13710  0.21217  1.0000 -0.6298219283
O   O116      1.0  0.07223  0.63710  0.28783  1.0000 -0.6298219283
O   O117      1.0  0.93096  0.87304  0.77956  1.0000 -0.6742672865
O   O118      1.0  0.06904  0.37304  0.72044  1.0000 -0.6742672865
O   O119      1.0  0.06904  0.12696  0.22044  1.0000 -0.6742672865
O   O120      1.0  0.93096  0.62696  0.27956  1.0000 -0.6742672865
O   O121      1.0  0.27810  0.16100  0.39510  1.0000 -0.7428807412
O   O122      1.0  0.72190  0.66100  0.10490  1.0000 -0.7428807412
O   O123      1.0  0.72190  0.83900  0.60490  1.0000 -0.7428807412
O   O124      1.0  0.27810  0.33900  0.89510  1.0000 -0.7428807412
