# DDEC6 charges by PACMAN v1.1 (https://github.com/mtap-research/PACMAN-charge/)
data_2015[Cu][urj]3[ASR]1
_chemical_formula_sum              "Cu16 H88 C184 O72"
_cell_length_a       17.9257
_cell_length_b       17.9257
_cell_length_c       28.0627
_cell_angle_alpha    90
_cell_angle_beta     90
_cell_angle_gamma    90

_symmetry_space_group_name_H-M    "P 1"
_symmetry_Int_Tables_number       1

loop_
  _symmetry_equiv_pos_as_xyz
  'x, y, z'

loop_
  _atom_site_type_symbol
  _atom_site_label
  _atom_site_symmetry_multiplicity
  _atom_site_fract_x
  _atom_site_fract_y
  _atom_site_fract_z
  _atom_site_occupancy
  _atom_site_charge
Cu  Cu1       1.0  0.20944  0.29056  0.22032  1.0000 0.8614944837
Cu  Cu2       1.0  0.70944  0.20944  0.72032  1.0000 0.8614944837
Cu  Cu3       1.0  0.79056  0.70944  0.22032  1.0000 0.8614944837
Cu  Cu4       1.0  0.29056  0.79056  0.72032  1.0000 0.8614944837
Cu  Cu5       1.0  0.20944  0.70944  0.77968  1.0000 0.8614944837
Cu  Cu6       1.0  0.79056  0.29056  0.77968  1.0000 0.8614944837
Cu  Cu7       1.0  0.29056  0.20944  0.27968  1.0000 0.8614944837
Cu  Cu8       1.0  0.70944  0.79056  0.27968  1.0000 0.8614944837
Cu  Cu9       1.0  0.42568  0.50000  0.00000  1.0000 0.8614944837
Cu  Cu10      1.0  0.50000  0.42568  0.50000  1.0000 0.8614944837
Cu  Cu11      1.0  0.57432  0.50000  0.00000  1.0000 0.8614944837
Cu  Cu12      1.0  0.50000  0.57432  0.50000  1.0000 0.8614944837
Cu  Cu13      1.0  0.07432  0.00000  0.50000  1.0000 0.8614944837
Cu  Cu14      1.0  0.00000  0.07432  0.00000  1.0000 0.8614944837
Cu  Cu15      1.0  0.92568  0.00000  0.50000  1.0000 0.8614944837
Cu  Cu16      1.0  0.00000  0.92568  0.00000  1.0000 0.8614944837
H   H1        1.0  0.60330  0.31610  0.09730  1.0000 0.140082474
H   H2        1.0  0.68390  0.60330  0.59730  1.0000 0.140082474
H   H3        1.0  0.39670  0.68390  0.09730  1.0000 0.140082474
H   H4        1.0  0.31610  0.39670  0.59730  1.0000 0.140082474
H   H5        1.0  0.60330  0.68390  0.90270  1.0000 0.140082474
H   H6        1.0  0.39670  0.31610  0.90270  1.0000 0.140082474
H   H7        1.0  0.31610  0.60330  0.40270  1.0000 0.140082474
H   H8        1.0  0.68390  0.39670  0.40270  1.0000 0.140082474
H   H9        1.0  0.89670  0.18390  0.40270  1.0000 0.140082474
H   H10       1.0  0.81610  0.89670  0.90270  1.0000 0.140082474
H   H11       1.0  0.10330  0.81610  0.40270  1.0000 0.140082474
H   H12       1.0  0.18390  0.10330  0.90270  1.0000 0.140082474
H   H13       1.0  0.89670  0.81610  0.59730  1.0000 0.140082474
H   H14       1.0  0.10330  0.18390  0.59730  1.0000 0.140082474
H   H15       1.0  0.18390  0.89670  0.09730  1.0000 0.140082474
H   H16       1.0  0.81610  0.10330  0.09730  1.0000 0.140082474
H   H17       1.0  0.49770  0.21900  0.20740  1.0000 0.1283100679
H   H18       1.0  0.78100  0.49770  0.70740  1.0000 0.1283100679
H   H19       1.0  0.50230  0.78100  0.20740  1.0000 0.1283100679
H   H20       1.0  0.21900  0.50230  0.70740  1.0000 0.1283100679
H   H21       1.0  0.49770  0.78100  0.79260  1.0000 0.1283100679
H   H22       1.0  0.50230  0.21900  0.79260  1.0000 0.1283100679
H   H23       1.0  0.21900  0.49770  0.29260  1.0000 0.1283100679
H   H24       1.0  0.78100  0.50230  0.29260  1.0000 0.1283100679
H   H25       1.0  0.00230  0.28100  0.29260  1.0000 0.1283100679
H   H26       1.0  0.71900  0.00230  0.79260  1.0000 0.1283100679
H   H27       1.0  0.99770  0.71900  0.29260  1.0000 0.1283100679
H   H28       1.0  0.28100  0.99770  0.79260  1.0000 0.1283100679
H   H29       1.0  0.00230  0.71900  0.70740  1.0000 0.1283100679
H   H30       1.0  0.99770  0.28100  0.70740  1.0000 0.1283100679
H   H31       1.0  0.28100  0.00230  0.20740  1.0000 0.1283100679
H   H32       1.0  0.71900  0.99770  0.20740  1.0000 0.1283100679
H   H33       1.0  0.38490  0.35960  0.12060  1.0000 0.140082474
H   H34       1.0  0.64040  0.38490  0.62060  1.0000 0.140082474
H   H35       1.0  0.61510  0.64040  0.12060  1.0000 0.140082474
H   H36       1.0  0.35960  0.61510  0.62060  1.0000 0.140082474
H   H37       1.0  0.38490  0.64040  0.87940  1.0000 0.140082474
H   H38       1.0  0.61510  0.35960  0.87940  1.0000 0.140082474
H   H39       1.0  0.35960  0.38490  0.37940  1.0000 0.140082474
H   H40       1.0  0.64040  0.61510  0.37940  1.0000 0.140082474
H   H41       1.0  0.11510  0.14040  0.37940  1.0000 0.140082474
H   H42       1.0  0.85960  0.11510  0.87940  1.0000 0.140082474
H   H43       1.0  0.88490  0.85960  0.37940  1.0000 0.140082474
H   H44       1.0  0.14040  0.88490  0.87940  1.0000 0.140082474
H   H45       1.0  0.11510  0.85960  0.62060  1.0000 0.140082474
H   H46       1.0  0.88490  0.14040  0.62060  1.0000 0.140082474
H   H47       1.0  0.14040  0.11510  0.12060  1.0000 0.140082474
H   H48       1.0  0.85960  0.88490  0.12060  1.0000 0.140082474
H   H49       1.0  0.64380  0.30320  0.22300  1.0000 0.1192100151
H   H50       1.0  0.69680  0.64380  0.72300  1.0000 0.1192100151
H   H51       1.0  0.35620  0.69680  0.22300  1.0000 0.1192100151
H   H52       1.0  0.30320  0.35620  0.72300  1.0000 0.1192100151
H   H53       1.0  0.64380  0.69680  0.77700  1.0000 0.1192100151
H   H54       1.0  0.35620  0.30320  0.77700  1.0000 0.1192100151
H   H55       1.0  0.30320  0.64380  0.27700  1.0000 0.1192100151
H   H56       1.0  0.69680  0.35620  0.27700  1.0000 0.1192100151
H   H57       1.0  0.85620  0.19680  0.27700  1.0000 0.1192100151
H   H58       1.0  0.80320  0.85620  0.77700  1.0000 0.1192100151
H   H59       1.0  0.14380  0.80320  0.27700  1.0000 0.1192100151
H   H60       1.0  0.19680  0.14380  0.77700  1.0000 0.1192100151
H   H61       1.0  0.85620  0.80320  0.72300  1.0000 0.1192100151
H   H62       1.0  0.14380  0.19680  0.72300  1.0000 0.1192100151
H   H63       1.0  0.19680  0.85620  0.22300  1.0000 0.1192100151
H   H64       1.0  0.80320  0.14380  0.22300  1.0000 0.1192100151
H   H65       1.0  0.59780  0.03500  0.13980  1.0000 0.1105349011
H   H66       1.0  0.96500  0.59780  0.63980  1.0000 0.1105349011
H   H67       1.0  0.40220  0.96500  0.13980  1.0000 0.1105349011
H   H68       1.0  0.03500  0.40220  0.63980  1.0000 0.1105349011
H   H69       1.0  0.59780  0.96500  0.86020  1.0000 0.1105349011
H   H70       1.0  0.40220  0.03500  0.86020  1.0000 0.1105349011
H   H71       1.0  0.03500  0.59780  0.36020  1.0000 0.1105349011
H   H72       1.0  0.96500  0.40220  0.36020  1.0000 0.1105349011
H   H73       1.0  0.90220  0.46500  0.36020  1.0000 0.1105349011
H   H74       1.0  0.53500  0.90220  0.86020  1.0000 0.1105349011
H   H75       1.0  0.09780  0.53500  0.36020  1.0000 0.1105349011
H   H76       1.0  0.46500  0.09780  0.86020  1.0000 0.1105349011
H   H77       1.0  0.90220  0.53500  0.63980  1.0000 0.1105349011
H   H78       1.0  0.09780  0.46500  0.63980  1.0000 0.1105349011
H   H79       1.0  0.46500  0.90220  0.13980  1.0000 0.1105349011
H   H80       1.0  0.53500  0.09780  0.13980  1.0000 0.1105349011
H   H81       1.0  0.55590  0.05530  0.09110  1.0000 0.1192100151
H   H82       1.0  0.94470  0.55590  0.59110  1.0000 0.1192100151
H   H83       1.0  0.44410  0.94470  0.09110  1.0000 0.1192100151
H   H84       1.0  0.05530  0.44410  0.59110  1.0000 0.1192100151
H   H85       1.0  0.55590  0.94470  0.90890  1.0000 0.1192100151
H   H86       1.0  0.44410  0.05530  0.90890  1.0000 0.1192100151
H   H87       1.0  0.05530  0.55590  0.40890  1.0000 0.1192100151
H   H88       1.0  0.94470  0.44410  0.40890  1.0000 0.1192100151
C   C1        1.0  0.49515  0.40254  0.06353  1.0000 0.5848727621
C   C2        1.0  0.59746  0.49515  0.56353  1.0000 0.5851781167
C   C3        1.0  0.50485  0.59746  0.06353  1.0000 0.5848727621
C   C4        1.0  0.40254  0.50485  0.56353  1.0000 0.5851781167
C   C5        1.0  0.49515  0.59746  0.93647  1.0000 0.5848727621
C   C6        1.0  0.50485  0.40254  0.93647  1.0000 0.5851781167
C   C7        1.0  0.40254  0.49515  0.43647  1.0000 0.5851781167
C   C8        1.0  0.59746  0.50485  0.43647  1.0000 0.5851781167
C   C9        1.0  0.00485  0.09746  0.43647  1.0000 0.5851781167
C   C10       1.0  0.90254  0.00485  0.93647  1.0000 0.5851781167
C   C11       1.0  0.99515  0.90254  0.43647  1.0000 0.5851781167
C   C12       1.0  0.09746  0.99515  0.93647  1.0000 0.5851781167
C   C13       1.0  0.00485  0.90254  0.56353  1.0000 0.5851781167
C   C14       1.0  0.99515  0.09746  0.56353  1.0000 0.5851781167
C   C15       1.0  0.09746  0.00485  0.06353  1.0000 0.5848727621
C   C16       1.0  0.90254  0.99515  0.06353  1.0000 0.5848727621
C   C17       1.0  0.49428  0.34646  0.10339  1.0000 -0.0108984673
C   C18       1.0  0.65354  0.49428  0.60339  1.0000 -0.0108984673
C   C19       1.0  0.50572  0.65354  0.10339  1.0000 -0.0108984673
C   C20       1.0  0.34646  0.50572  0.60339  1.0000 -0.0108984673
C   C21       1.0  0.49428  0.65354  0.89661  1.0000 -0.0108984673
C   C22       1.0  0.50572  0.34646  0.89661  1.0000 -0.0108984673
C   C23       1.0  0.34646  0.49428  0.39661  1.0000 -0.0108984673
C   C24       1.0  0.65354  0.50572  0.39661  1.0000 -0.0108984673
C   C25       1.0  0.00572  0.15354  0.39661  1.0000 -0.0108984673
C   C26       1.0  0.84646  0.00572  0.89661  1.0000 -0.0108984673
C   C27       1.0  0.99428  0.84646  0.39661  1.0000 -0.0108984673
C   C28       1.0  0.15354  0.99428  0.89661  1.0000 -0.0108984673
C   C29       1.0  0.00572  0.84646  0.60339  1.0000 -0.0108984673
C   C30       1.0  0.99428  0.15354  0.60339  1.0000 -0.0108984673
C   C31       1.0  0.15354  0.00572  0.10339  1.0000 -0.0108984673
C   C32       1.0  0.84646  0.99428  0.10339  1.0000 -0.0108984673
C   C33       1.0  0.55946  0.30882  0.11568  1.0000 -0.1375456393
C   C34       1.0  0.69118  0.55946  0.61568  1.0000 -0.1375456393
C   C35       1.0  0.44054  0.69118  0.11568  1.0000 -0.1375456393
C   C36       1.0  0.30882  0.44054  0.61568  1.0000 -0.1375456393
C   C37       1.0  0.55946  0.69118  0.88432  1.0000 -0.1375456393
C   C38       1.0  0.44054  0.30882  0.88432  1.0000 -0.1375456393
C   C39       1.0  0.30882  0.55946  0.38432  1.0000 -0.1375456393
C   C40       1.0  0.69118  0.44054  0.38432  1.0000 -0.1375456393
C   C41       1.0  0.94054  0.19118  0.38432  1.0000 -0.1375456393
C   C42       1.0  0.80882  0.94054  0.88432  1.0000 -0.1375456393
C   C43       1.0  0.05946  0.80882  0.38432  1.0000 -0.1375456393
C   C44       1.0  0.19118  0.05946  0.88432  1.0000 -0.1375456393
C   C45       1.0  0.94054  0.80882  0.61568  1.0000 -0.1375456393
C   C46       1.0  0.05946  0.19118  0.61568  1.0000 -0.1375456393
C   C47       1.0  0.19118  0.94054  0.11568  1.0000 -0.1375456393
C   C48       1.0  0.80882  0.05946  0.11568  1.0000 -0.1375456393
C   C49       1.0  0.56114  0.26129  0.15416  1.0000 0.0745581872
C   C50       1.0  0.73871  0.56114  0.65416  1.0000 0.0745581872
C   C51       1.0  0.43886  0.73871  0.15416  1.0000 0.0745581872
C   C52       1.0  0.26129  0.43886  0.65416  1.0000 0.0745581872
C   C53       1.0  0.56114  0.73871  0.84584  1.0000 0.0745581872
C   C54       1.0  0.43886  0.26129  0.84584  1.0000 0.0745581872
C   C55       1.0  0.26129  0.56114  0.34584  1.0000 0.0745581872
C   C56       1.0  0.73871  0.43886  0.34584  1.0000 0.0815859699
C   C57       1.0  0.93886  0.23871  0.34584  1.0000 0.0745581872
C   C58       1.0  0.76129  0.93886  0.84584  1.0000 0.0745581872
C   C59       1.0  0.06114  0.76129  0.34584  1.0000 0.0745581872
C   C60       1.0  0.23871  0.06114  0.84584  1.0000 0.0745581872
C   C61       1.0  0.93886  0.76129  0.65416  1.0000 0.0745581872
C   C62       1.0  0.06114  0.23871  0.65416  1.0000 0.0745581872
C   C63       1.0  0.23871  0.93886  0.15416  1.0000 0.0745581872
C   C64       1.0  0.76129  0.06114  0.15416  1.0000 0.0745581872
C   C65       1.0  0.49671  0.25125  0.18051  1.0000 -0.1535160818
C   C66       1.0  0.74875  0.49671  0.68051  1.0000 -0.1535160818
C   C67       1.0  0.50329  0.74875  0.18051  1.0000 -0.1535160818
C   C68       1.0  0.25125  0.50329  0.68051  1.0000 -0.1535160818
C   C69       1.0  0.49671  0.74875  0.81949  1.0000 -0.1535160818
C   C70       1.0  0.50329  0.25125  0.81949  1.0000 -0.1535160818
C   C71       1.0  0.25125  0.49671  0.31949  1.0000 -0.1535160818
C   C72       1.0  0.74875  0.50329  0.31949  1.0000 -0.1535160818
C   C73       1.0  0.00329  0.24875  0.31949  1.0000 -0.1535160818
C   C74       1.0  0.75125  0.00329  0.81949  1.0000 -0.1535160818
C   C75       1.0  0.99671  0.75125  0.31949  1.0000 -0.1535160818
C   C76       1.0  0.24875  0.99671  0.81949  1.0000 -0.1535160818
C   C77       1.0  0.00329  0.75125  0.68051  1.0000 -0.1535160818
C   C78       1.0  0.99671  0.24875  0.68051  1.0000 -0.1535160818
C   C79       1.0  0.24875  0.00329  0.18051  1.0000 -0.1535160818
C   C80       1.0  0.75125  0.99671  0.18051  1.0000 -0.1535160818
C   C81       1.0  0.42994  0.28741  0.16861  1.0000 -0.0212041218
C   C82       1.0  0.71259  0.42994  0.66861  1.0000 -0.0212041218
C   C83       1.0  0.57006  0.71259  0.16861  1.0000 -0.0212041218
C   C84       1.0  0.28741  0.57006  0.66861  1.0000 -0.0212041218
C   C85       1.0  0.42994  0.71259  0.83139  1.0000 -0.0212041218
C   C86       1.0  0.57006  0.28741  0.83139  1.0000 -0.0212041218
C   C87       1.0  0.28741  0.42994  0.33139  1.0000 -0.0212041218
C   C88       1.0  0.71259  0.57006  0.33139  1.0000 -0.0212041218
C   C89       1.0  0.07006  0.21259  0.33139  1.0000 -0.0212041218
C   C90       1.0  0.78741  0.07006  0.83139  1.0000 -0.0212041218
C   C91       1.0  0.92994  0.78741  0.33139  1.0000 -0.0212041218
C   C92       1.0  0.21259  0.92994  0.83139  1.0000 -0.0212041218
C   C93       1.0  0.07006  0.78741  0.66861  1.0000 -0.0212041218
C   C94       1.0  0.92994  0.21259  0.66861  1.0000 -0.0212041218
C   C95       1.0  0.21259  0.07006  0.16861  1.0000 -0.0212041218
C   C96       1.0  0.78741  0.92994  0.16861  1.0000 -0.0212041218
C   C97       1.0  0.42964  0.33489  0.12951  1.0000 -0.1100529792
C   C98       1.0  0.66511  0.42964  0.62951  1.0000 -0.1100529792
C   C99       1.0  0.57036  0.66511  0.12951  1.0000 -0.1100529792
C   C100      1.0  0.33489  0.57036  0.62951  1.0000 -0.1100529792
C   C101      1.0  0.42964  0.66511  0.87049  1.0000 -0.1100529792
C   C102      1.0  0.57036  0.33489  0.87049  1.0000 -0.1100529792
C   C103      1.0  0.33489  0.42964  0.37049  1.0000 -0.1100529792
C   C104      1.0  0.66511  0.57036  0.37049  1.0000 -0.1100529792
C   C105      1.0  0.07036  0.16511  0.37049  1.0000 -0.1100529792
C   C106      1.0  0.83489  0.07036  0.87049  1.0000 -0.1100529792
C   C107      1.0  0.92964  0.83489  0.37049  1.0000 -0.1100529792
C   C108      1.0  0.16511  0.92964  0.87049  1.0000 -0.1100529792
C   C109      1.0  0.07036  0.83489  0.62951  1.0000 -0.1100529792
C   C110      1.0  0.92964  0.16511  0.62951  1.0000 -0.1100529792
C   C111      1.0  0.16511  0.07036  0.12951  1.0000 -0.1100529792
C   C112      1.0  0.83489  0.92964  0.12951  1.0000 -0.1100529792
C   C113      1.0  0.36205  0.27596  0.19866  1.0000 0.5848727621
C   C114      1.0  0.72404  0.36205  0.69866  1.0000 0.5851781167
C   C115      1.0  0.63795  0.72404  0.19866  1.0000 0.5851781167
C   C116      1.0  0.27596  0.63795  0.69866  1.0000 0.5851781167
C   C117      1.0  0.36205  0.72404  0.80134  1.0000 0.5848727621
C   C118      1.0  0.63795  0.27596  0.80134  1.0000 0.5848727621
C   C119      1.0  0.27596  0.36205  0.30134  1.0000 0.5848727621
C   C120      1.0  0.72404  0.63795  0.30134  1.0000 0.5848727621
C   C121      1.0  0.13795  0.22404  0.30134  1.0000 0.5848727621
C   C122      1.0  0.77596  0.13795  0.80134  1.0000 0.5848727621
C   C123      1.0  0.86205  0.77596  0.30134  1.0000 0.5848727621
C   C124      1.0  0.22404  0.86205  0.80134  1.0000 0.5848727621
C   C125      1.0  0.13795  0.77596  0.69866  1.0000 0.5851781167
C   C126      1.0  0.86205  0.22404  0.69866  1.0000 0.5851781167
C   C127      1.0  0.22404  0.13795  0.19866  1.0000 0.5848727621
C   C128      1.0  0.77596  0.86205  0.19866  1.0000 0.5851781167
C   C129      1.0  0.63230  0.22643  0.17127  1.0000 -0.0212041218
C   C130      1.0  0.77357  0.63230  0.67127  1.0000 -0.0212041218
C   C131      1.0  0.36770  0.77357  0.17127  1.0000 -0.0212041218
C   C132      1.0  0.22643  0.36770  0.67127  1.0000 -0.0212041218
C   C133      1.0  0.63230  0.77357  0.82873  1.0000 -0.0212041218
C   C134      1.0  0.36770  0.22643  0.82873  1.0000 -0.0212041218
C   C135      1.0  0.22643  0.63230  0.32873  1.0000 -0.0212041218
C   C136      1.0  0.77357  0.36770  0.32873  1.0000 -0.0212041218
C   C137      1.0  0.86770  0.27357  0.32873  1.0000 -0.0212041218
C   C138      1.0  0.72643  0.86770  0.82873  1.0000 -0.0212041218
C   C139      1.0  0.13230  0.72643  0.32873  1.0000 -0.0212041218
C   C140      1.0  0.27357  0.13230  0.82873  1.0000 -0.0212041218
C   C141      1.0  0.86770  0.72643  0.67127  1.0000 -0.0212041218
C   C142      1.0  0.13230  0.27357  0.67127  1.0000 -0.0212041218
C   C143      1.0  0.27357  0.86770  0.17127  1.0000 -0.0212041218
C   C144      1.0  0.72643  0.13230  0.17127  1.0000 -0.0212041218
C   C145      1.0  0.66578  0.25977  0.20953  1.0000 -0.1811962125
C   C146      1.0  0.74023  0.66578  0.70953  1.0000 -0.1811962125
C   C147      1.0  0.33422  0.74023  0.20953  1.0000 -0.1811962125
C   C148      1.0  0.25977  0.33422  0.70953  1.0000 -0.1811962125
C   C149      1.0  0.66578  0.74023  0.79047  1.0000 -0.1811962125
C   C150      1.0  0.33422  0.25977  0.79047  1.0000 -0.1811962125
C   C151      1.0  0.25977  0.66578  0.29047  1.0000 -0.1811962125
C   C152      1.0  0.74023  0.33422  0.29047  1.0000 -0.1811962125
C   C153      1.0  0.83422  0.24023  0.29047  1.0000 -0.1811962125
C   C154      1.0  0.75977  0.83422  0.79047  1.0000 -0.1811962125
C   C155      1.0  0.16578  0.75977  0.29047  1.0000 -0.1811962125
C   C156      1.0  0.24023  0.16578  0.79047  1.0000 -0.1811962125
C   C157      1.0  0.83422  0.75977  0.70953  1.0000 -0.1811962125
C   C158      1.0  0.16578  0.24023  0.70953  1.0000 -0.1811962125
C   C159      1.0  0.24023  0.83422  0.20953  1.0000 -0.1811962125
C   C160      1.0  0.75977  0.16578  0.20953  1.0000 -0.1811962125
C   C161      1.0  0.73166  0.23166  0.22946  1.0000 0.0815859699
C   C162      1.0  0.76834  0.73166  0.72946  1.0000 0.0815859699
C   C163      1.0  0.26834  0.76834  0.22946  1.0000 0.0815859699
C   C164      1.0  0.23166  0.26834  0.72946  1.0000 0.0815859699
C   C165      1.0  0.73166  0.76834  0.77054  1.0000 0.0815859699
C   C166      1.0  0.26834  0.23166  0.77054  1.0000 0.0815859699
C   C167      1.0  0.23166  0.73166  0.27054  1.0000 0.0815859699
C   C168      1.0  0.76834  0.26834  0.27054  1.0000 0.0815859699
C   C169      1.0  0.66305  0.16305  0.15143  1.0000 0.140082474
C   C170      1.0  0.83695  0.66305  0.65143  1.0000 0.140082474
C   C171      1.0  0.33695  0.83695  0.15143  1.0000 0.140082474
C   C172      1.0  0.16305  0.33695  0.65143  1.0000 0.140082474
C   C173      1.0  0.66305  0.83695  0.84857  1.0000 0.140082474
C   C174      1.0  0.33695  0.16305  0.84857  1.0000 0.140082474
C   C175      1.0  0.16305  0.66305  0.34857  1.0000 0.140082474
C   C176      1.0  0.83695  0.33695  0.34857  1.0000 0.140082474
C   C177      1.0  0.57540  0.07540  0.12110  1.0000 -0.2401593789
C   C178      1.0  0.92460  0.57540  0.62110  1.0000 -0.2401593789
C   C179      1.0  0.42460  0.92460  0.12110  1.0000 -0.2401593789
C   C180      1.0  0.07540  0.42460  0.62110  1.0000 -0.2401593789
C   C181      1.0  0.57540  0.92460  0.87890  1.0000 -0.2401593789
C   C182      1.0  0.42460  0.07540  0.87890  1.0000 -0.2401593789
C   C183      1.0  0.07540  0.57540  0.37890  1.0000 -0.2401593789
C   C184      1.0  0.92460  0.42460  0.37890  1.0000 -0.2401593789
O   O1        1.0  0.43368  0.43158  0.05319  1.0000 -0.5117005237
O   O2        1.0  0.56842  0.43368  0.55319  1.0000 -0.5117005237
O   O3        1.0  0.56632  0.56842  0.05319  1.0000 -0.5117005237
O   O4        1.0  0.43158  0.56632  0.55319  1.0000 -0.5117005237
O   O5        1.0  0.43368  0.56842  0.94681  1.0000 -0.5117005237
O   O6        1.0  0.56632  0.43158  0.94681  1.0000 -0.5117005237
O   O7        1.0  0.43158  0.43368  0.44681  1.0000 -0.5117005237
O   O8        1.0  0.56842  0.56632  0.44681  1.0000 -0.5117005237
O   O9        1.0  0.06632  0.06842  0.44681  1.0000 -0.5117005237
O   O10       1.0  0.93158  0.06632  0.94681  1.0000 -0.5117005237
O   O11       1.0  0.93368  0.93158  0.44681  1.0000 -0.5117005237
O   O12       1.0  0.06842  0.93368  0.94681  1.0000 -0.5117005237
O   O13       1.0  0.06632  0.93158  0.55319  1.0000 -0.5117005237
O   O14       1.0  0.93368  0.06842  0.55319  1.0000 -0.5117005237
O   O15       1.0  0.06842  0.06632  0.05319  1.0000 -0.5117005237
O   O16       1.0  0.93158  0.93368  0.05319  1.0000 -0.5117005237
O   O17       1.0  0.55701  0.41571  0.04451  1.0000 -0.5239002707
O   O18       1.0  0.58429  0.55701  0.54451  1.0000 -0.5256505385
O   O19       1.0  0.44299  0.58429  0.04451  1.0000 -0.5239002707
O   O20       1.0  0.41571  0.44299  0.54451  1.0000 -0.5256505385
O   O21       1.0  0.55701  0.58429  0.95549  1.0000 -0.5239002707
O   O22       1.0  0.44299  0.41571  0.95549  1.0000 -0.5239002707
O   O23       1.0  0.41571  0.55701  0.45549  1.0000 -0.5256505385
O   O24       1.0  0.58429  0.44299  0.45549  1.0000 -0.5256505385
O   O25       1.0  0.94299  0.08429  0.45549  1.0000 -0.5256505385
O   O26       1.0  0.91571  0.94299  0.95549  1.0000 -0.5239002707
O   O27       1.0  0.05701  0.91571  0.45549  1.0000 -0.5256505385
O   O28       1.0  0.08429  0.05701  0.95549  1.0000 -0.5239002707
O   O29       1.0  0.94299  0.91571  0.54451  1.0000 -0.5256505385
O   O30       1.0  0.05701  0.08429  0.54451  1.0000 -0.5256505385
O   O31       1.0  0.08429  0.94299  0.04451  1.0000 -0.5239002707
O   O32       1.0  0.91571  0.05701  0.04451  1.0000 -0.5239002707
O   O33       1.0  0.30194  0.30585  0.18463  1.0000 -0.5117005237
O   O34       1.0  0.69415  0.30194  0.68463  1.0000 -0.5117005237
O   O35       1.0  0.69806  0.69415  0.18463  1.0000 -0.5117005237
O   O36       1.0  0.30585  0.69806  0.68463  1.0000 -0.5117005237
O   O37       1.0  0.30194  0.69415  0.81537  1.0000 -0.5117005237
O   O38       1.0  0.69806  0.30585  0.81537  1.0000 -0.5117005237
O   O39       1.0  0.30585  0.30194  0.31537  1.0000 -0.5117005237
O   O40       1.0  0.69415  0.69806  0.31537  1.0000 -0.5117005237
O   O41       1.0  0.19806  0.19415  0.31537  1.0000 -0.5117005237
O   O42       1.0  0.80585  0.19806  0.81537  1.0000 -0.5117005237
O   O43       1.0  0.80194  0.80585  0.31537  1.0000 -0.5117005237
O   O44       1.0  0.19415  0.80194  0.81537  1.0000 -0.5117005237
O   O45       1.0  0.19806  0.80585  0.68463  1.0000 -0.5117005237
O   O46       1.0  0.80194  0.19415  0.68463  1.0000 -0.5117005237
O   O47       1.0  0.19415  0.19806  0.18463  1.0000 -0.5117005237
O   O48       1.0  0.80585  0.80194  0.18463  1.0000 -0.5117005237
O   O49       1.0  0.37051  0.23795  0.23556  1.0000 -0.5239002707
O   O50       1.0  0.76205  0.37051  0.73556  1.0000 -0.5239002707
O   O51       1.0  0.62949  0.76205  0.23556  1.0000 -0.5239002707
O   O52       1.0  0.23795  0.62949  0.73556  1.0000 -0.5239002707
O   O53       1.0  0.37051  0.76205  0.76444  1.0000 -0.5239002707
O   O54       1.0  0.62949  0.23795  0.76444  1.0000 -0.5256505385
O   O55       1.0  0.23795  0.37051  0.26444  1.0000 -0.5256505385
O   O56       1.0  0.76205  0.62949  0.26444  1.0000 -0.5256505385
O   O57       1.0  0.12949  0.26205  0.26444  1.0000 -0.5256505385
O   O58       1.0  0.73795  0.12949  0.76444  1.0000 -0.5256505385
O   O59       1.0  0.87051  0.73795  0.26444  1.0000 -0.5256505385
O   O60       1.0  0.26205  0.87051  0.76444  1.0000 -0.5239002707
O   O61       1.0  0.12949  0.73795  0.73556  1.0000 -0.5239002707
O   O62       1.0  0.87051  0.26205  0.73556  1.0000 -0.5239002707
O   O63       1.0  0.26205  0.12949  0.23556  1.0000 -0.5239002707
O   O64       1.0  0.73795  0.87051  0.23556  1.0000 -0.5239002707
O   O65       1.0  0.63040  0.13040  0.11115  1.0000 -0.1735812925
O   O66       1.0  0.86960  0.63040  0.61115  1.0000 -0.1735812925
O   O67       1.0  0.36960  0.86960  0.11115  1.0000 -0.1735812925
O   O68       1.0  0.13040  0.36960  0.61115  1.0000 -0.1735812925
O   O69       1.0  0.63040  0.86960  0.88885  1.0000 -0.1735812925
O   O70       1.0  0.36960  0.13040  0.88885  1.0000 -0.1735812925
O   O71       1.0  0.13040  0.63040  0.38885  1.0000 -0.1735812925
O   O72       1.0  0.86960  0.36960  0.38885  1.0000 -0.1735812925
