# DDEC6 charges by PACMAN v1.1 (https://github.com/mtap-research/PACMAN-charge/)
data_2015[Yb][nan]3[ASR]2
_chemical_formula_sum              "Yb6 H192 C240 N48 O48"
_cell_length_a       24.26
_cell_length_b       24.415
_cell_length_c       24.531
_cell_angle_alpha    83.566
_cell_angle_beta     117.708
_cell_angle_gamma    118.283

_symmetry_space_group_name_H-M    "P 1"
_symmetry_Int_Tables_number       1

loop_
  _symmetry_equiv_pos_as_xyz
  'x, y, z'

loop_
  _atom_site_type_symbol
  _atom_site_label
  _atom_site_symmetry_multiplicity
  _atom_site_fract_x
  _atom_site_fract_y
  _atom_site_fract_z
  _atom_site_occupancy
  _atom_site_charge
Yb  Yb1       1.0  0.15864  0.72001  0.86247  1.0000 1.9786615152
Yb  Yb2       1.0  0.84136  0.27999  0.13753  1.0000 1.9786615152
Yb  Yb3       1.0  0.74312  0.71933  0.26960  1.0000 1.9786615152
Yb  Yb4       1.0  0.25688  0.28067  0.73040  1.0000 1.9786615152
Yb  Yb5       1.0  0.34818  0.14324  0.28875  1.0000 1.9748596925
Yb  Yb6       1.0  0.65182  0.85676  0.71125  1.0000 1.9786615152
H   H1        1.0  0.11770  0.80830  0.71840  1.0000 0.1105202359
H   H2        1.0  0.88230  0.19170  0.28160  1.0000 0.1105202359
H   H3        1.0  0.96640  0.63210  0.69310  1.0000 0.1199540717
H   H4        1.0  0.03360  0.36790  0.30690  1.0000 0.1199540717
H   H5        1.0  0.14310  0.74290  0.01270  1.0000 0.1199540717
H   H6        1.0  0.85690  0.25710  0.98730  1.0000 0.1199540717
H   H7        1.0  0.33070  0.83670  0.01900  1.0000 0.1105202359
H   H8        1.0  0.66930  0.16330  0.98100  1.0000 0.1105202359
H   H9        1.0  0.18680  0.73920  0.71250  1.0000 0.1199540717
H   H10       1.0  0.81320  0.26080  0.28750  1.0000 0.1199540717
H   H11       1.0  0.34500  0.85800  0.86700  1.0000 0.1105202359
H   H12       1.0  0.65500  0.14200  0.13300  1.0000 0.1105202359
H   H13       1.0  0.17530  0.62860  0.00420  1.0000 0.1199540717
H   H14       1.0  0.82470  0.37140  0.99580  1.0000 0.1199540717
H   H15       1.0  0.00460  0.53870  0.84480  1.0000 0.1199540717
H   H16       1.0  0.99540  0.46130  0.15520  1.0000 0.1199540717
H   H17       1.0  0.38780  0.80510  0.97400  1.0000 0.0979761992
H   H18       1.0  0.61220  0.19490  0.02600  1.0000 0.0979761992
H   H19       1.0  0.24970  0.61980  0.93550  1.0000 0.1105202359
H   H20       1.0  0.75030  0.38020  0.06450  1.0000 0.1105202359
H   H21       1.0  0.08190  0.78990  0.92640  1.0000 0.1105202359
H   H22       1.0  0.91810  0.21010  0.07360  1.0000 0.1105202359
H   H23       1.0  0.94400  0.64220  0.79450  1.0000 0.1199540717
H   H24       1.0  0.05600  0.35780  0.20550  1.0000 0.1199540717
H   H25       1.0  0.04590  0.54370  0.75540  1.0000 0.1199540717
H   H26       1.0  0.95410  0.45630  0.24460  1.0000 0.1199540717
H   H27       1.0  0.24900  0.66220  0.80700  1.0000 0.1105202359
H   H28       1.0  0.75100  0.33780  0.19300  1.0000 0.1105202359
H   H29       1.0  0.09020  0.84290  0.80360  1.0000 0.1105202359
H   H30       1.0  0.90980  0.15710  0.19640  1.0000 0.1105202359
H   H31       1.0  0.29500  0.90880  0.92080  1.0000 0.1105202359
H   H32       1.0  0.70500  0.09120  0.07920  1.0000 0.1105202359
H   H33       1.0  0.07040  0.80900  0.61220  1.0000 0.1277957125
H   H34       1.0  0.92960  0.19100  0.38780  1.0000 0.1277957125
H   H35       1.0  0.92160  0.62990  0.58780  1.0000 0.1277957125
H   H36       1.0  0.07840  0.37010  0.41220  1.0000 0.1277957125
H   H37       1.0  0.16630  0.82760  0.06880  1.0000 0.1277957125
H   H38       1.0  0.83370  0.17240  0.93120  1.0000 0.1277957125
H   H39       1.0  0.35930  0.92410  0.07870  1.0000 0.1277957125
H   H40       1.0  0.64070  0.07590  0.92130  1.0000 0.1277957125
H   H41       1.0  0.26690  0.73770  0.68840  1.0000 0.1277957125
H   H42       1.0  0.73310  0.26230  0.31160  1.0000 0.1277957125
H   H43       1.0  0.42710  0.85890  0.84370  1.0000 0.1277957125
H   H44       1.0  0.57290  0.14110  0.15630  1.0000 0.1277957125
H   H45       1.0  0.11340  0.57060  0.05840  1.0000 0.1199540717
H   H46       1.0  0.88660  0.42940  0.94160  1.0000 0.1199540717
H   H47       1.0  0.94010  0.48270  0.89560  1.0000 0.1277957125
H   H48       1.0  0.05990  0.51730  0.10440  1.0000 0.1277957125
H   H49       1.0  0.46610  0.78960  0.06430  1.0000 0.1277957125
H   H50       1.0  0.53390  0.21040  0.93570  1.0000 0.1277957125
H   H51       1.0  0.32910  0.60350  0.02540  1.0000 0.1277957125
H   H52       1.0  0.67090  0.39650  0.97460  1.0000 0.1277957125
H   H53       1.0  0.00550  0.83160  0.88670  1.0000 0.1277957125
H   H54       1.0  0.99450  0.16840  0.11330  1.0000 0.1277957125
H   H55       1.0  0.86360  0.68180  0.75260  1.0000 0.1277957125
H   H56       1.0  0.13640  0.31820  0.24740  1.0000 0.1277957125
H   H57       1.0  0.06420  0.45880  0.75900  1.0000 0.1277957125
H   H58       1.0  0.93580  0.54120  0.24100  1.0000 0.1277957125
H   H59       1.0  0.27150  0.57920  0.81260  1.0000 0.1199540717
H   H60       1.0  0.72850  0.42080  0.18740  1.0000 0.1199540717
H   H61       1.0  0.11540  0.93330  0.75560  1.0000 0.1277957125
H   H62       1.0  0.88460  0.06670  0.24440  1.0000 0.1277957125
H   H63       1.0  0.32330  0.99970  0.87560  1.0000 0.1277957125
H   H64       1.0  0.67670  0.00030  0.12440  1.0000 0.1277957125
H   H65       1.0  0.98770  0.81740  0.52680  1.0000 0.1199540717
H   H66       1.0  0.01230  0.18260  0.47320  1.0000 0.1199540717
H   H67       1.0  0.90820  0.63080  0.48840  1.0000 0.1277957125
H   H68       1.0  0.09180  0.36920  0.51160  1.0000 0.1277957125
H   H69       1.0  0.18580  0.94050  0.05650  1.0000 0.1277957125
H   H70       1.0  0.81420  0.05950  0.94350  1.0000 0.1277957125
H   H71       1.0  0.37870  0.96350  0.17800  1.0000 0.1277957125
H   H72       1.0  0.62130  0.03650  0.82200  1.0000 0.1277957125
H   H73       1.0  0.48940  0.82460  0.83880  1.0000 0.1277957125
H   H74       1.0  0.51060  0.17540  0.16120  1.0000 0.1277957125
H   H75       1.0  0.34960  0.76640  0.65810  1.0000 0.1277957125
H   H76       1.0  0.65040  0.23360  0.34190  1.0000 0.1277957125
H   H77       1.0  0.44390  0.60470  0.06790  1.0000 0.1277957125
H   H78       1.0  0.55610  0.39530  0.93210  1.0000 0.1277957125
H   H79       1.0  0.49560  0.75530  0.17200  1.0000 0.1277957125
H   H80       1.0  0.50440  0.24470  0.82800  1.0000 0.1277957125
H   H81       1.0  0.80250  0.72750  0.70940  1.0000 0.1277957125
H   H82       1.0  0.19750  0.27250  0.29060  1.0000 0.1277957125
H   H83       1.0  0.93950  0.86530  0.85570  1.0000 0.1199540717
H   H84       1.0  0.06050  0.13470  0.14430  1.0000 0.1199540717
H   H85       1.0  0.08790  0.39190  0.72600  1.0000 0.1277957125
H   H86       1.0  0.91210  0.60810  0.27400  1.0000 0.1277957125
H   H87       1.0  0.28900  0.50150  0.85520  1.0000 0.1277957125
H   H88       1.0  0.71100  0.49850  0.14480  1.0000 0.1277957125
H   H89       1.0  0.15100  0.00180  0.69700  1.0000 0.1277957125
H   H90       1.0  0.84900  0.99820  0.30300  1.0000 0.1277957125
H   H91       1.0  0.33120  0.09230  0.85760  1.0000 0.1277957125
H   H92       1.0  0.66880  0.90770  0.14240  1.0000 0.1277957125
H   H93       1.0  0.93480  0.82290  0.42200  1.0000 0.1105202359
H   H94       1.0  0.06520  0.17710  0.57800  1.0000 0.1105202359
H   H95       1.0  0.85710  0.63890  0.38330  1.0000 0.1199540717
H   H96       1.0  0.14290  0.36110  0.61670  1.0000 0.1199540717
H   H97       1.0  0.21370  0.03490  0.10340  1.0000 0.1105202359
H   H98       1.0  0.78630  0.96510  0.89660  1.0000 0.1105202359
H   H99       1.0  0.40400  0.05540  0.22680  1.0000 0.1199540717
H   H100      1.0  0.59600  0.94460  0.77320  1.0000 0.1199540717
H   H101      1.0  0.56940  0.81200  0.82130  1.0000 0.1105202359
H   H102      1.0  0.43060  0.18800  0.17870  1.0000 0.1105202359
H   H103      1.0  0.43100  0.75600  0.64270  1.0000 0.1105202359
H   H104      1.0  0.56900  0.24400  0.35730  1.0000 0.1105202359
H   H105      1.0  0.53630  0.59380  0.14930  1.0000 0.1105202359
H   H106      1.0  0.46370  0.40620  0.85070  1.0000 0.1105202359
H   H107      1.0  0.58350  0.73900  0.25340  1.0000 0.1199540717
H   H108      1.0  0.41650  0.26100  0.74660  1.0000 0.1199540717
H   H109      1.0  0.73280  0.77630  0.66900  1.0000 0.1199540717
H   H110      1.0  0.26720  0.22370  0.33100  1.0000 0.1199540717
H   H111      1.0  0.86690  0.91210  0.81340  1.0000 0.1105202359
H   H112      1.0  0.13310  0.08790  0.18660  1.0000 0.1105202359
H   H113      1.0  0.11360  0.31170  0.73200  1.0000 0.1199540717
H   H114      1.0  0.88640  0.68830  0.26800  1.0000 0.1199540717
H   H115      1.0  0.31290  0.42050  0.85790  1.0000 0.1105202359
H   H116      1.0  0.68710  0.57950  0.14210  1.0000 0.1105202359
H   H117      1.0  0.17650  0.09600  0.65770  1.0000 0.1105202359
H   H118      1.0  0.82350  0.90400  0.34230  1.0000 0.1105202359
H   H119      1.0  0.35370  0.18440  0.81700  1.0000 0.1105202359
H   H120      1.0  0.64630  0.81560  0.18300  1.0000 0.1105202359
H   H121      1.0  0.82390  0.81670  0.43350  1.0000 0.1105202359
H   H122      1.0  0.17610  0.18330  0.56650  1.0000 0.1105202359
H   H123      1.0  0.63580  0.66480  0.36560  1.0000 0.1199540717
H   H124      1.0  0.36420  0.33520  0.63440  1.0000 0.1199540717
H   H125      1.0  0.85680  0.78300  0.18780  1.0000 0.1105202359
H   H126      1.0  0.14320  0.21700  0.81220  1.0000 0.1105202359
H   H127      1.0  0.93200  0.89900  0.33600  1.0000 0.1105202359
H   H128      1.0  0.06800  0.10100  0.66400  1.0000 0.1105202359
H   H129      1.0  0.60830  0.64970  0.07660  1.0000 0.1105202359
H   H130      1.0  0.39170  0.35030  0.92340  1.0000 0.1105202359
H   H131      1.0  0.75200  0.82730  0.14500  1.0000 0.1105202359
H   H132      1.0  0.24800  0.17270  0.85500  1.0000 0.1105202359
H   H133      1.0  0.60570  0.53600  0.20920  1.0000 0.1105202359
H   H134      1.0  0.39430  0.46400  0.79080  1.0000 0.1105202359
H   H135      1.0  0.72920  0.59240  0.39070  1.0000 0.1199540717
H   H136      1.0  0.27080  0.40760  0.60930  1.0000 0.1199540717
H   H137      1.0  0.54670  0.79500  0.52110  1.0000 0.1105202359
H   H138      1.0  0.45330  0.20500  0.47890  1.0000 0.1105202359
H   H139      1.0  0.74980  0.91700  0.61390  1.0000 0.1105202359
H   H140      1.0  0.25020  0.08300  0.38610  1.0000 0.1105202359
H   H141      1.0  0.47070  0.84470  0.56730  1.0000 0.1199540717
H   H142      1.0  0.52930  0.15530  0.43270  1.0000 0.1199540717
H   H143      1.0  0.62550  0.00470  0.67210  1.0000 0.1199540717
H   H144      1.0  0.37450  0.99530  0.32790  1.0000 0.1199540717
H   H145      1.0  0.79360  0.85850  0.48750  1.0000 0.1199540717
H   H146      1.0  0.20640  0.14150  0.51250  1.0000 0.1199540717
H   H147      1.0  0.60030  0.70690  0.41670  1.0000 0.1277957125
H   H148      1.0  0.39970  0.29310  0.58330  1.0000 0.1277957125
H   H149      1.0  0.96780  0.83270  0.19130  1.0000 0.1277957125
H   H150      1.0  0.03220  0.16730  0.80870  1.0000 0.1277957125
H   H151      1.0  0.04760  0.94590  0.34630  1.0000 0.1277957125
H   H152      1.0  0.95240  0.05410  0.65370  1.0000 0.1277957125
H   H153      1.0  0.61470  0.66390  0.98490  1.0000 0.1277957125
H   H154      1.0  0.38530  0.33610  0.01510  1.0000 0.1277957125
H   H155      1.0  0.76250  0.84410  0.05550  1.0000 0.1277957125
H   H156      1.0  0.23750  0.15590  0.94450  1.0000 0.1277957125
H   H157      1.0  0.52180  0.45030  0.22680  1.0000 0.1277957125
H   H158      1.0  0.47820  0.54970  0.77320  1.0000 0.1277957125
H   H159      1.0  0.64740  0.50780  0.41090  1.0000 0.1277957125
H   H160      1.0  0.35260  0.49220  0.58910  1.0000 0.1277957125
H   H161      1.0  0.56850  0.75160  0.45800  1.0000 0.1277957125
H   H162      1.0  0.43150  0.24840  0.54200  1.0000 0.1277957125
H   H163      1.0  0.77530  0.87940  0.55260  1.0000 0.1277957125
H   H164      1.0  0.22470  0.12060  0.44740  1.0000 0.1277957125
H   H165      1.0  0.43690  0.89430  0.48330  1.0000 0.1277957125
H   H166      1.0  0.56310  0.10570  0.51670  1.0000 0.1277957125
H   H167      1.0  0.59470  0.05890  0.58920  1.0000 0.1277957125
H   H168      1.0  0.40530  0.94110  0.41080  1.0000 0.1277957125
H   H169      1.0  0.05080  0.93200  0.17650  1.0000 0.1199540717
H   H170      1.0  0.94920  0.06800  0.82350  1.0000 0.1277957125
H   H171      1.0  0.15050  0.93370  0.36280  1.0000 0.1277957125
H   H172      1.0  0.84950  0.06630  0.63720  1.0000 0.1277957125
H   H173      1.0  0.59660  0.69380  0.89470  1.0000 0.1277957125
H   H174      1.0  0.40340  0.30620  0.10530  1.0000 0.1277957125
H   H175      1.0  0.79280  0.84070  0.98530  1.0000 0.1277957125
H   H176      1.0  0.20720  0.15930  0.01470  1.0000 0.1277957125
H   H177      1.0  0.43350  0.40570  0.26370  1.0000 0.1277957125
H   H178      1.0  0.56650  0.59430  0.73630  1.0000 0.1277957125
H   H179      1.0  0.59830  0.39320  0.40740  1.0000 0.1277957125
H   H180      1.0  0.40170  0.60680  0.59260  1.0000 0.1277957125
H   H181      1.0  0.16130  0.99150  0.17980  1.0000 0.1105202359
H   H182      1.0  0.83870  0.00850  0.82020  1.0000 0.1105202359
H   H183      1.0  0.25920  0.98890  0.36190  1.0000 0.1199540717
H   H184      1.0  0.74080  0.01110  0.63810  1.0000 0.1199540717
H   H185      1.0  0.60160  0.71380  0.80360  1.0000 0.1105202359
H   H186      1.0  0.39840  0.28620  0.19640  1.0000 0.1105202359
H   H187      1.0  0.79600  0.85710  0.89170  1.0000 0.1105202359
H   H188      1.0  0.20400  0.14290  0.10830  1.0000 0.1105202359
H   H189      1.0  0.35650  0.31050  0.27700  1.0000 0.1199540717
H   H190      1.0  0.64350  0.68950  0.72300  1.0000 0.1199540717
H   H191      1.0  0.51900  0.29510  0.41470  1.0000 0.1105202359
H   H192      1.0  0.48100  0.70490  0.58530  1.0000 0.1105202359
C   C1        1.0  0.07560  0.77260  0.69110  1.0000 -0.0699802921
C   C2        1.0  0.92440  0.22740  0.30890  1.0000 -0.0699802921
C   C3        1.0  0.98700  0.66870  0.67630  1.0000 -0.0600603159
C   C4        1.0  0.01300  0.33130  0.32370  1.0000 -0.0600603159
C   C5        1.0  0.18690  0.78060  0.02530  1.0000 -0.0600603159
C   C6        1.0  0.81310  0.21940  0.97470  1.0000 -0.0600603159
C   C7        1.0  0.29690  0.83540  0.02920  1.0000 -0.0515423873
C   C8        1.0  0.70310  0.16460  0.97080  1.0000 -0.0600603159
C   C9        1.0  0.23630  0.76250  0.73980  1.0000 -0.0600603159
C   C10       1.0  0.76370  0.23750  0.26020  1.0000 -0.0600603159
C   C11       1.0  0.32950  0.83270  0.83080  1.0000 -0.0515423873
C   C12       1.0  0.67050  0.16730  0.16920  1.0000 -0.0515423873
C   C13       1.0  0.12690  0.59760  0.98200  1.0000 -0.0515423873
C   C14       1.0  0.87310  0.40240  0.01800  1.0000 -0.0515423873
C   C15       1.0  0.02710  0.54550  0.88900  1.0000 -0.0600603159
C   C16       1.0  0.97290  0.45450  0.11100  1.0000 -0.0600603159
C   C17       1.0  0.37590  0.76390  0.98500  1.0000 -0.0699802921
C   C18       1.0  0.62410  0.23610  0.01500  1.0000 -0.0699802921
C   C19       1.0  0.29420  0.65420  0.96200  1.0000 -0.0600603159
C   C20       1.0  0.70580  0.34580  0.03800  1.0000 -0.0600603159
C   C21       1.0  0.03740  0.76790  0.89050  1.0000 -0.0515423873
C   C22       1.0  0.96260  0.23210  0.10950  1.0000 -0.0515423873
C   C23       1.0  0.95610  0.68100  0.81300  1.0000 -0.0600603159
C   C24       1.0  0.04390  0.31900  0.18700  1.0000 -0.0600603159
C   C25       1.0  0.09230  0.55060  0.76750  1.0000 -0.0600603159
C   C26       1.0  0.90770  0.44940  0.23250  1.0000 -0.0600603159
C   C27       1.0  0.21160  0.62030  0.79790  1.0000 -0.0699802921
C   C28       1.0  0.78840  0.37970  0.20210  1.0000 -0.0699802921
C   C29       1.0  0.13790  0.87520  0.81800  1.0000 -0.0699802921
C   C30       1.0  0.86210  0.12480  0.18200  1.0000 -0.0699802921
C   C31       1.0  0.25820  0.91420  0.88680  1.0000 -0.0515423873
C   C32       1.0  0.74180  0.08580  0.11320  1.0000 -0.0515423873
C   C33       1.0  0.04780  0.77270  0.62820  1.0000 -0.1899862319
C   C34       1.0  0.95220  0.22730  0.37180  1.0000 -0.1899862319
C   C35       1.0  0.96020  0.66780  0.61420  1.0000 -0.1899862319
C   C36       1.0  0.03980  0.33220  0.38580  1.0000 -0.1899862319
C   C37       1.0  0.20100  0.83080  0.05880  1.0000 -0.1899862319
C   C38       1.0  0.79900  0.16920  0.94120  1.0000 -0.1899862319
C   C39       1.0  0.31410  0.88780  0.06460  1.0000 -0.1992551274
C   C40       1.0  0.68590  0.11220  0.93540  1.0000 -0.1992551274
C   C41       1.0  0.28380  0.76230  0.72560  1.0000 -0.1837387252
C   C42       1.0  0.71620  0.23770  0.27440  1.0000 -0.1837387252
C   C43       1.0  0.37790  0.83330  0.81680  1.0000 -0.1992551274
C   C44       1.0  0.62210  0.16670  0.18320  1.0000 -0.1992551274
C   C45       1.0  0.08980  0.56300  0.01420  1.0000 -0.1992551274
C   C46       1.0  0.91020  0.43700  0.98580  1.0000 -0.1992551274
C   C47       1.0  0.98910  0.51170  0.91910  1.0000 -0.1992551274
C   C48       1.0  0.01090  0.48830  0.08090  1.0000 -0.1992551274
C   C49       1.0  0.42260  0.75440  0.03790  1.0000 -0.1899862319
C   C50       1.0  0.57740  0.24560  0.96210  1.0000 -0.1899862319
C   C51       1.0  0.34140  0.64480  0.01480  1.0000 -0.1899862319
C   C52       1.0  0.65860  0.35520  0.98520  1.0000 -0.1899862319
C   C53       1.0  0.99190  0.79270  0.86700  1.0000 -0.1992551274
C   C54       1.0  0.00810  0.20730  0.13300  1.0000 -0.1992551274
C   C55       1.0  0.90840  0.70460  0.78800  1.0000 -0.1899862319
C   C56       1.0  0.09160  0.29540  0.21200  1.0000 -0.1899862319
C   C57       1.0  0.10290  0.50010  0.76940  1.0000 -0.1899862319
C   C58       1.0  0.89710  0.49990  0.23060  1.0000 -0.1899862319
C   C59       1.0  0.22480  0.57100  0.80090  1.0000 -0.1837387252
C   C60       1.0  0.77520  0.42900  0.19910  1.0000 -0.1837387252
C   C61       1.0  0.15310  0.92940  0.78990  1.0000 -0.1899862319
C   C62       1.0  0.84690  0.07060  0.21010  1.0000 -0.1899862319
C   C63       1.0  0.27510  0.96820  0.86040  1.0000 -0.1992551274
C   C64       1.0  0.72490  0.03180  0.13960  1.0000 -0.1992551274
C   C65       1.0  0.98750  0.72090  0.58760  1.0000 0.0908714965
C   C66       1.0  0.01250  0.27910  0.41240  1.0000 0.0908714965
C   C67       1.0  0.26370  0.88540  0.07860  1.0000 0.0979761992
C   C68       1.0  0.73630  0.11460  0.92140  1.0000 0.0979761992
C   C69       1.0  0.35660  0.79680  0.76360  1.0000 0.0908714965
C   C70       1.0  0.64340  0.20320  0.23640  1.0000 0.0908714965
C   C71       1.0  0.02050  0.51860  0.98370  1.0000 0.0908714965
C   C72       1.0  0.97950  0.48140  0.01630  1.0000 0.0908714965
C   C73       1.0  0.40890  0.69540  0.05460  1.0000 0.0908714965
C   C74       1.0  0.59110  0.30460  0.94540  1.0000 0.0908714965
C   C75       1.0  0.92680  0.76200  0.81520  1.0000 0.0908714965
C   C76       1.0  0.07320  0.23800  0.18480  1.0000 0.0908714965
C   C77       1.0  0.17080  0.50910  0.78690  1.0000 0.0908714965
C   C78       1.0  0.82920  0.49090  0.21310  1.0000 0.0908714965
C   C79       1.0  0.22090  0.97710  0.81050  1.0000 0.0908714965
C   C80       1.0  0.77910  0.02290  0.18950  1.0000 0.0908714965
C   C81       1.0  0.95450  0.72380  0.52040  1.0000 0.0908714965
C   C82       1.0  0.04550  0.27620  0.47960  1.0000 0.0908714965
C   C83       1.0  0.27920  0.94370  0.11130  1.0000 0.0908714965
C   C84       1.0  0.72080  0.05630  0.88870  1.0000 0.0908714965
C   C85       1.0  0.40890  0.79320  0.75070  1.0000 0.0908714965
C   C86       1.0  0.59110  0.20680  0.24930  1.0000 0.0908714965
C   C87       1.0  0.46200  0.68380  0.10980  1.0000 0.0908714965
C   C88       1.0  0.53800  0.31620  0.89020  1.0000 0.0908714965
C   C89       1.0  0.87890  0.79100  0.78760  1.0000 0.0908714965
C   C90       1.0  0.12110  0.20900  0.21240  1.0000 0.0908714965
C   C91       1.0  0.18640  0.45720  0.78980  1.0000 0.0908714965
C   C92       1.0  0.81360  0.54280  0.21020  1.0000 0.0908714965
C   C93       1.0  0.23780  0.03620  0.78280  1.0000 0.0908714965
C   C94       1.0  0.76220  0.96380  0.21720  1.0000 0.0908714965
C   C95       1.0  0.96080  0.78010  0.49810  1.0000 -0.1899862319
C   C96       1.0  0.03920  0.21990  0.50190  1.0000 -0.1899862319
C   C97       1.0  0.91420  0.67050  0.47550  1.0000 -0.1899862319
C   C98       1.0  0.08580  0.32950  0.52450  1.0000 -0.1899862319
C   C99       1.0  0.23140  0.96440  0.09070  1.0000 -0.1899862319
C   C100      1.0  0.76860  0.03560  0.90930  1.0000 -0.1899862319
C   C101      1.0  0.34450  0.97770  0.16240  1.0000 -0.1899862319
C   C102      1.0  0.65550  0.02230  0.83760  1.0000 -0.1899862319
C   C103      1.0  0.47600  0.80920  0.79830  1.0000 -0.1992551274
C   C104      1.0  0.52400  0.19080  0.20170  1.0000 -0.1992551274
C   C105      1.0  0.39430  0.77530  0.69260  1.0000 -0.1899862319
C   C106      1.0  0.60570  0.22470  0.30740  1.0000 -0.1899862319
C   C107      1.0  0.47360  0.63380  0.10500  1.0000 -0.1899862319
C   C108      1.0  0.52640  0.36620  0.89500  1.0000 -0.1899862319
C   C109      1.0  0.50350  0.72220  0.16650  1.0000 -0.1899862319
C   C110      1.0  0.49650  0.27780  0.83350  1.0000 -0.1899862319
C   C111      1.0  0.81660  0.76540  0.73120  1.0000 -0.1837387252
C   C112      1.0  0.18340  0.23460  0.26880  1.0000 -0.1837387252
C   C113      1.0  0.89710  0.84640  0.81740  1.0000 -0.1992551274
C   C114      1.0  0.10290  0.15360  0.18260  1.0000 -0.1992551274
C   C115      1.0  0.13460  0.39860  0.75350  1.0000 -0.1899862319
C   C116      1.0  0.86540  0.60140  0.24650  1.0000 -0.1899862319
C   C117      1.0  0.25240  0.46300  0.82890  1.0000 -0.1899862319
C   C118      1.0  0.74760  0.53700  0.17110  1.0000 -0.1899862319
C   C119      1.0  0.19260  0.03900  0.72220  1.0000 -0.1899862319
C   C120      1.0  0.80740  0.96100  0.27780  1.0000 -0.1899862319
C   C121      1.0  0.29850  0.09240  0.81660  1.0000 -0.1837387252
C   C122      1.0  0.70150  0.90760  0.18340  1.0000 -0.1837387252
C   C123      1.0  0.92930  0.78360  0.43600  1.0000 -0.0699802921
C   C124      1.0  0.07070  0.21640  0.56400  1.0000 -0.0699802921
C   C125      1.0  0.88330  0.67520  0.41320  1.0000 -0.0515423873
C   C126      1.0  0.11670  0.32480  0.58680  1.0000 -0.0515423873
C   C127      1.0  0.24760  0.02040  0.11870  1.0000 -0.0859349143
C   C128      1.0  0.75240  0.97960  0.88130  1.0000 -0.0859349143
C   C129      1.0  0.35970  0.03260  0.19080  1.0000 -0.0600603159
C   C130      1.0  0.64030  0.96740  0.80920  1.0000 -0.0600603159
C   C131      1.0  0.52400  0.80290  0.78780  1.0000 -0.0600603159
C   C132      1.0  0.47600  0.19710  0.21220  1.0000 -0.0600603159
C   C133      1.0  0.44280  0.76990  0.68320  1.0000 -0.0600603159
C   C134      1.0  0.55720  0.23010  0.31680  1.0000 -0.0600603159
C   C135      1.0  0.52750  0.62670  0.15340  1.0000 -0.0515423873
C   C136      1.0  0.47250  0.37330  0.84660  1.0000 -0.0515423873
C   C137      1.0  0.55570  0.71280  0.21460  1.0000 -0.0515423873
C   C138      1.0  0.44430  0.28720  0.78540  1.0000 -0.0515423873
C   C139      1.0  0.77550  0.79450  0.70720  1.0000 -0.0600603159
C   C140      1.0  0.22450  0.20550  0.29280  1.0000 -0.0600603159
C   C141      1.0  0.85430  0.87460  0.79200  1.0000 -0.0699802921
C   C142      1.0  0.14570  0.12540  0.20800  1.0000 -0.0699802921
C   C143      1.0  0.14980  0.35110  0.75690  1.0000 -0.0515423873
C   C144      1.0  0.85020  0.64890  0.24310  1.0000 -0.0515423873
C   C145      1.0  0.26660  0.41470  0.83090  1.0000 -0.0600603159
C   C146      1.0  0.73340  0.58530  0.16910  1.0000 -0.0600603159
C   C147      1.0  0.20780  0.09470  0.69900  1.0000 -0.0600603159
C   C148      1.0  0.79220  0.90530  0.30100  1.0000 -0.0600603159
C   C149      1.0  0.31210  0.14680  0.79260  1.0000 -0.0515423873
C   C150      1.0  0.68790  0.85320  0.20740  1.0000 -0.0515423873
C   C151      1.0  0.77840  0.79340  0.43150  1.0000 -0.0600603159
C   C152      1.0  0.22160  0.20660  0.56850  1.0000 -0.0600603159
C   C153      1.0  0.66810  0.70450  0.39100  1.0000 -0.0336433534
C   C154      1.0  0.33190  0.29550  0.60900  1.0000 -0.0336433534
C   C155      1.0  0.89530  0.81780  0.21870  1.0000 -0.0600603159
C   C156      1.0  0.10470  0.18220  0.78130  1.0000 -0.0600603159
C   C157      1.0  0.93990  0.88550  0.30670  1.0000 -0.0699802921
C   C158      1.0  0.06010  0.11450  0.69330  1.0000 -0.0699802921
C   C159      1.0  0.63930  0.68980  0.07150  1.0000 -0.0600603159
C   C160      1.0  0.36070  0.31020  0.92850  1.0000 -0.0600603159
C   C161      1.0  0.72380  0.79380  0.11170  1.0000 -0.0600603159
C   C162      1.0  0.27620  0.20620  0.88830  1.0000 -0.0600603159
C   C163      1.0  0.61410  0.52930  0.25060  1.0000 -0.0600603159
C   C164      1.0  0.38590  0.47070  0.74940  1.0000 -0.0515423873
C   C165      1.0  0.68670  0.56250  0.35720  1.0000 -0.0515423873
C   C166      1.0  0.31330  0.43750  0.64280  1.0000 -0.0515423873
C   C167      1.0  0.59380  0.81140  0.52770  1.0000 -0.0336433534
C   C168      1.0  0.40620  0.18860  0.47230  1.0000 -0.0336433534
C   C169      1.0  0.71270  0.88300  0.58160  1.0000 -0.0515423873
C   C170      1.0  0.28730  0.11700  0.41840  1.0000 -0.0515423873
C   C171      1.0  0.49570  0.88920  0.57190  1.0000 -0.0600603159
C   C172      1.0  0.50430  0.11080  0.42810  1.0000 -0.0600603159
C   C173      1.0  0.58590  0.98230  0.63310  1.0000 -0.0446509455
C   C174      1.0  0.41410  0.01770  0.36690  1.0000 -0.0446509455
C   C175      1.0  0.76040  0.81840  0.46310  1.0000 -0.1899862319
C   C176      1.0  0.23960  0.18160  0.53690  1.0000 -0.1899862319
C   C177      1.0  0.64730  0.72930  0.42200  1.0000 -0.1992551274
C   C178      1.0  0.35270  0.27070  0.57800  1.0000 -0.1992551274
C   C179      1.0  0.96160  0.84650  0.22180  1.0000 -0.1899862319
C   C180      1.0  0.03840  0.15350  0.77820  1.0000 -0.1899862319
C   C181      1.0  0.00890  0.91410  0.31250  1.0000 -0.1992551274
C   C182      1.0  0.99110  0.08590  0.68750  1.0000 -0.1992551274
C   C183      1.0  0.64370  0.69800  0.01760  1.0000 -0.1899862319
C   C184      1.0  0.35630  0.30200  0.98240  1.0000 -0.1899862319
C   C185      1.0  0.73010  0.80380  0.05890  1.0000 -0.1837387252
C   C186      1.0  0.26990  0.19620  0.94110  1.0000 -0.1837387252
C   C187      1.0  0.56480  0.47860  0.26100  1.0000 -0.1992551274
C   C188      1.0  0.43520  0.52140  0.73900  1.0000 -0.1992551274
C   C189      1.0  0.63860  0.51240  0.36910  1.0000 -0.1899862319
C   C190      1.0  0.36140  0.48760  0.63090  1.0000 -0.1899862319
C   C191      1.0  0.60670  0.78590  0.48960  1.0000 -0.2058766704
C   C192      1.0  0.39330  0.21410  0.51040  1.0000 -0.2058766704
C   C193      1.0  0.72770  0.86050  0.54530  1.0000 -0.1899862319
C   C194      1.0  0.27230  0.13950  0.45470  1.0000 -0.1899862319
C   C195      1.0  0.47540  0.91860  0.52200  1.0000 -0.1899862319
C   C196      1.0  0.52460  0.08140  0.47800  1.0000 -0.1899862319
C   C197      1.0  0.56760  0.01450  0.58400  1.0000 -0.1992551274
C   C198      1.0  0.43240  0.98550  0.41600  1.0000 -0.1992551274
C   C199      1.0  0.69460  0.78630  0.46030  1.0000 0.0908714965
C   C200      1.0  0.30540  0.21370  0.53970  1.0000 0.0908714965
C   C201      1.0  0.01960  0.89550  0.26920  1.0000 0.0908714965
C   C202      1.0  0.98040  0.10450  0.73080  1.0000 0.0908714965
C   C203      1.0  0.69040  0.75600  0.01010  1.0000 0.0908714965
C   C204      1.0  0.30960  0.24400  0.98990  1.0000 0.0908714965
C   C205      1.0  0.57660  0.46780  0.32140  1.0000 0.0979761992
C   C206      1.0  0.42340  0.53220  0.67860  1.0000 0.0979761992
C   C207      1.0  0.67580  0.81070  0.49770  1.0000 0.0979761992
C   C208      1.0  0.32420  0.18930  0.50230  1.0000 0.0979761992
C   C209      1.0  0.50940  0.98240  0.52640  1.0000 0.0979761992
C   C210      1.0  0.49060  0.01760  0.47360  1.0000 0.0979761992
C   C211      1.0  0.08880  0.92850  0.27020  1.0000 0.0908714965
C   C212      1.0  0.91120  0.07150  0.72980  1.0000 0.0908714965
C   C213      1.0  0.69370  0.76630  0.95000  1.0000 0.0908714965
C   C214      1.0  0.30630  0.23370  0.05000  1.0000 0.0908714965
C   C215      1.0  0.52570  0.40910  0.33270  1.0000 0.0908714965
C   C216      1.0  0.47430  0.59090  0.66730  1.0000 0.0908714965
C   C217      1.0  0.09300  0.94480  0.21510  1.0000 -0.1992551274
C   C218      1.0  0.90700  0.05520  0.78490  1.0000 -0.1992551274
C   C219      1.0  0.15180  0.94520  0.32500  1.0000 -0.1899862319
C   C220      1.0  0.84820  0.05480  0.67500  1.0000 -0.1899862319
C   C221      1.0  0.63760  0.72830  0.89470  1.0000 -0.1837387252
C   C222      1.0  0.36240  0.27170  0.10530  1.0000 -0.1837387252
C   C223      1.0  0.75300  0.81440  0.94810  1.0000 -0.1899862319
C   C224      1.0  0.24700  0.18560  0.05190  1.0000 -0.1899862319
C   C225      1.0  0.45170  0.38320  0.29490  1.0000 -0.1899862319
C   C226      1.0  0.54830  0.61680  0.70510  1.0000 -0.1899862319
C   C227      1.0  0.54920  0.37600  0.37890  1.0000 -0.1837387252
C   C228      1.0  0.45080  0.62400  0.62110  1.0000 -0.1837387252
C   C229      1.0  0.15850  0.97960  0.21700  1.0000 -0.0515423873
C   C230      1.0  0.84150  0.02040  0.78300  1.0000 -0.0515423873
C   C231      1.0  0.21620  0.97860  0.32470  1.0000 -0.0515423873
C   C232      1.0  0.78380  0.02140  0.67530  1.0000 -0.0515423873
C   C233      1.0  0.64070  0.74000  0.84110  1.0000 -0.0600603159
C   C234      1.0  0.35930  0.26000  0.15890  1.0000 -0.0600603159
C   C235      1.0  0.75460  0.82430  0.89250  1.0000 -0.0600603159
C   C236      1.0  0.24540  0.17570  0.10750  1.0000 -0.0600603159
C   C237      1.0  0.40620  0.32690  0.30240  1.0000 -0.0515423873
C   C238      1.0  0.59380  0.67310  0.69760  1.0000 -0.0515423873
C   C239      1.0  0.50190  0.31840  0.38390  1.0000 -0.0600603159
C   C240      1.0  0.49810  0.68160  0.61610  1.0000 -0.0600603159
N   N1        1.0  0.04290  0.72160  0.71450  1.0000 0.2790751833
N   N2        1.0  0.95710  0.27840  0.28550  1.0000 0.2790751833
N   N3        1.0  0.23500  0.78470  0.01010  1.0000 0.2884882518
N   N4        1.0  0.76500  0.21530  0.98990  1.0000 0.2884882518
N   N5        1.0  0.26020  0.79650  0.79370  1.0000 0.2884882518
N   N6        1.0  0.73980  0.20350  0.20630  1.0000 0.2884882518
N   N7        1.0  0.09450  0.58740  0.91990  1.0000 0.2790751833
N   N8        1.0  0.90550  0.41260  0.08010  1.0000 0.2790751833
N   N9        1.0  0.31200  0.71430  0.94750  1.0000 0.2706534166
N   N10       1.0  0.68800  0.28570  0.05250  1.0000 0.2706534166
N   N11       1.0  0.02030  0.71370  0.86430  1.0000 0.3108340506
N   N12       1.0  0.97970  0.28630  0.13570  1.0000 0.3108340506
N   N13       1.0  0.14530  0.60940  0.78210  1.0000 0.2994673266
N   N14       1.0  0.85470  0.39060  0.21790  1.0000 0.2994673266
N   N15       1.0  0.19130  0.86890  0.86570  1.0000 0.2884882518
N   N16       1.0  0.80870  0.13110  0.13430  1.0000 0.2884882518
N   N17       1.0  0.89000  0.73090  0.39430  1.0000 0.2884882518
N   N18       1.0  0.11000  0.26910  0.60570  1.0000 0.2884882518
N   N19       1.0  0.31200  0.05370  0.16770  1.0000 0.3108340506
N   N20       1.0  0.68800  0.94630  0.83230  1.0000 0.3108340506
N   N21       1.0  0.50680  0.78390  0.73040  1.0000 0.2884882518
N   N22       1.0  0.49320  0.21610  0.26960  1.0000 0.2884882518
N   N23       1.0  0.56810  0.66640  0.20710  1.0000 0.2994673266
N   N24       1.0  0.43190  0.33360  0.79290  1.0000 0.2994673266
N   N25       1.0  0.79540  0.84900  0.73760  1.0000 0.2994673266
N   N26       1.0  0.20460  0.15100  0.26240  1.0000 0.2994673266
N   N27       1.0  0.21540  0.35900  0.79500  1.0000 0.2994673266
N   N28       1.0  0.78460  0.64100  0.20500  1.0000 0.2994673266
N   N29       1.0  0.26700  0.14840  0.73400  1.0000 0.2994673266
N   N30       1.0  0.73300  0.85160  0.26600  1.0000 0.2994673266
N   N31       1.0  0.73340  0.73650  0.39730  1.0000 0.2790751833
N   N32       1.0  0.26660  0.26350  0.60270  1.0000 0.2790751833
N   N33       1.0  0.88580  0.83960  0.26010  1.0000 0.2994673266
N   N34       1.0  0.11420  0.16040  0.73990  1.0000 0.2994673266
N   N35       1.0  0.67830  0.73770  0.11750  1.0000 0.2790751833
N   N36       1.0  0.32170  0.26230  0.88250  1.0000 0.2790751833
N   N37       1.0  0.67490  0.57020  0.29860  1.0000 0.2706534166
N   N38       1.0  0.32510  0.42980  0.70140  1.0000 0.2790751833
N   N39       1.0  0.64630  0.85780  0.57260  1.0000 0.2790751833
N   N40       1.0  0.35370  0.14220  0.42740  1.0000 0.2790751833
N   N41       1.0  0.54890  0.92050  0.62670  1.0000 0.2790751833
N   N42       1.0  0.45110  0.07950  0.37330  1.0000 0.2790751833
N   N43       1.0  0.21710  0.99650  0.27050  1.0000 0.2706534166
N   N44       1.0  0.78290  0.00350  0.72950  1.0000 0.2706534166
N   N45       1.0  0.69850  0.78820  0.83940  1.0000 0.2994673266
N   N46       1.0  0.30150  0.21180  0.16060  1.0000 0.2994673266
N   N47       1.0  0.43160  0.29410  0.34610  1.0000 0.2884882518
N   N48       1.0  0.56840  0.70590  0.65390  1.0000 0.2884882518
O   O1        1.0  0.06360  0.72390  0.77530  1.0000 -0.6112563673
O   O2        1.0  0.93640  0.27610  0.22470  1.0000 -0.6112563673
O   O3        1.0  0.21930  0.73710  0.97490  1.0000 -0.5909149696
O   O4        1.0  0.78070  0.26290  0.02510  1.0000 -0.5909149696
O   O5        1.0  0.21350  0.79570  0.80880  1.0000 -0.6176312956
O   O6        1.0  0.78650  0.20430  0.19120  1.0000 -0.6176312956
O   O7        1.0  0.13100  0.61950  0.88940  1.0000 -0.6289325491
O   O8        1.0  0.86900  0.38050  0.11060  1.0000 -0.6289325491
O   O9        1.0  0.26740  0.72370  0.89450  1.0000 -0.6176312956
O   O10       1.0  0.73260  0.27630  0.10550  1.0000 -0.6112563673
O   O11       1.0  0.06480  0.69100  0.88620  1.0000 -0.5909149696
O   O12       1.0  0.93520  0.30900  0.11380  1.0000 -0.5909149696
O   O13       1.0  0.13310  0.65730  0.77840  1.0000 -0.5909149696
O   O14       1.0  0.86690  0.34270  0.22160  1.0000 -0.5909149696
O   O15       1.0  0.17730  0.81740  0.89280  1.0000 -0.6176312956
O   O16       1.0  0.82270  0.18260  0.10720  1.0000 -0.6176312956
O   O17       1.0  0.86040  0.73590  0.33410  1.0000 -0.6009774056
O   O18       1.0  0.13960  0.26410  0.66590  1.0000 -0.6112563673
O   O19       1.0  0.32840  0.10800  0.19230  1.0000 -0.5909149696
O   O20       1.0  0.67160  0.89200  0.80770  1.0000 -0.6009774056
O   O21       1.0  0.55250  0.77710  0.72010  1.0000 -0.6112563673
O   O22       1.0  0.44750  0.22290  0.27990  1.0000 -0.6112563673
O   O23       1.0  0.62270  0.66050  0.25210  1.0000 -0.6112563673
O   O24       1.0  0.37730  0.33950  0.74790  1.0000 -0.6112563673
O   O25       1.0  0.75700  0.87820  0.71300  1.0000 -0.6112563673
O   O26       1.0  0.24300  0.12180  0.28700  1.0000 -0.6112563673
O   O27       1.0  0.23120  0.31330  0.79920  1.0000 -0.6009774056
O   O28       1.0  0.76880  0.68670  0.20080  1.0000 -0.6009774056
O   O29       1.0  0.27950  0.20230  0.71090  1.0000 -0.6009774056
O   O30       1.0  0.72050  0.79770  0.28910  1.0000 -0.6009774056
O   O31       1.0  0.75490  0.71280  0.36990  1.0000 -0.6112563673
O   O32       1.0  0.24510  0.28720  0.63010  1.0000 -0.6112563673
O   O33       1.0  0.82100  0.81630  0.25390  1.0000 -0.6176312956
O   O34       1.0  0.17900  0.18370  0.74610  1.0000 -0.6112563673
O   O35       1.0  0.66990  0.72890  0.16820  1.0000 -0.6112563673
O   O36       1.0  0.33010  0.27110  0.83180  1.0000 -0.6112563673
O   O37       1.0  0.72450  0.61730  0.28640  1.0000 -0.6289325491
O   O38       1.0  0.27550  0.38270  0.71360  1.0000 -0.6289325491
O   O39       1.0  0.63230  0.88040  0.60930  1.0000 -0.6289325491
O   O40       1.0  0.36770  0.11960  0.39070  1.0000 -0.6176312956
O   O41       1.0  0.56600  0.89000  0.67500  1.0000 -0.6112563673
O   O42       1.0  0.43400  0.11000  0.32500  1.0000 -0.6112563673
O   O43       1.0  0.70050  0.79960  0.78600  1.0000 -0.6009774056
O   O44       1.0  0.29950  0.20040  0.21400  1.0000 -0.6009774056
O   O45       1.0  0.61310  0.76350  0.65050  1.0000 -0.6112563673
O   O46       1.0  0.38690  0.23650  0.34950  1.0000 -0.6112563673
O   O47       1.0  0.71930  0.96870  0.72870  1.0000 -0.6289325491
O   O48       1.0  0.28070  0.03130  0.27130  1.0000 -0.6289325491
