# DDEC6 charges by PACMAN v1.1 (https://github.com/mtap-research/PACMAN-charge/)
data_2015[Ag][dia]3[ASR]2
_chemical_formula_sum              "Ag12 H24 C16 N32"
_cell_length_a       19.3474
_cell_length_b       19.3474
_cell_length_c       3.5013
_cell_angle_alpha    90
_cell_angle_beta     90
_cell_angle_gamma    90

_symmetry_space_group_name_H-M    "P 1"
_symmetry_Int_Tables_number       1

loop_
  _symmetry_equiv_pos_as_xyz
  'x, y, z'

loop_
  _atom_site_type_symbol
  _atom_site_label
  _atom_site_symmetry_multiplicity
  _atom_site_fract_x
  _atom_site_fract_y
  _atom_site_fract_z
  _atom_site_occupancy
  _atom_site_charge
Ag  Ag1       1.0  0.83780  0.33793  0.75057  1.0000 0.2799672989
Ag  Ag2       1.0  0.16220  0.66207  0.75057  1.0000 0.2799672989
Ag  Ag3       1.0  0.33793  0.16220  0.24943  1.0000 0.2799672989
Ag  Ag4       1.0  0.66207  0.83780  0.24943  1.0000 0.2799672989
Ag  Ag5       1.0  0.54350  0.37853  0.00637  1.0000 0.2382658107
Ag  Ag6       1.0  0.45650  0.62147  0.00637  1.0000 0.2382658107
Ag  Ag7       1.0  0.37853  0.45650  0.99363  1.0000 0.2382658107
Ag  Ag8       1.0  0.62147  0.54350  0.99363  1.0000 0.2382658107
Ag  Ag9       1.0  0.04392  0.12181  0.50497  1.0000 0.2382658107
Ag  Ag10      1.0  0.95608  0.87819  0.50497  1.0000 0.2382658107
Ag  Ag11      1.0  0.87819  0.04392  0.49503  1.0000 0.2382658107
Ag  Ag12      1.0  0.12181  0.95608  0.49503  1.0000 0.2382658107
H   H1        1.0  0.67723  0.29474  0.42802  1.0000 0.0586594699
H   H2        1.0  0.32277  0.70526  0.42802  1.0000 0.0586594699
H   H3        1.0  0.29474  0.32277  0.57198  1.0000 0.0586594699
H   H4        1.0  0.70526  0.67723  0.57198  1.0000 0.0586594699
H   H5        1.0  0.17706  0.20500  0.92726  1.0000 0.0700641165
H   H6        1.0  0.82294  0.79500  0.92726  1.0000 0.0700641165
H   H7        1.0  0.79500  0.17706  0.07274  1.0000 0.0700641165
H   H8        1.0  0.20500  0.82294  0.07274  1.0000 0.0700641165
H   H9        1.0  0.83432  0.49018  0.50453  1.0000 0.2723189948
H   H10       1.0  0.16568  0.50982  0.50453  1.0000 0.2723189948
H   H11       1.0  0.49018  0.16568  0.49547  1.0000 0.2723189948
H   H12       1.0  0.50982  0.83432  0.49547  1.0000 0.2723189948
H   H13       1.0  0.33359  0.01016  0.00278  1.0000 0.2723189948
H   H14       1.0  0.66641  0.98984  0.00278  1.0000 0.2723189948
H   H15       1.0  0.98984  0.33359  0.99722  1.0000 0.2723189948
H   H16       1.0  0.01016  0.66641  0.99722  1.0000 0.2723189948
H   H17       1.0  0.76323  0.55193  0.31967  1.0000 0.2620463429
H   H18       1.0  0.23677  0.44807  0.31967  1.0000 0.2620463429
H   H19       1.0  0.55193  0.23677  0.68033  1.0000 0.2620463429
H   H20       1.0  0.44807  0.76323  0.68033  1.0000 0.2620463429
H   H21       1.0  0.26312  0.94850  0.82029  1.0000 0.2620463429
H   H22       1.0  0.73688  0.05150  0.82029  1.0000 0.2620463429
H   H23       1.0  0.05150  0.26312  0.17971  1.0000 0.2620463429
H   H24       1.0  0.94850  0.73688  0.17971  1.0000 0.2620463429
C   C1        1.0  0.68703  0.34967  0.36269  1.0000 0.1086709967
C   C2        1.0  0.31297  0.65033  0.36269  1.0000 0.1086709967
C   C3        1.0  0.34967  0.31297  0.63731  1.0000 0.1086709967
C   C4        1.0  0.65033  0.68703  0.63731  1.0000 0.1086709967
C   C5        1.0  0.18720  0.15080  0.86530  1.0000 0.0959259218
C   C6        1.0  0.81280  0.84920  0.86530  1.0000 0.0959259218
C   C7        1.0  0.84920  0.18720  0.13470  1.0000 0.0959259218
C   C8        1.0  0.15080  0.81280  0.13470  1.0000 0.0959259218
C   C9        1.0  0.73646  0.44931  0.34499  1.0000 0.4793414904
C   C10       1.0  0.26354  0.55069  0.34499  1.0000 0.4793414904
C   C11       1.0  0.44931  0.26354  0.65501  1.0000 0.4793414904
C   C12       1.0  0.55069  0.73646  0.65501  1.0000 0.4793414904
C   C13       1.0  0.23700  0.05058  0.84428  1.0000 0.4957674054
C   C14       1.0  0.76300  0.94942  0.84428  1.0000 0.4957674054
C   C15       1.0  0.94942  0.23700  0.15572  1.0000 0.4957674054
C   C16       1.0  0.05058  0.76300  0.15572  1.0000 0.4957674054
N   N1        1.0  0.74607  0.38195  0.46776  1.0000 -0.4194592217
N   N2        1.0  0.25393  0.61805  0.46776  1.0000 -0.4194592217
N   N3        1.0  0.38195  0.25393  0.53224  1.0000 -0.4194592217
N   N4        1.0  0.61805  0.74607  0.53224  1.0000 -0.4194592217
N   N5        1.0  0.24701  0.11810  0.97201  1.0000 -0.4194592217
N   N6        1.0  0.75299  0.88190  0.97201  1.0000 -0.4194592217
N   N7        1.0  0.88190  0.24701  0.02799  1.0000 -0.4194592217
N   N8        1.0  0.11810  0.75299  0.02799  1.0000 -0.4194592217
N   N9        1.0  0.64148  0.39300  0.21786  1.0000 -0.1904202307
N   N10       1.0  0.35852  0.60700  0.21786  1.0000 -0.1904202307
N   N11       1.0  0.39300  0.35852  0.78214  1.0000 -0.1904202307
N   N12       1.0  0.60700  0.64148  0.78214  1.0000 -0.1904202307
N   N13       1.0  0.14024  0.10791  0.71583  1.0000 -0.1904202307
N   N14       1.0  0.85976  0.89209  0.71583  1.0000 -0.1904202307
N   N15       1.0  0.89209  0.14024  0.28417  1.0000 -0.1904202307
N   N16       1.0  0.10791  0.85976  0.28417  1.0000 -0.1904202307
N   N17       1.0  0.67249  0.45836  0.20046  1.0000 -0.3021872209
N   N18       1.0  0.32751  0.54164  0.20046  1.0000 -0.3021872209
N   N19       1.0  0.45836  0.32751  0.79954  1.0000 -0.3021872209
N   N20       1.0  0.54164  0.67249  0.79954  1.0000 -0.3021872209
N   N21       1.0  0.17287  0.03989  0.69601  1.0000 -0.3181124123
N   N22       1.0  0.82713  0.96011  0.69601  1.0000 -0.3181124123
N   N23       1.0  0.96011  0.17287  0.30399  1.0000 -0.3181124123
N   N24       1.0  0.03989  0.82713  0.30399  1.0000 -0.3181124123
N   N25       1.0  0.78166  0.50238  0.41472  1.0000 -0.647071128
N   N26       1.0  0.21834  0.49762  0.41472  1.0000 -0.6449039372
N   N27       1.0  0.50238  0.21834  0.58528  1.0000 -0.647071128
N   N28       1.0  0.49762  0.78166  0.58528  1.0000 -0.647071128
N   N29       1.0  0.28167  0.99754  0.91554  1.0000 -0.647071128
N   N30       1.0  0.71833  0.00246  0.91554  1.0000 -0.647071128
N   N31       1.0  0.00246  0.28167  0.08446  1.0000 -0.647071128
N   N32       1.0  0.99754  0.71833  0.08446  1.0000 -0.647071128
