# DDEC6 charges by PACMAN v1.1 (https://github.com/mtap-research/PACMAN-charge/)
data_2015[Zn][nan]3[ASR]49
_chemical_formula_sum              "Zn16 H64 C96 N48 O32"
_cell_length_a       13.365
_cell_length_b       13.365
_cell_length_c       27.429
_cell_angle_alpha    90
_cell_angle_beta     90
_cell_angle_gamma    90

_symmetry_space_group_name_H-M    "P 1"
_symmetry_Int_Tables_number       1

loop_
  _symmetry_equiv_pos_as_xyz
  'x, y, z'

loop_
  _atom_site_type_symbol
  _atom_site_label
  _atom_site_symmetry_multiplicity
  _atom_site_fract_x
  _atom_site_fract_y
  _atom_site_fract_z
  _atom_site_occupancy
  _atom_site_charge
Zn  Zn1       1.0  0.83775  0.77348  0.05332  1.0000 0.6677100348
Zn  Zn2       1.0  0.16225  0.22652  0.05332  1.0000 0.6677100348
Zn  Zn3       1.0  0.33775  0.72652  0.44668  1.0000 0.6677100348
Zn  Zn4       1.0  0.66225  0.27348  0.44668  1.0000 0.6677100348
Zn  Zn5       1.0  0.22652  0.16225  0.44668  1.0000 0.6677100348
Zn  Zn6       1.0  0.77348  0.83775  0.44668  1.0000 0.6677100348
Zn  Zn7       1.0  0.27348  0.66225  0.05332  1.0000 0.6677100348
Zn  Zn8       1.0  0.72652  0.33775  0.05332  1.0000 0.6677100348
Zn  Zn9       1.0  0.66225  0.72652  0.94668  1.0000 0.6677100348
Zn  Zn10      1.0  0.33775  0.27348  0.94668  1.0000 0.6677100348
Zn  Zn11      1.0  0.16225  0.77348  0.55332  1.0000 0.6677100348
Zn  Zn12      1.0  0.83775  0.22652  0.55332  1.0000 0.6677100348
Zn  Zn13      1.0  0.27348  0.33775  0.55332  1.0000 0.6677100348
Zn  Zn14      1.0  0.72652  0.66225  0.55332  1.0000 0.6677100348
Zn  Zn15      1.0  0.22652  0.83775  0.94668  1.0000 0.6677100348
Zn  Zn16      1.0  0.77348  0.16225  0.94668  1.0000 0.6677100348
H   H1        1.0  0.68330  0.91810  0.27410  1.0000 0.1219021163
H   H2        1.0  0.31670  0.08190  0.27410  1.0000 0.1219021163
H   H3        1.0  0.18330  0.58190  0.22590  1.0000 0.1219021163
H   H4        1.0  0.81670  0.41810  0.22590  1.0000 0.1219021163
H   H5        1.0  0.08190  0.31670  0.22590  1.0000 0.1219021163
H   H6        1.0  0.91810  0.68330  0.22590  1.0000 0.1219021163
H   H7        1.0  0.41810  0.81670  0.27410  1.0000 0.1219021163
H   H8        1.0  0.58190  0.18330  0.27410  1.0000 0.1219021163
H   H9        1.0  0.81670  0.58190  0.72590  1.0000 0.1219021163
H   H10       1.0  0.18330  0.41810  0.72590  1.0000 0.1219021163
H   H11       1.0  0.31670  0.91810  0.77410  1.0000 0.1219021163
H   H12       1.0  0.68330  0.08190  0.77410  1.0000 0.1219021163
H   H13       1.0  0.41810  0.18330  0.77410  1.0000 0.1219021163
H   H14       1.0  0.58190  0.81670  0.77410  1.0000 0.1219021163
H   H15       1.0  0.08190  0.68330  0.72590  1.0000 0.1219021163
H   H16       1.0  0.91810  0.31670  0.72590  1.0000 0.1219021163
H   H17       1.0  0.71530  0.89320  0.19170  1.0000 0.1303428169
H   H18       1.0  0.28470  0.10680  0.19170  1.0000 0.1303428169
H   H19       1.0  0.21530  0.60680  0.30830  1.0000 0.1303428169
H   H20       1.0  0.78470  0.39320  0.30830  1.0000 0.1303428169
H   H21       1.0  0.10680  0.28470  0.30830  1.0000 0.1303428169
H   H22       1.0  0.89320  0.71530  0.30830  1.0000 0.1303428169
H   H23       1.0  0.39320  0.78470  0.19170  1.0000 0.1303428169
H   H24       1.0  0.60680  0.21530  0.19170  1.0000 0.1303428169
H   H25       1.0  0.78470  0.60680  0.80830  1.0000 0.1303428169
H   H26       1.0  0.21530  0.39320  0.80830  1.0000 0.1303428169
H   H27       1.0  0.28470  0.89320  0.69170  1.0000 0.1303428169
H   H28       1.0  0.71530  0.10680  0.69170  1.0000 0.1303428169
H   H29       1.0  0.39320  0.21530  0.69170  1.0000 0.1303428169
H   H30       1.0  0.60680  0.78470  0.69170  1.0000 0.1303428169
H   H31       1.0  0.10680  0.71530  0.80830  1.0000 0.1303428169
H   H32       1.0  0.89320  0.28470  0.80830  1.0000 0.1303428169
H   H33       1.0  0.85020  0.00290  0.02530  1.0000 0.112833832
H   H34       1.0  0.14980  0.99710  0.02530  1.0000 0.112833832
H   H35       1.0  0.35020  0.49710  0.47470  1.0000 0.112833832
H   H36       1.0  0.64980  0.50290  0.47470  1.0000 0.112833832
H   H37       1.0  0.99710  0.14980  0.47470  1.0000 0.112833832
H   H38       1.0  0.00290  0.85020  0.47470  1.0000 0.112833832
H   H39       1.0  0.50290  0.64980  0.02530  1.0000 0.112833832
H   H40       1.0  0.49710  0.35020  0.02530  1.0000 0.112833832
H   H41       1.0  0.64980  0.49710  0.97470  1.0000 0.112833832
H   H42       1.0  0.35020  0.50290  0.97470  1.0000 0.112833832
H   H43       1.0  0.14980  0.00290  0.52530  1.0000 0.112833832
H   H44       1.0  0.85020  0.99710  0.52530  1.0000 0.112833832
H   H45       1.0  0.50290  0.35020  0.52530  1.0000 0.112833832
H   H46       1.0  0.49710  0.64980  0.52530  1.0000 0.112833832
H   H47       1.0  0.99710  0.85020  0.97470  1.0000 0.112833832
H   H48       1.0  0.00290  0.14980  0.97470  1.0000 0.112833832
H   H49       1.0  0.67970  0.95250  0.91340  1.0000 0.1303428169
H   H50       1.0  0.32030  0.04750  0.91340  1.0000 0.1303428169
H   H51       1.0  0.17970  0.54750  0.58660  1.0000 0.1303428169
H   H52       1.0  0.82030  0.45250  0.58660  1.0000 0.1303428169
H   H53       1.0  0.04750  0.32030  0.58660  1.0000 0.1303428169
H   H54       1.0  0.95250  0.67970  0.58660  1.0000 0.1303428169
H   H55       1.0  0.45250  0.82030  0.91340  1.0000 0.1303428169
H   H56       1.0  0.54750  0.17970  0.91340  1.0000 0.1303428169
H   H57       1.0  0.82030  0.54750  0.08660  1.0000 0.1303428169
H   H58       1.0  0.17970  0.45250  0.08660  1.0000 0.1303428169
H   H59       1.0  0.32030  0.95250  0.41340  1.0000 0.1303428169
H   H60       1.0  0.67970  0.04750  0.41340  1.0000 0.1303428169
H   H61       1.0  0.45250  0.17970  0.41340  1.0000 0.1303428169
H   H62       1.0  0.54750  0.82030  0.41340  1.0000 0.1303428169
H   H63       1.0  0.04750  0.67970  0.08660  1.0000 0.1303428169
H   H64       1.0  0.95250  0.32030  0.08660  1.0000 0.1303428169
C   C1        1.0  0.73170  0.87210  0.26446  1.0000 -0.1052073849
C   C2        1.0  0.26830  0.12790  0.26446  1.0000 -0.1052073849
C   C3        1.0  0.23170  0.62790  0.23554  1.0000 -0.1052073849
C   C4        1.0  0.76830  0.37210  0.23554  1.0000 -0.1052073849
C   C5        1.0  0.12790  0.26830  0.23554  1.0000 -0.1052073849
C   C6        1.0  0.87210  0.73170  0.23554  1.0000 -0.1052073849
C   C7        1.0  0.37210  0.76830  0.26446  1.0000 -0.1052073849
C   C8        1.0  0.62790  0.23170  0.26446  1.0000 -0.1052073849
C   C9        1.0  0.76830  0.62790  0.73554  1.0000 -0.1052073849
C   C10       1.0  0.23170  0.37210  0.73554  1.0000 -0.1052073849
C   C11       1.0  0.26830  0.87210  0.76446  1.0000 -0.1052073849
C   C12       1.0  0.73170  0.12790  0.76446  1.0000 -0.1052073849
C   C13       1.0  0.37210  0.23170  0.76446  1.0000 -0.1052073849
C   C14       1.0  0.62790  0.76830  0.76446  1.0000 -0.1052073849
C   C15       1.0  0.12790  0.73170  0.73554  1.0000 -0.1052073849
C   C16       1.0  0.87210  0.26830  0.73554  1.0000 -0.1052073849
C   C17       1.0  0.74980  0.85630  0.21505  1.0000 -0.1007090633
C   C18       1.0  0.25020  0.14370  0.21505  1.0000 -0.1007090633
C   C19       1.0  0.24980  0.64370  0.28495  1.0000 -0.1007090633
C   C20       1.0  0.75020  0.35630  0.28495  1.0000 -0.1007090633
C   C21       1.0  0.14370  0.25020  0.28495  1.0000 -0.1007090633
C   C22       1.0  0.85630  0.74980  0.28495  1.0000 -0.1007090633
C   C23       1.0  0.35630  0.75020  0.21505  1.0000 -0.1007090633
C   C24       1.0  0.64370  0.24980  0.21505  1.0000 -0.1007090633
C   C25       1.0  0.75020  0.64370  0.78495  1.0000 -0.1007090633
C   C26       1.0  0.24980  0.35630  0.78495  1.0000 -0.1007090633
C   C27       1.0  0.25020  0.85630  0.71505  1.0000 -0.1007090633
C   C28       1.0  0.74980  0.14370  0.71505  1.0000 -0.1007090633
C   C29       1.0  0.35630  0.24980  0.71505  1.0000 -0.1007090633
C   C30       1.0  0.64370  0.75020  0.71505  1.0000 -0.1007090633
C   C31       1.0  0.14370  0.74980  0.78495  1.0000 -0.1007090633
C   C32       1.0  0.85630  0.25020  0.78495  1.0000 -0.1007090633
C   C33       1.0  0.82000  0.78510  0.20079  1.0000 -0.0131294578
C   C34       1.0  0.18000  0.21490  0.20079  1.0000 -0.0131294578
C   C35       1.0  0.32000  0.71490  0.29921  1.0000 -0.0131294578
C   C36       1.0  0.68000  0.28510  0.29921  1.0000 -0.0131294578
C   C37       1.0  0.21490  0.18000  0.29921  1.0000 -0.0131294578
C   C38       1.0  0.78510  0.82000  0.29921  1.0000 -0.0131294578
C   C39       1.0  0.28510  0.68000  0.20079  1.0000 -0.0131294578
C   C40       1.0  0.71490  0.32000  0.20079  1.0000 -0.0131294578
C   C41       1.0  0.68000  0.71490  0.79921  1.0000 -0.0131294578
C   C42       1.0  0.32000  0.28510  0.79921  1.0000 -0.0131294578
C   C43       1.0  0.18000  0.78510  0.70079  1.0000 -0.0131294578
C   C44       1.0  0.82000  0.21490  0.70079  1.0000 -0.0131294578
C   C45       1.0  0.28510  0.32000  0.70079  1.0000 -0.0131294578
C   C46       1.0  0.71490  0.68000  0.70079  1.0000 -0.0131294578
C   C47       1.0  0.21490  0.82000  0.79921  1.0000 -0.0131294578
C   C48       1.0  0.78510  0.18000  0.79921  1.0000 -0.0131294578
C   C49       1.0  0.83850  0.76530  0.14754  1.0000 0.5554268198
C   C50       1.0  0.16150  0.23470  0.14754  1.0000 0.5554268198
C   C51       1.0  0.33850  0.73470  0.35246  1.0000 0.5554268198
C   C52       1.0  0.66150  0.26530  0.35246  1.0000 0.5554268198
C   C53       1.0  0.23470  0.16150  0.35246  1.0000 0.5554268198
C   C54       1.0  0.76530  0.83850  0.35246  1.0000 0.5554268198
C   C55       1.0  0.26530  0.66150  0.14754  1.0000 0.5554268198
C   C56       1.0  0.73470  0.33850  0.14754  1.0000 0.5554268198
C   C57       1.0  0.66150  0.73470  0.85246  1.0000 0.5554268198
C   C58       1.0  0.33850  0.26530  0.85246  1.0000 0.5554268198
C   C59       1.0  0.16150  0.76530  0.64754  1.0000 0.5554268198
C   C60       1.0  0.83850  0.23470  0.64754  1.0000 0.5554268198
C   C61       1.0  0.26530  0.33850  0.64754  1.0000 0.5554268198
C   C62       1.0  0.73470  0.66150  0.64754  1.0000 0.5554268198
C   C63       1.0  0.23470  0.83850  0.85246  1.0000 0.5554268198
C   C64       1.0  0.76530  0.16150  0.85246  1.0000 0.5554268198
C   C65       1.0  0.80950  0.97100  0.00260  1.0000 0.1303428169
C   C66       1.0  0.19050  0.02900  0.00260  1.0000 0.1303428169
C   C67       1.0  0.30950  0.52900  0.49740  1.0000 0.1303428169
C   C68       1.0  0.69050  0.47100  0.49740  1.0000 0.1303428169
C   C69       1.0  0.02900  0.19050  0.49740  1.0000 0.1303428169
C   C70       1.0  0.97100  0.80950  0.49740  1.0000 0.1303428169
C   C71       1.0  0.47100  0.69050  0.00260  1.0000 0.1303428169
C   C72       1.0  0.52900  0.30950  0.00260  1.0000 0.1303428169
C   C73       1.0  0.69050  0.52900  0.99740  1.0000 0.1303428169
C   C74       1.0  0.30950  0.47100  0.99740  1.0000 0.1303428169
C   C75       1.0  0.19050  0.97100  0.50260  1.0000 0.1303428169
C   C76       1.0  0.80950  0.02900  0.50260  1.0000 0.1303428169
C   C77       1.0  0.47100  0.30950  0.50260  1.0000 0.1303428169
C   C78       1.0  0.52900  0.69050  0.50260  1.0000 0.1303428169
C   C79       1.0  0.02900  0.80950  0.99740  1.0000 0.1303428169
C   C80       1.0  0.97100  0.19050  0.99740  1.0000 0.1303428169
C   C81       1.0  0.71690  0.94370  0.94181  1.0000 0.1732363279
C   C82       1.0  0.28310  0.05630  0.94181  1.0000 0.1732363279
C   C83       1.0  0.21690  0.55630  0.55819  1.0000 0.1732363279
C   C84       1.0  0.78310  0.44370  0.55819  1.0000 0.1732363279
C   C85       1.0  0.05630  0.28310  0.55819  1.0000 0.1732363279
C   C86       1.0  0.94370  0.71690  0.55819  1.0000 0.1732363279
C   C87       1.0  0.44370  0.78310  0.94181  1.0000 0.1732363279
C   C88       1.0  0.55630  0.21690  0.94181  1.0000 0.1732363279
C   C89       1.0  0.78310  0.55630  0.05819  1.0000 0.1732363279
C   C90       1.0  0.21690  0.44370  0.05819  1.0000 0.1732363279
C   C91       1.0  0.28310  0.94370  0.44181  1.0000 0.1732363279
C   C92       1.0  0.71690  0.05630  0.44181  1.0000 0.1732363279
C   C93       1.0  0.44370  0.21690  0.44181  1.0000 0.1732363279
C   C94       1.0  0.55630  0.78310  0.44181  1.0000 0.1732363279
C   C95       1.0  0.05630  0.71690  0.05819  1.0000 0.1732363279
C   C96       1.0  0.94370  0.28310  0.05819  1.0000 0.1732363279
N   N1        1.0  0.76610  0.01760  0.96454  1.0000 -0.3181627666
N   N2        1.0  0.23390  0.98240  0.96454  1.0000 -0.3181627666
N   N3        1.0  0.26610  0.48240  0.53546  1.0000 -0.3181627666
N   N4        1.0  0.73390  0.51760  0.53546  1.0000 -0.3181627666
N   N5        1.0  0.98240  0.23390  0.53546  1.0000 -0.3181627666
N   N6        1.0  0.01760  0.76610  0.53546  1.0000 -0.3181627666
N   N7        1.0  0.51760  0.73390  0.96454  1.0000 -0.3181627666
N   N8        1.0  0.48240  0.26610  0.96454  1.0000 -0.3181627666
N   N9        1.0  0.73390  0.48240  0.03546  1.0000 -0.3181627666
N   N10       1.0  0.26610  0.51760  0.03546  1.0000 -0.3181627666
N   N11       1.0  0.23390  0.01760  0.46454  1.0000 -0.3181627666
N   N12       1.0  0.76610  0.98240  0.46454  1.0000 -0.3181627666
N   N13       1.0  0.51760  0.26610  0.46454  1.0000 -0.3181627666
N   N14       1.0  0.48240  0.73390  0.46454  1.0000 -0.3181627666
N   N15       1.0  0.98240  0.76610  0.03546  1.0000 -0.3181627666
N   N16       1.0  0.01760  0.23390  0.03546  1.0000 -0.3181627666
N   N17       1.0  0.72720  0.85680  0.96444  1.0000 -0.1936278197
N   N18       1.0  0.27280  0.14320  0.96444  1.0000 -0.1936278197
N   N19       1.0  0.22720  0.64320  0.53556  1.0000 -0.1936278197
N   N20       1.0  0.77280  0.35680  0.53556  1.0000 -0.1936278197
N   N21       1.0  0.14320  0.27280  0.53556  1.0000 -0.1936278197
N   N22       1.0  0.85680  0.72720  0.53556  1.0000 -0.1936278197
N   N23       1.0  0.35680  0.77280  0.96444  1.0000 -0.1936278197
N   N24       1.0  0.64320  0.22720  0.96444  1.0000 -0.1936278197
N   N25       1.0  0.77280  0.64320  0.03556  1.0000 -0.1936278197
N   N26       1.0  0.22720  0.35680  0.03556  1.0000 -0.1936278197
N   N27       1.0  0.27280  0.85680  0.46444  1.0000 -0.1936278197
N   N28       1.0  0.72720  0.14320  0.46444  1.0000 -0.1936278197
N   N29       1.0  0.35680  0.22720  0.46444  1.0000 -0.1936278197
N   N30       1.0  0.64320  0.77280  0.46444  1.0000 -0.1936278197
N   N31       1.0  0.14320  0.72720  0.03556  1.0000 -0.1936278197
N   N32       1.0  0.85680  0.27280  0.03556  1.0000 -0.1936278197
N   N33       1.0  0.78740  0.87450  0.00404  1.0000 -0.1936278197
N   N34       1.0  0.21260  0.12550  0.00404  1.0000 -0.1936278197
N   N35       1.0  0.28740  0.62550  0.49596  1.0000 -0.1936278197
N   N36       1.0  0.71260  0.37450  0.49596  1.0000 -0.1936278197
N   N37       1.0  0.12550  0.21260  0.49596  1.0000 -0.1936278197
N   N38       1.0  0.87450  0.78740  0.49596  1.0000 -0.1936278197
N   N39       1.0  0.37450  0.71260  0.00404  1.0000 -0.1936278197
N   N40       1.0  0.62550  0.28740  0.00404  1.0000 -0.1936278197
N   N41       1.0  0.71260  0.62550  0.99596  1.0000 -0.1936278197
N   N42       1.0  0.28740  0.37450  0.99596  1.0000 -0.1936278197
N   N43       1.0  0.21260  0.87450  0.50404  1.0000 -0.1936278197
N   N44       1.0  0.78740  0.12550  0.50404  1.0000 -0.1936278197
N   N45       1.0  0.37450  0.28740  0.50404  1.0000 -0.1936278197
N   N46       1.0  0.62550  0.71260  0.50404  1.0000 -0.1936278197
N   N47       1.0  0.12550  0.78740  0.99596  1.0000 -0.1936278197
N   N48       1.0  0.87450  0.21260  0.99596  1.0000 -0.1936278197
O   O1        1.0  0.79930  0.82607  0.11678  1.0000 -0.5488366348
O   O2        1.0  0.20070  0.17393  0.11678  1.0000 -0.5488366348
O   O3        1.0  0.29930  0.67393  0.38322  1.0000 -0.5488366348
O   O4        1.0  0.70070  0.32607  0.38322  1.0000 -0.5488366348
O   O5        1.0  0.17393  0.20070  0.38322  1.0000 -0.5488366348
O   O6        1.0  0.82607  0.79930  0.38322  1.0000 -0.5488366348
O   O7        1.0  0.32607  0.70070  0.11678  1.0000 -0.5488366348
O   O8        1.0  0.67393  0.29930  0.11678  1.0000 -0.5488366348
O   O9        1.0  0.70070  0.67393  0.88322  1.0000 -0.5488366348
O   O10       1.0  0.29930  0.32607  0.88322  1.0000 -0.5488366348
O   O11       1.0  0.20070  0.82607  0.61678  1.0000 -0.5488366348
O   O12       1.0  0.79930  0.17393  0.61678  1.0000 -0.5488366348
O   O13       1.0  0.32607  0.29930  0.61678  1.0000 -0.5488366348
O   O14       1.0  0.67393  0.70070  0.61678  1.0000 -0.5488366348
O   O15       1.0  0.17393  0.79930  0.88322  1.0000 -0.5488366348
O   O16       1.0  0.82607  0.20070  0.88322  1.0000 -0.5488366348
O   O17       1.0  0.89022  0.69240  0.13467  1.0000 -0.5488366348
O   O18       1.0  0.10978  0.30760  0.13467  1.0000 -0.5488366348
O   O19       1.0  0.39022  0.80760  0.36533  1.0000 -0.5488366348
O   O20       1.0  0.60978  0.19240  0.36533  1.0000 -0.5488366348
O   O21       1.0  0.30760  0.10978  0.36533  1.0000 -0.5488366348
O   O22       1.0  0.69240  0.89022  0.36533  1.0000 -0.5488366348
O   O23       1.0  0.19240  0.60978  0.13467  1.0000 -0.5488366348
O   O24       1.0  0.80760  0.39022  0.13467  1.0000 -0.5488366348
O   O25       1.0  0.60978  0.80760  0.86533  1.0000 -0.5488366348
O   O26       1.0  0.39022  0.19240  0.86533  1.0000 -0.5488366348
O   O27       1.0  0.10978  0.69240  0.63467  1.0000 -0.5488366348
O   O28       1.0  0.89022  0.30760  0.63467  1.0000 -0.5488366348
O   O29       1.0  0.19240  0.39022  0.63467  1.0000 -0.5488366348
O   O30       1.0  0.80760  0.60978  0.63467  1.0000 -0.5488366348
O   O31       1.0  0.30760  0.89022  0.86533  1.0000 -0.5488366348
O   O32       1.0  0.69240  0.10978  0.86533  1.0000 -0.5488366348
