# DDEC6 charges by PACMAN v1.1 (https://github.com/mtap-research/PACMAN-charge/)
data_2015[Sc][nan]3[ASR]5
_chemical_formula_sum              "Sc12 H72 C144 O72"
_cell_length_a       34.9509
_cell_length_b       30.9444
_cell_length_c       17.4201
_cell_angle_alpha    87.9031
_cell_angle_beta     62.2237
_cell_angle_gamma    29.8733

_symmetry_space_group_name_H-M    "P 1"
_symmetry_Int_Tables_number       1

loop_
  _symmetry_equiv_pos_as_xyz
  'x, y, z'

loop_
  _atom_site_type_symbol
  _atom_site_label
  _atom_site_symmetry_multiplicity
  _atom_site_fract_x
  _atom_site_fract_y
  _atom_site_fract_z
  _atom_site_occupancy
  _atom_site_charge
Sc  Sc1       1.0  0.75555  0.41107  0.09715  1.0000 1.8214908564
Sc  Sc2       1.0  0.09715  0.73624  0.75555  1.0000 1.8214908564
Sc  Sc3       1.0  0.83893  0.49445  0.51376  1.0000 1.8214908564
Sc  Sc4       1.0  0.51376  0.15285  0.83893  1.0000 1.8214908564
Sc  Sc5       1.0  0.23699  0.92963  0.57239  1.0000 1.8214908564
Sc  Sc6       1.0  0.57239  0.26100  0.23699  1.0000 1.8214908564
Sc  Sc7       1.0  0.32037  0.01301  0.98900  1.0000 1.8214908564
Sc  Sc8       1.0  0.98900  0.67761  0.32037  1.0000 1.8214908564
Sc  Sc9       1.0  0.42628  0.07372  0.42628  1.0000 1.803463521
Sc  Sc10      1.0  0.17628  0.82372  0.17628  1.0000 1.803463521
Sc  Sc11      1.0  0.90467  0.59533  0.90467  1.0000 1.8112161779
Sc  Sc12      1.0  0.65467  0.34533  0.65467  1.0000 1.8112161779
H   H1        1.0  0.84352  0.45070  0.00452  1.0000 0.1210920451
H   H2        1.0  0.00452  0.70127  0.84352  1.0000 0.1266965339
H   H3        1.0  0.79930  0.40648  0.54873  1.0000 0.1266965339
H   H4        1.0  0.54873  0.24548  0.79930  1.0000 0.1266965339
H   H5        1.0  0.87622  0.49360  0.96562  1.0000 0.1210920451
H   H6        1.0  0.96562  0.66457  0.87622  1.0000 0.1210920451
H   H7        1.0  0.75640  0.37378  0.58543  1.0000 0.1210920451
H   H8        1.0  0.58543  0.28438  0.75640  1.0000 0.1210920451
H   H9        1.0  0.33542  0.03580  0.52022  1.0000 0.1266965339
H   H10       1.0  0.52022  0.10857  0.33542  1.0000 0.1266965339
H   H11       1.0  0.21420  0.91458  0.14143  1.0000 0.1266965339
H   H12       1.0  0.14143  0.72978  0.21420  1.0000 0.1266965339
H   H13       1.0  0.30272  0.99290  0.55912  1.0000 0.1266965339
H   H14       1.0  0.55912  0.14527  0.30272  1.0000 0.1266965339
H   H15       1.0  0.25710  0.94728  0.10473  1.0000 0.1266965339
H   H16       1.0  0.10473  0.69088  0.25710  1.0000 0.1266965339
H   H17       1.0  0.10842  0.28000  0.97062  1.0000 0.1266965339
H   H18       1.0  0.97062  0.64097  0.10842  1.0000 0.1266965339
H   H19       1.0  0.97000  0.14158  0.60903  1.0000 0.1266965339
H   H20       1.0  0.60903  0.27938  0.97000  1.0000 0.1266965339
H   H21       1.0  0.99272  0.43790  0.98092  1.0000 0.1210920451
H   H22       1.0  0.98092  0.58847  0.99272  1.0000 0.1210920451
H   H23       1.0  0.81210  0.25728  0.66153  1.0000 0.1210920451
H   H24       1.0  0.66153  0.26908  0.81210  1.0000 0.1210920451
H   H25       1.0  0.61882  0.81020  0.44542  1.0000 0.1266965339
H   H26       1.0  0.44542  0.12557  0.61882  1.0000 0.1266965339
H   H27       1.0  0.43980  0.63118  0.12443  1.0000 0.1266965339
H   H28       1.0  0.12443  0.80458  0.43980  1.0000 0.1266965339
H   H29       1.0  0.73462  0.65220  0.43522  1.0000 0.1210920451
H   H30       1.0  0.43522  0.17797  0.73462  1.0000 0.1210920451
H   H31       1.0  0.59780  0.51538  0.07203  1.0000 0.1210920451
H   H32       1.0  0.07203  0.81478  0.59780  1.0000 0.1210920451
H   H33       1.0  0.76972  0.44610  0.31252  1.0000 0.1266965339
H   H34       1.0  0.31252  0.47167  0.76972  1.0000 0.1266965339
H   H35       1.0  0.80390  0.48028  0.77833  1.0000 0.1266965339
H   H36       1.0  0.77833  0.93748  0.80390  1.0000 0.1266965339
H   H37       1.0  0.30172  0.91010  0.70012  1.0000 0.1210920451
H   H38       1.0  0.70012  0.08807  0.30172  1.0000 0.1210920451
H   H39       1.0  0.33990  0.94828  0.16193  1.0000 0.1210920451
H   H40       1.0  0.16193  0.54988  0.33990  1.0000 0.1210920451
H   H41       1.0  0.29712  0.95370  0.81512  1.0000 0.1266965339
H   H42       1.0  0.81512  0.93407  0.29712  1.0000 0.1266965339
H   H43       1.0  0.29630  0.95288  0.31593  1.0000 0.1266965339
H   H44       1.0  0.31593  0.43488  0.29630  1.0000 0.1266965339
H   H45       1.0  0.76512  0.48990  0.42732  1.0000 0.1210920451
H   H46       1.0  0.42732  0.31767  0.76512  1.0000 0.1210920451
H   H47       1.0  0.76010  0.48488  0.93233  1.0000 0.1210920451
H   H48       1.0  0.93233  0.82268  0.76010  1.0000 0.1210920451
H   H49       1.0  0.95402  0.14440  0.10682  1.0000 0.1266965339
H   H50       1.0  0.10682  0.79477  0.95402  1.0000 0.1266965339
H   H51       1.0  0.10560  0.29598  0.45523  1.0000 0.1266965339
H   H52       1.0  0.45523  0.14318  0.10560  1.0000 0.1266965339
H   H53       1.0  0.07472  0.98770  0.09912  1.0000 0.1210920451
H   H54       1.0  0.09912  0.83847  0.07472  1.0000 0.1210920451
H   H55       1.0  0.26230  0.17528  0.41153  1.0000 0.1210920451
H   H56       1.0  0.41153  0.15088  0.26230  1.0000 0.1210920451
H   H57       1.0  0.43452  0.61670  0.64412  1.0000 0.1266965339
H   H58       1.0  0.64412  0.30467  0.43452  1.0000 0.1266965339
H   H59       1.0  0.63330  0.81548  0.94533  1.0000 0.1266965339
H   H60       1.0  0.94533  0.60588  0.63330  1.0000 0.1266965339
H   H61       1.0  0.31382  0.77340  0.65182  1.0000 0.1210920451
H   H62       1.0  0.65182  0.26097  0.31382  1.0000 0.1210920451
H   H63       1.0  0.47660  0.93618  0.98903  1.0000 0.1210920451
H   H64       1.0  0.98903  0.59818  0.47660  1.0000 0.1210920451
H   H65       1.0  0.19172  0.84670  0.59872  1.0000 0.1266965339
H   H66       1.0  0.59872  0.36287  0.19172  1.0000 0.1266965339
H   H67       1.0  0.40330  0.05828  0.88713  1.0000 0.1266965339
H   H68       1.0  0.88713  0.65128  0.40330  1.0000 0.1266965339
H   H69       1.0  0.15242  0.81060  0.64382  1.0000 0.1266965339
H   H70       1.0  0.64382  0.39317  0.15242  1.0000 0.1266965339
H   H71       1.0  0.43940  0.09758  0.85683  1.0000 0.1266965339
H   H72       1.0  0.85683  0.60618  0.43940  1.0000 0.1266965339
C   C1        1.0  0.04562  0.19360  0.81042  1.0000 0.649049042
C   C2        1.0  0.81042  0.95037  0.04562  1.0000 0.6422121618
C   C3        1.0  0.05640  0.20438  0.29963  1.0000 0.649049042
C   C4        1.0  0.29963  0.43958  0.05640  1.0000 0.649049042
C   C5        1.0  0.94213  0.36751  0.90751  1.0000 -0.1001014975
C   C6        1.0  0.90751  0.78286  0.94213  1.0000 -0.1001014975
C   C7        1.0  0.88249  0.30787  0.46714  1.0000 -0.1001014975
C   C8        1.0  0.46714  0.34249  0.88249  1.0000 -0.1001014975
C   C9        1.0  0.96170  0.39328  0.88414  1.0000 -0.1001014975
C   C10       1.0  0.88414  0.76089  0.96170  1.0000 -0.1001014975
C   C11       1.0  0.85672  0.28830  0.48911  1.0000 -0.1001014975
C   C12       1.0  0.48911  0.36586  0.85672  1.0000 -0.1001014975
C   C13       1.0  0.10904  0.26902  0.73900  1.0000 -0.0513692675
C   C14       1.0  0.73900  0.88295  0.10904  1.0000 -0.0513692675
C   C15       1.0  0.98098  0.14096  0.36705  1.0000 -0.0513692675
C   C16       1.0  0.36705  0.51100  0.98098  1.0000 -0.0513692675
C   C17       1.0  0.23681  0.11899  0.61723  1.0000 -0.1001014975
C   C18       1.0  0.61723  0.02698  0.23681  1.0000 -0.1001014975
C   C19       1.0  0.13101  0.01319  0.22302  1.0000 -0.1001014975
C   C20       1.0  0.22302  0.63277  0.13101  1.0000 -0.1001014975
C   C21       1.0  0.21724  0.09322  0.64060  1.0000 -0.1001014975
C   C22       1.0  0.64060  0.04895  0.21724  1.0000 -0.1001014975
C   C23       1.0  0.15678  0.03276  0.20105  1.0000 -0.1001014975
C   C24       1.0  0.20105  0.60940  0.15678  1.0000 -0.1001014975
C   C25       1.0  0.06990  0.21748  0.78574  1.0000 -0.0444819177
C   C26       1.0  0.78574  0.92689  0.06990  1.0000 -0.0444819177
C   C27       1.0  0.03252  0.18010  0.32311  1.0000 -0.0444819177
C   C28       1.0  0.32311  0.46426  0.03252  1.0000 -0.0444819177
C   C29       1.0  0.12962  0.29600  0.70602  1.0000 0.6310482049
C   C30       1.0  0.70602  0.86837  0.12962  1.0000 0.6310482049
C   C31       1.0  0.95400  0.12038  0.38163  1.0000 0.6310482049
C   C32       1.0  0.38163  0.54398  0.95400  1.0000 0.6310482049
C   C33       1.0  0.71962  0.73980  0.22022  1.0000 0.6422121618
C   C34       1.0  0.22022  0.32037  0.71962  1.0000 0.6422121618
C   C35       1.0  0.51020  0.53038  0.92963  1.0000 0.6422121618
C   C36       1.0  0.92963  0.02978  0.51020  1.0000 0.6422121618
C   C37       1.0  0.93295  0.45053  0.20189  1.0000 -0.0218002391
C   C38       1.0  0.20189  0.41464  0.93295  1.0000 -0.0218002391
C   C39       1.0  0.79947  0.31705  0.83536  1.0000 -0.0218002391
C   C40       1.0  0.83536  0.04811  0.79947  1.0000 -0.0218002391
C   C41       1.0  0.01030  0.38628  0.06574  1.0000 -0.1001014975
C   C42       1.0  0.06574  0.53769  0.01030  1.0000 -0.1001014975
C   C43       1.0  0.86372  0.23970  0.71231  1.0000 -0.1001014975
C   C44       1.0  0.71231  0.18426  0.86372  1.0000 -0.1001014975
C   C45       1.0  0.94094  0.48092  0.07190  1.0000 -0.1001014975
C   C46       1.0  0.07190  0.50625  0.94094  1.0000 -0.1001014975
C   C47       1.0  0.76908  0.30906  0.74375  1.0000 -0.1001014975
C   C48       1.0  0.74375  0.17810  0.76908  1.0000 -0.1001014975
C   C49       1.0  0.79432  0.63970  0.21412  1.0000 -0.0513692675
C   C50       1.0  0.21412  0.35187  0.79432  1.0000 -0.0513692675
C   C51       1.0  0.61030  0.45568  0.89813  1.0000 -0.0513692675
C   C52       1.0  0.89813  0.03588  0.61030  1.0000 -0.0513692675
C   C53       1.0  0.71697  0.70395  0.35027  1.0000 -0.1001014975
C   C54       1.0  0.35027  0.22882  0.71697  1.0000 -0.1001014975
C   C55       1.0  0.54605  0.53303  0.02118  1.0000 -0.1001014975
C   C56       1.0  0.02118  0.89973  0.54605  1.0000 -0.1001014975
C   C57       1.0  0.78634  0.60932  0.34410  1.0000 -0.1001014975
C   C58       1.0  0.34410  0.26025  0.78634  1.0000 -0.1001014975
C   C59       1.0  0.64068  0.46366  0.98975  1.0000 -0.1001014975
C   C60       1.0  0.98975  0.90590  0.64068  1.0000 -0.1001014975
C   C61       1.0  0.00872  0.34890  0.19712  1.0000 0.649049042
C   C62       1.0  0.19712  0.44527  0.00872  1.0000 0.649049042
C   C63       1.0  0.90110  0.24128  0.80473  1.0000 0.649049042
C   C64       1.0  0.80473  0.05288  0.90110  1.0000 0.649049042
C   C65       1.0  0.52212  0.76130  0.71072  1.0000 0.649049042
C   C66       1.0  0.71072  0.00587  0.52212  1.0000 0.649049042
C   C67       1.0  0.48870  0.72788  0.24413  1.0000 0.649049042
C   C68       1.0  0.24413  0.53928  0.48870  1.0000 0.649049042
C   C69       1.0  0.67493  0.54791  0.41331  1.0000 -0.1001014975
C   C70       1.0  0.41331  0.36386  0.67493  1.0000 -0.1001014975
C   C71       1.0  0.70209  0.57507  0.88614  1.0000 -0.1001014975
C   C72       1.0  0.88614  0.83669  0.70209  1.0000 -0.1001014975
C   C73       1.0  0.53606  0.67384  0.49498  1.0000 -0.0293937803
C   C74       1.0  0.49498  0.29513  0.53606  1.0000 -0.0293937803
C   C75       1.0  0.57616  0.71394  0.95487  1.0000 -0.0293937803
C   C76       1.0  0.95487  0.75502  0.57616  1.0000 -0.0293937803
C   C77       1.0  0.39451  0.82589  0.64553  1.0000 -0.1001014975
C   C78       1.0  0.64553  0.13408  0.39451  1.0000 -0.1001014975
C   C79       1.0  0.42411  0.85549  0.11592  1.0000 -0.1001014975
C   C80       1.0  0.11592  0.60447  0.42411  1.0000 -0.1001014975
C   C81       1.0  0.39193  0.85191  0.71431  1.0000 -0.1072968668
C   C82       1.0  0.71431  0.04186  0.39193  1.0000 -0.1072968668
C   C83       1.0  0.39809  0.85807  0.20814  1.0000 -0.1072968668
C   C84       1.0  0.20814  0.53569  0.39809  1.0000 -0.1072968668
C   C85       1.0  0.53070  0.72608  0.63254  1.0000 -0.0293937803
C   C86       1.0  0.63254  0.11069  0.53070  1.0000 -0.0293937803
C   C87       1.0  0.52392  0.71930  0.13931  1.0000 -0.0293937803
C   C88       1.0  0.13931  0.61746  0.52392  1.0000 -0.0293937803
C   C89       1.0  0.67225  0.57403  0.48199  1.0000 -0.1001014975
C   C90       1.0  0.48199  0.27174  0.67225  1.0000 -0.1001014975
C   C91       1.0  0.67597  0.57775  0.97826  1.0000 -0.1001014975
C   C92       1.0  0.97826  0.76801  0.67597  1.0000 -0.1001014975
C   C93       1.0  0.55132  0.63670  0.40732  1.0000 0.6422121618
C   C94       1.0  0.40732  0.40467  0.55132  1.0000 0.6422121618
C   C95       1.0  0.61330  0.69868  0.84533  1.0000 0.6422121618
C   C96       1.0  0.84533  0.84268  0.61330  1.0000 0.6422121618
C   C97       1.0  0.04589  0.07207  0.88395  1.0000 0.6422121618
C   C98       1.0  0.88395  0.99810  0.04589  1.0000 0.6422121618
C   C99       1.0  0.17793  0.20411  0.25190  1.0000 0.6422121618
C   C100      1.0  0.25190  0.36605  0.17793  1.0000 0.6422121618
C   C101      1.0  0.05040  0.03858  0.01404  1.0000 -0.0892746519
C   C102      1.0  0.01404  0.89699  0.05040  1.0000 -0.0892746519
C   C103      1.0  0.21142  0.19960  0.35301  1.0000 -0.0892746519
C   C104      1.0  0.35301  0.23596  0.21142  1.0000 -0.0892746519
C   C105      1.0  0.12258  0.94476  0.00946  1.0000 -0.1072968668
C   C106      1.0  0.00946  0.92321  0.12258  1.0000 -0.1072968668
C   C107      1.0  0.30524  0.12742  0.32679  1.0000 -0.1072968668
C   C108      1.0  0.32679  0.24054  0.30524  1.0000 -0.1072968668
C   C109      1.0  0.26650  0.78668  0.87094  1.0000 -0.0293937803
C   C110      1.0  0.87094  0.07589  0.26650  1.0000 -0.0293937803
C   C111      1.0  0.46332  0.98350  0.17411  1.0000 -0.0293937803
C   C112      1.0  0.17411  0.37906  0.46332  1.0000 -0.0293937803
C   C113      1.0  0.33815  0.72253  0.73689  1.0000 -0.1001014975
C   C114      1.0  0.73689  0.20244  0.33815  1.0000 -0.1001014975
C   C115      1.0  0.52747  0.91185  0.04756  1.0000 -0.1001014975
C   C116      1.0  0.04756  0.51311  0.52747  1.0000 -0.1001014975
C   C117      1.0  0.26586  0.81644  0.74138  1.0000 -0.0892746519
C   C118      1.0  0.74138  0.17633  0.26586  1.0000 -0.0892746519
C   C119      1.0  0.43356  0.98414  0.07367  1.0000 -0.0892746519
C   C120      1.0  0.07367  0.50862  0.43356  1.0000 -0.0892746519
C   C121      1.0  0.12194  0.97452  0.88010  1.0000 -0.0599228623
C   C122      1.0  0.88010  0.02345  0.12194  1.0000 -0.0599228623
C   C123      1.0  0.27548  0.12806  0.22655  1.0000 -0.0599228623
C   C124      1.0  0.22655  0.36990  0.27548  1.0000 -0.0599228623
C   C125      1.0  0.34882  0.68380  0.86422  1.0000 0.6422121618
C   C126      1.0  0.86422  0.10317  0.34882  1.0000 0.6422121618
C   C127      1.0  0.56620  0.90118  0.14683  1.0000 0.6422121618
C   C128      1.0  0.14683  0.38578  0.56620  1.0000 0.6422121618
C   C129      1.0  0.45028  0.64386  0.34816  1.0000 0.649049042
C   C130      1.0  0.34816  0.55771  0.45028  1.0000 0.649049042
C   C131      1.0  0.60614  0.79972  0.69229  1.0000 0.649049042
C   C132      1.0  0.69229  0.90184  0.60614  1.0000 0.649049042
C   C133      1.0  0.42180  0.62298  0.37384  1.0000 -0.0293937803
C   C134      1.0  0.37384  0.58139  0.42180  1.0000 -0.0293937803
C   C135      1.0  0.62702  0.82820  0.66861  1.0000 -0.0293937803
C   C136      1.0  0.66861  0.87616  0.62702  1.0000 -0.0293937803
C   C137      1.0  0.27506  0.74784  0.51818  1.0000 -0.1001014975
C   C138      1.0  0.51818  0.45893  0.27506  1.0000 -0.1001014975
C   C139      1.0  0.50216  0.97494  0.79107  1.0000 -0.1001014975
C   C140      1.0  0.79107  0.73182  0.50216  1.0000 -0.1001014975
C   C141      1.0  0.25058  0.72736  0.54466  1.0000 -0.1001014975
C   C142      1.0  0.54466  0.47741  0.25058  1.0000 -0.1001014975
C   C143      1.0  0.52264  0.99942  0.77259  1.0000 -0.1001014975
C   C144      1.0  0.77259  0.70534  0.52264  1.0000 -0.1001014975
O   O1        1.0  0.92749  0.29307  0.94955  1.0000 -0.6313872612
O   O2        1.0  0.94955  0.82990  0.92749  1.0000 -0.6313872612
O   O3        1.0  0.95693  0.32251  0.42010  1.0000 -0.6313872612
O   O4        1.0  0.42010  0.30045  0.95693  1.0000 -0.6313872612
O   O5        1.0  0.14995  0.06973  0.68969  1.0000 -0.6598086831
O   O6        1.0  0.68969  0.09064  0.14995  1.0000 -0.6598086831
O   O7        1.0  0.18027  0.10005  0.15936  1.0000 -0.6598086831
O   O8        1.0  0.15936  0.56031  0.18027  1.0000 -0.6598086831
O   O9        1.0  0.00863  0.43501  0.80701  1.0000 -0.618438316
O   O10       1.0  0.80701  0.74936  0.00863  1.0000 -0.618438316
O   O11       1.0  0.81499  0.24137  0.50064  1.0000 -0.618438316
O   O12       1.0  0.50064  0.44299  0.81499  1.0000 -0.618438316
O   O13       1.0  0.26208  0.18386  0.59216  1.0000 -0.6007738984
O   O14       1.0  0.59216  0.96191  0.26208  1.0000 -0.6007738984
O   O15       1.0  0.06614  0.98792  0.28809  1.0000 -0.6007738984
O   O16       1.0  0.28809  0.65784  0.06614  1.0000 -0.6007738984
O   O17       1.0  0.58552  0.88250  0.34992  1.0000 -0.6007738984
O   O18       1.0  0.34992  0.18207  0.58552  1.0000 -0.6007738984
O   O19       1.0  0.36750  0.66448  0.06793  1.0000 -0.6007738984
O   O20       1.0  0.06793  0.90008  0.36750  1.0000 -0.6007738984
O   O21       1.0  0.80332  0.67190  0.09232  1.0000 -0.6313872612
O   O22       1.0  0.09232  0.43247  0.80332  1.0000 -0.6313872612
O   O23       1.0  0.57810  0.44668  0.81753  1.0000 -0.6313872612
O   O24       1.0  0.81753  0.15768  0.57810  1.0000 -0.6313872612
O   O25       1.0  0.92625  0.41883  0.32779  1.0000 -0.6669526375
O   O26       1.0  0.32779  0.32714  0.92625  1.0000 -0.6669526375
O   O27       1.0  0.83117  0.32375  0.92286  1.0000 -0.6669526375
O   O28       1.0  0.92286  0.92221  0.83117  1.0000 -0.6669526375
O   O29       1.0  0.14440  0.20498  0.06684  1.0000 -0.6113943931
O   O30       1.0  0.06684  0.58379  0.14440  1.0000 -0.6113943931
O   O31       1.0  0.04502  0.10560  0.66621  1.0000 -0.6113943931
O   O32       1.0  0.66621  0.18316  0.04502  1.0000 -0.6113943931
O   O33       1.0  0.39223  0.90021  0.84501  1.0000 -0.6113943931
O   O34       1.0  0.84501  0.86256  0.39223  1.0000 -0.6113943931
O   O35       1.0  0.34979  0.85777  0.38744  1.0000 -0.6113943931
O   O36       1.0  0.38744  0.40499  0.34979  1.0000 -0.6113943931
O   O37       1.0  0.65062  0.64320  0.63382  1.0000 -0.6598086831
O   O38       1.0  0.63382  0.07237  0.65062  1.0000 -0.6598086831
O   O39       1.0  0.60680  0.59938  0.17763  1.0000 -0.6598086831
O   O40       1.0  0.17763  0.61618  0.60680  1.0000 -0.6598086831
O   O41       1.0  0.41810  0.75808  0.49014  1.0000 -0.6928032166
O   O42       1.0  0.49014  0.33369  0.41810  1.0000 -0.6928032166
O   O43       1.0  0.49192  0.83190  0.91631  1.0000 -0.6928032166
O   O44       1.0  0.91631  0.75986  0.49192  1.0000 -0.6928032166
O   O45       1.0  0.67834  0.50292  0.27330  1.0000 -0.573553083
O   O46       1.0  0.27330  0.54545  0.67834  1.0000 -0.573553083
O   O47       1.0  0.74708  0.57166  0.70455  1.0000 -0.573553083
O   O48       1.0  0.70455  0.97670  0.74708  1.0000 -0.573553083
O   O49       1.0  0.91645  0.21303  0.00959  1.0000 -0.6007738984
O   O50       1.0  0.00959  0.86094  0.91645  1.0000 -0.6007738984
O   O51       1.0  0.03697  0.33355  0.38906  1.0000 -0.6007738984
O   O52       1.0  0.38906  0.24041  0.03697  1.0000 -0.6007738984
O   O53       1.0  0.11674  0.00792  0.75850  1.0000 -0.6503005302
O   O54       1.0  0.75850  0.11685  0.11674  1.0000 -0.6503005302
O   O55       1.0  0.24208  0.13326  0.13315  1.0000 -0.6503005302
O   O56       1.0  0.13315  0.49150  0.24208  1.0000 -0.6503005302
O   O57       1.0  0.27682  0.74900  0.98822  1.0000 -0.6313872612
O   O58       1.0  0.98822  0.98597  0.27682  1.0000 -0.6313872612
O   O59       1.0  0.50100  0.97318  0.26403  1.0000 -0.6313872612
O   O60       1.0  0.26403  0.26178  0.50100  1.0000 -0.6313872612
O   O61       1.0  0.48502  0.53940  0.73402  1.0000 -0.6113943931
O   O62       1.0  0.73402  0.24157  0.48502  1.0000 -0.6113943931
O   O63       1.0  0.71060  0.76498  0.00843  1.0000 -0.6113943931
O   O64       1.0  0.00843  0.51598  0.71060  1.0000 -0.6113943931
O   O65       1.0  0.33071  0.78289  0.45113  1.0000 -0.6313872612
O   O66       1.0  0.45113  0.43528  0.33071  1.0000 -0.6313872612
O   O67       1.0  0.46711  0.91929  0.81472  1.0000 -0.6313872612
O   O68       1.0  0.81472  0.79887  0.46711  1.0000 -0.6313872612
O   O69       1.0  0.59126  0.52104  0.23158  1.0000 -0.6598086831
O   O70       1.0  0.23158  0.65613  0.59126  1.0000 -0.6598086831
O   O71       1.0  0.72896  0.65874  0.59387  1.0000 -0.6598086831
O   O72       1.0  0.59387  0.01842  0.72896  1.0000 -0.6598086831
