# DDEC6 charges by PACMAN v1.1 (https://github.com/mtap-research/PACMAN-charge/)
data_2015[Cu][nan]3[ASR]19
_chemical_formula_sum              "Cu28 H108 C168 I16 N16 O48"
_cell_length_a       27.538
_cell_length_b       27.538
_cell_length_c       20.139
_cell_angle_alpha    90
_cell_angle_beta     90
_cell_angle_gamma    120

_symmetry_space_group_name_H-M    "P 1"
_symmetry_Int_Tables_number       1

loop_
  _symmetry_equiv_pos_as_xyz
  'x, y, z'

loop_
  _atom_site_type_symbol
  _atom_site_label
  _atom_site_symmetry_multiplicity
  _atom_site_fract_x
  _atom_site_fract_y
  _atom_site_fract_z
  _atom_site_occupancy
  _atom_site_charge
Cu  Cu1       1.0  0.28777  0.60524  0.47476  1.0000 0.1612198438
Cu  Cu2       1.0  0.39476  0.68253  0.47476  1.0000 0.1612198438
Cu  Cu3       1.0  0.31747  0.71223  0.47476  1.0000 0.1612198438
Cu  Cu4       1.0  0.71223  0.39476  0.97476  1.0000 0.1612198438
Cu  Cu5       1.0  0.60524  0.31747  0.97476  1.0000 0.1612198438
Cu  Cu6       1.0  0.68253  0.28777  0.97476  1.0000 0.1612198438
Cu  Cu7       1.0  0.71223  0.39476  0.52524  1.0000 0.1612198438
Cu  Cu8       1.0  0.60524  0.31747  0.52524  1.0000 0.1612198438
Cu  Cu9       1.0  0.68253  0.28777  0.52524  1.0000 0.1612198438
Cu  Cu10      1.0  0.28777  0.60524  0.02524  1.0000 0.1612198438
Cu  Cu11      1.0  0.39476  0.68253  0.02524  1.0000 0.1612198438
Cu  Cu12      1.0  0.31747  0.71223  0.02524  1.0000 0.1612198438
Cu  Cu13      1.0  0.33333  0.66667  0.58258  1.0000 0.165527695
Cu  Cu14      1.0  0.66667  0.33333  0.08258  1.0000 0.165527695
Cu  Cu15      1.0  0.66667  0.33333  0.41742  1.0000 0.165527695
Cu  Cu16      1.0  0.33333  0.66667  0.91742  1.0000 0.165527695
Cu  Cu17      1.0  0.23443  0.33287  0.25000  1.0000 0.8458727236
Cu  Cu18      1.0  0.66713  0.90156  0.25000  1.0000 0.8458727236
Cu  Cu19      1.0  0.09844  0.76557  0.25000  1.0000 0.8458727236
Cu  Cu20      1.0  0.76557  0.66713  0.75000  1.0000 0.8458727236
Cu  Cu21      1.0  0.33287  0.09844  0.75000  1.0000 0.8458727236
Cu  Cu22      1.0  0.90156  0.23443  0.75000  1.0000 0.8458727236
Cu  Cu23      1.0  0.32881  0.43117  0.25000  1.0000 0.8619926906
Cu  Cu24      1.0  0.56883  0.89764  0.25000  1.0000 0.8619926906
Cu  Cu25      1.0  0.10236  0.67119  0.25000  1.0000 0.8619926906
Cu  Cu26      1.0  0.67119  0.56883  0.75000  1.0000 0.8619926906
Cu  Cu27      1.0  0.43117  0.10236  0.75000  1.0000 0.8619926906
Cu  Cu28      1.0  0.89764  0.32881  0.75000  1.0000 0.8619926906
H   H1        1.0  0.28360  0.51990  0.37810  1.0000 0.1292006416
H   H2        1.0  0.48010  0.76370  0.37810  1.0000 0.1292006416
H   H3        1.0  0.23630  0.71640  0.37810  1.0000 0.1292006416
H   H4        1.0  0.71640  0.48010  0.87810  1.0000 0.1292006416
H   H5        1.0  0.51990  0.23630  0.87810  1.0000 0.1292006416
H   H6        1.0  0.76370  0.28360  0.87810  1.0000 0.1292006416
H   H7        1.0  0.71640  0.48010  0.62190  1.0000 0.1292006416
H   H8        1.0  0.51990  0.23630  0.62190  1.0000 0.1292006416
H   H9        1.0  0.76370  0.28360  0.62190  1.0000 0.1292006416
H   H10       1.0  0.28360  0.51990  0.12190  1.0000 0.1292006416
H   H11       1.0  0.48010  0.76370  0.12190  1.0000 0.1292006416
H   H12       1.0  0.23630  0.71640  0.12190  1.0000 0.1292006416
H   H13       1.0  0.15250  0.36960  0.42000  1.0000 0.1292006416
H   H14       1.0  0.63040  0.78290  0.42000  1.0000 0.1292006416
H   H15       1.0  0.21710  0.84750  0.42000  1.0000 0.1292006416
H   H16       1.0  0.84750  0.63040  0.92000  1.0000 0.1292006416
H   H17       1.0  0.36960  0.21710  0.92000  1.0000 0.1292006416
H   H18       1.0  0.78290  0.15250  0.92000  1.0000 0.1292006416
H   H19       1.0  0.84750  0.63040  0.58000  1.0000 0.1292006416
H   H20       1.0  0.36960  0.21710  0.58000  1.0000 0.1292006416
H   H21       1.0  0.78290  0.15250  0.58000  1.0000 0.1292006416
H   H22       1.0  0.15250  0.36960  0.08000  1.0000 0.1292006416
H   H23       1.0  0.63040  0.78290  0.08000  1.0000 0.1292006416
H   H24       1.0  0.21710  0.84750  0.08000  1.0000 0.1292006416
H   H25       1.0  0.18150  0.50720  0.51880  1.0000 0.104154871
H   H26       1.0  0.49280  0.67430  0.51880  1.0000 0.104154871
H   H27       1.0  0.32570  0.81850  0.51880  1.0000 0.104154871
H   H28       1.0  0.81850  0.49280  0.01880  1.0000 0.104154871
H   H29       1.0  0.50720  0.32570  0.01880  1.0000 0.104154871
H   H30       1.0  0.67430  0.18150  0.01880  1.0000 0.104154871
H   H31       1.0  0.81850  0.49280  0.48120  1.0000 0.104154871
H   H32       1.0  0.50720  0.32570  0.48120  1.0000 0.104154871
H   H33       1.0  0.67430  0.18150  0.48120  1.0000 0.104154871
H   H34       1.0  0.18150  0.50720  0.98120  1.0000 0.104154871
H   H35       1.0  0.49280  0.67430  0.98120  1.0000 0.104154871
H   H36       1.0  0.32570  0.81850  0.98120  1.0000 0.104154871
H   H37       1.0  0.11200  0.33150  0.52710  1.0000 0.1174784786
H   H38       1.0  0.66850  0.78050  0.52710  1.0000 0.1174784786
H   H39       1.0  0.21950  0.88800  0.52710  1.0000 0.1174784786
H   H40       1.0  0.88800  0.66850  0.02710  1.0000 0.1174784786
H   H41       1.0  0.33150  0.21950  0.02710  1.0000 0.1174784786
H   H42       1.0  0.78050  0.11200  0.02710  1.0000 0.1174784786
H   H43       1.0  0.88800  0.66850  0.47290  1.0000 0.1174784786
H   H44       1.0  0.33150  0.21950  0.47290  1.0000 0.1174784786
H   H45       1.0  0.78050  0.11200  0.47290  1.0000 0.1174784786
H   H46       1.0  0.11200  0.33150  0.97290  1.0000 0.1174784786
H   H47       1.0  0.66850  0.78050  0.97290  1.0000 0.1174784786
H   H48       1.0  0.21950  0.88800  0.97290  1.0000 0.1174784786
H   H49       1.0  0.03710  0.28610  0.60140  1.0000 0.1292006416
H   H50       1.0  0.71390  0.75100  0.60140  1.0000 0.1292006416
H   H51       1.0  0.24900  0.96290  0.60140  1.0000 0.1292006416
H   H52       1.0  0.96290  0.71390  0.10140  1.0000 0.1292006416
H   H53       1.0  0.28610  0.24900  0.10140  1.0000 0.1292006416
H   H54       1.0  0.75100  0.03710  0.10140  1.0000 0.1292006416
H   H55       1.0  0.96290  0.71390  0.39860  1.0000 0.1292006416
H   H56       1.0  0.28610  0.24900  0.39860  1.0000 0.1292006416
H   H57       1.0  0.75100  0.03710  0.39860  1.0000 0.1292006416
H   H58       1.0  0.03710  0.28610  0.89860  1.0000 0.1292006416
H   H59       1.0  0.71390  0.75100  0.89860  1.0000 0.1292006416
H   H60       1.0  0.24900  0.96290  0.89860  1.0000 0.1292006416
H   H61       1.0  0.01360  0.41820  0.59890  1.0000 0.1292006416
H   H62       1.0  0.58180  0.59540  0.59890  1.0000 0.1292006416
H   H63       1.0  0.40460  0.98640  0.59890  1.0000 0.1292006416
H   H64       1.0  0.98640  0.58180  0.09890  1.0000 0.1292006416
H   H65       1.0  0.41820  0.40460  0.09890  1.0000 0.1292006416
H   H66       1.0  0.59540  0.01360  0.09890  1.0000 0.1292006416
H   H67       1.0  0.98640  0.58180  0.40110  1.0000 0.1292006416
H   H68       1.0  0.41820  0.40460  0.40110  1.0000 0.1292006416
H   H69       1.0  0.59540  0.01360  0.40110  1.0000 0.1292006416
H   H70       1.0  0.01360  0.41820  0.90110  1.0000 0.1292006416
H   H71       1.0  0.58180  0.59540  0.90110  1.0000 0.1292006416
H   H72       1.0  0.40460  0.98640  0.90110  1.0000 0.1292006416
H   H73       1.0  0.08680  0.46220  0.52450  1.0000 0.1174784786
H   H74       1.0  0.53780  0.62460  0.52450  1.0000 0.1174784786
H   H75       1.0  0.37540  0.91320  0.52450  1.0000 0.1174784786
H   H76       1.0  0.91320  0.53780  0.02450  1.0000 0.1174784786
H   H77       1.0  0.46220  0.37540  0.02450  1.0000 0.1174784786
H   H78       1.0  0.62460  0.08680  0.02450  1.0000 0.1174784786
H   H79       1.0  0.91320  0.53780  0.47550  1.0000 0.1174784786
H   H80       1.0  0.46220  0.37540  0.47550  1.0000 0.1174784786
H   H81       1.0  0.62460  0.08680  0.47550  1.0000 0.1174784786
H   H82       1.0  0.08680  0.46220  0.97550  1.0000 0.1174784786
H   H83       1.0  0.53780  0.62460  0.97550  1.0000 0.1174784786
H   H84       1.0  0.37540  0.91320  0.97550  1.0000 0.1174784786
H   H85       1.0  0.41520  0.72410  0.69550  1.0000 0.107122503
H   H86       1.0  0.27590  0.69110  0.69550  1.0000 0.107122503
H   H87       1.0  0.30890  0.58480  0.69550  1.0000 0.107122503
H   H88       1.0  0.58480  0.27590  0.19550  1.0000 0.107122503
H   H89       1.0  0.72410  0.30890  0.19550  1.0000 0.107122503
H   H90       1.0  0.69110  0.41520  0.19550  1.0000 0.107122503
H   H91       1.0  0.58480  0.27590  0.30450  1.0000 0.107122503
H   H92       1.0  0.72410  0.30890  0.30450  1.0000 0.107122503
H   H93       1.0  0.69110  0.41520  0.30450  1.0000 0.107122503
H   H94       1.0  0.41520  0.72410  0.80450  1.0000 0.107122503
H   H95       1.0  0.27590  0.69110  0.80450  1.0000 0.107122503
H   H96       1.0  0.30890  0.58480  0.80450  1.0000 0.107122503
H   H97       1.0  0.40380  0.66220  0.69550  1.0000 0.107122503
H   H98       1.0  0.33780  0.74160  0.69550  1.0000 0.107122503
H   H99       1.0  0.25840  0.59620  0.69550  1.0000 0.107122503
H   H100      1.0  0.59620  0.33780  0.19550  1.0000 0.107122503
H   H101      1.0  0.66220  0.25840  0.19550  1.0000 0.107122503
H   H102      1.0  0.74160  0.40380  0.19550  1.0000 0.107122503
H   H103      1.0  0.59620  0.33780  0.30450  1.0000 0.107122503
H   H104      1.0  0.66220  0.25840  0.30450  1.0000 0.107122503
H   H105      1.0  0.74160  0.40380  0.30450  1.0000 0.107122503
H   H106      1.0  0.40380  0.66220  0.80450  1.0000 0.107122503
H   H107      1.0  0.33780  0.74160  0.80450  1.0000 0.107122503
H   H108      1.0  0.25840  0.59620  0.80450  1.0000 0.107122503
C   C1        1.0  0.25150  0.49810  0.40320  1.0000 0.0611384708
C   C2        1.0  0.50190  0.75340  0.40320  1.0000 0.0611384708
C   C3        1.0  0.24660  0.74850  0.40320  1.0000 0.0611384708
C   C4        1.0  0.74850  0.50190  0.90320  1.0000 0.0611384708
C   C5        1.0  0.49810  0.24660  0.90320  1.0000 0.0611384708
C   C6        1.0  0.75340  0.25150  0.90320  1.0000 0.0611384708
C   C7        1.0  0.74850  0.50190  0.59680  1.0000 0.0611384708
C   C8        1.0  0.49810  0.24660  0.59680  1.0000 0.0611384708
C   C9        1.0  0.75340  0.25150  0.59680  1.0000 0.0611384708
C   C10       1.0  0.25150  0.49810  0.09680  1.0000 0.0611384708
C   C11       1.0  0.50190  0.75340  0.09680  1.0000 0.0611384708
C   C12       1.0  0.24660  0.74850  0.09680  1.0000 0.0611384708
C   C13       1.0  0.22080  0.44100  0.39000  1.0000 -0.0669017479
C   C14       1.0  0.55900  0.77980  0.39000  1.0000 -0.0669017479
C   C15       1.0  0.22020  0.77920  0.39000  1.0000 -0.0669017479
C   C16       1.0  0.77920  0.55900  0.89000  1.0000 -0.0669017479
C   C17       1.0  0.44100  0.22020  0.89000  1.0000 -0.0669017479
C   C18       1.0  0.77980  0.22080  0.89000  1.0000 -0.0669017479
C   C19       1.0  0.77920  0.55900  0.61000  1.0000 -0.0669017479
C   C20       1.0  0.44100  0.22020  0.61000  1.0000 -0.0669017479
C   C21       1.0  0.77980  0.22080  0.61000  1.0000 -0.0669017479
C   C22       1.0  0.22080  0.44100  0.11000  1.0000 -0.0669017479
C   C23       1.0  0.55900  0.77980  0.11000  1.0000 -0.0669017479
C   C24       1.0  0.22020  0.77920  0.11000  1.0000 -0.0669017479
C   C25       1.0  0.17370  0.40800  0.42750  1.0000 -0.1028804724
C   C26       1.0  0.59200  0.76570  0.42750  1.0000 -0.1028804724
C   C27       1.0  0.23430  0.82630  0.42750  1.0000 -0.1028804724
C   C28       1.0  0.82630  0.59200  0.92750  1.0000 -0.1028804724
C   C29       1.0  0.40800  0.23430  0.92750  1.0000 -0.1028804724
C   C30       1.0  0.76570  0.17370  0.92750  1.0000 -0.1028804724
C   C31       1.0  0.82630  0.59200  0.57250  1.0000 -0.1028804724
C   C32       1.0  0.40800  0.23430  0.57250  1.0000 -0.1028804724
C   C33       1.0  0.76570  0.17370  0.57250  1.0000 -0.1028804724
C   C34       1.0  0.17370  0.40800  0.07250  1.0000 -0.1028804724
C   C35       1.0  0.59200  0.76570  0.07250  1.0000 -0.1028804724
C   C36       1.0  0.23430  0.82630  0.07250  1.0000 -0.1028804724
C   C37       1.0  0.15850  0.43330  0.47700  1.0000 0.0213310315
C   C38       1.0  0.56670  0.72520  0.47700  1.0000 0.0213310315
C   C39       1.0  0.27480  0.84150  0.47700  1.0000 0.0213310315
C   C40       1.0  0.84150  0.56670  0.97700  1.0000 0.0213310315
C   C41       1.0  0.43330  0.27480  0.97700  1.0000 0.0213310315
C   C42       1.0  0.72520  0.15850  0.97700  1.0000 0.0213310315
C   C43       1.0  0.84150  0.56670  0.52300  1.0000 0.0213310315
C   C44       1.0  0.43330  0.27480  0.52300  1.0000 0.0213310315
C   C45       1.0  0.72520  0.15850  0.52300  1.0000 0.0213310315
C   C46       1.0  0.15850  0.43330  0.02300  1.0000 0.0213310315
C   C47       1.0  0.56670  0.72520  0.02300  1.0000 0.0213310315
C   C48       1.0  0.27480  0.84150  0.02300  1.0000 0.0213310315
C   C49       1.0  0.19170  0.49050  0.48570  1.0000 0.033376258
C   C50       1.0  0.50950  0.70120  0.48570  1.0000 0.033376258
C   C51       1.0  0.29880  0.80830  0.48570  1.0000 0.033376258
C   C52       1.0  0.80830  0.50950  0.98570  1.0000 0.033376258
C   C53       1.0  0.49050  0.29880  0.98570  1.0000 0.033376258
C   C54       1.0  0.70120  0.19170  0.98570  1.0000 0.033376258
C   C55       1.0  0.80830  0.50950  0.51430  1.0000 0.033376258
C   C56       1.0  0.49050  0.29880  0.51430  1.0000 0.033376258
C   C57       1.0  0.70120  0.19170  0.51430  1.0000 0.033376258
C   C58       1.0  0.19170  0.49050  0.01430  1.0000 0.033376258
C   C59       1.0  0.50950  0.70120  0.01430  1.0000 0.033376258
C   C60       1.0  0.29880  0.80830  0.01430  1.0000 0.033376258
C   C61       1.0  0.24230  0.41780  0.33840  1.0000 0.5797589457
C   C62       1.0  0.58220  0.82450  0.33840  1.0000 0.5797589457
C   C63       1.0  0.17550  0.75770  0.33840  1.0000 0.5797589457
C   C64       1.0  0.75770  0.58220  0.83840  1.0000 0.5797589457
C   C65       1.0  0.41780  0.17550  0.83840  1.0000 0.5797589457
C   C66       1.0  0.82450  0.24230  0.83840  1.0000 0.5797589457
C   C67       1.0  0.75770  0.58220  0.66160  1.0000 0.5797589457
C   C68       1.0  0.41780  0.17550  0.66160  1.0000 0.5797589457
C   C69       1.0  0.82450  0.24230  0.66160  1.0000 0.5797589457
C   C70       1.0  0.24230  0.41780  0.16160  1.0000 0.5797589457
C   C71       1.0  0.58220  0.82450  0.16160  1.0000 0.5797589457
C   C72       1.0  0.17550  0.75770  0.16160  1.0000 0.5797589457
C   C73       1.0  0.10790  0.40230  0.52030  1.0000 0.0753885518
C   C74       1.0  0.59770  0.70560  0.52030  1.0000 0.0741802912
C   C75       1.0  0.29440  0.89210  0.52030  1.0000 0.0741802912
C   C76       1.0  0.89210  0.59770  0.02030  1.0000 0.0741802912
C   C77       1.0  0.40230  0.29440  0.02030  1.0000 0.0741802912
C   C78       1.0  0.70560  0.10790  0.02030  1.0000 0.0741802912
C   C79       1.0  0.89210  0.59770  0.47970  1.0000 0.0741802912
C   C80       1.0  0.40230  0.29440  0.47970  1.0000 0.0741802912
C   C81       1.0  0.70560  0.10790  0.47970  1.0000 0.0741802912
C   C82       1.0  0.10790  0.40230  0.97970  1.0000 0.0753885518
C   C83       1.0  0.59770  0.70560  0.97970  1.0000 0.0741802912
C   C84       1.0  0.29440  0.89210  0.97970  1.0000 0.0741802912
C   C85       1.0  0.09290  0.34930  0.54200  1.0000 -0.1541211692
C   C86       1.0  0.65070  0.74360  0.54200  1.0000 -0.1541211692
C   C87       1.0  0.25640  0.90710  0.54200  1.0000 -0.1541211692
C   C88       1.0  0.90710  0.65070  0.04200  1.0000 -0.1541211692
C   C89       1.0  0.34930  0.25640  0.04200  1.0000 -0.1541211692
C   C90       1.0  0.74360  0.09290  0.04200  1.0000 -0.1541211692
C   C91       1.0  0.90710  0.65070  0.45800  1.0000 -0.1541211692
C   C92       1.0  0.34930  0.25640  0.45800  1.0000 -0.1541211692
C   C93       1.0  0.74360  0.09290  0.45800  1.0000 -0.1541211692
C   C94       1.0  0.09290  0.34930  0.95800  1.0000 -0.1541211692
C   C95       1.0  0.65070  0.74360  0.95800  1.0000 -0.1541211692
C   C96       1.0  0.25640  0.90710  0.95800  1.0000 -0.1541211692
C   C97       1.0  0.04790  0.32230  0.58710  1.0000 -0.0811992047
C   C98       1.0  0.67770  0.72560  0.58710  1.0000 -0.0811992047
C   C99       1.0  0.27440  0.95210  0.58710  1.0000 -0.0811992047
C   C100      1.0  0.95210  0.67770  0.08710  1.0000 -0.0811992047
C   C101      1.0  0.32230  0.27440  0.08710  1.0000 -0.0811992047
C   C102      1.0  0.72560  0.04790  0.08710  1.0000 -0.0811992047
C   C103      1.0  0.95210  0.67770  0.41290  1.0000 -0.0811992047
C   C104      1.0  0.32230  0.27440  0.41290  1.0000 -0.0811992047
C   C105      1.0  0.72560  0.04790  0.41290  1.0000 -0.0811992047
C   C106      1.0  0.04790  0.32230  0.91290  1.0000 -0.0811992047
C   C107      1.0  0.67770  0.72560  0.91290  1.0000 -0.0811992047
C   C108      1.0  0.27440  0.95210  0.91290  1.0000 -0.0811992047
C   C109      1.0  0.01960  0.34880  0.61080  1.0000 -0.0385963589
C   C110      1.0  0.65120  0.67080  0.61080  1.0000 -0.0385963589
C   C111      1.0  0.32920  0.98040  0.61080  1.0000 -0.0385963589
C   C112      1.0  0.98040  0.65120  0.11080  1.0000 -0.0385963589
C   C113      1.0  0.34880  0.32920  0.11080  1.0000 -0.0385963589
C   C114      1.0  0.67080  0.01960  0.11080  1.0000 -0.0385963589
C   C115      1.0  0.98040  0.65120  0.38920  1.0000 -0.0385963589
C   C116      1.0  0.34880  0.32920  0.38920  1.0000 -0.0385963589
C   C117      1.0  0.67080  0.01960  0.38920  1.0000 -0.0385963589
C   C118      1.0  0.01960  0.34880  0.88920  1.0000 -0.0385963589
C   C119      1.0  0.65120  0.67080  0.88920  1.0000 -0.0385963589
C   C120      1.0  0.32920  0.98040  0.88920  1.0000 -0.0385963589
C   C121      1.0  0.03360  0.40080  0.58580  1.0000 -0.0811992047
C   C122      1.0  0.59920  0.63280  0.58580  1.0000 -0.0811992047
C   C123      1.0  0.36720  0.96640  0.58580  1.0000 -0.0811992047
C   C124      1.0  0.96640  0.59920  0.08580  1.0000 -0.0811992047
C   C125      1.0  0.40080  0.36720  0.08580  1.0000 -0.0811992047
C   C126      1.0  0.63280  0.03360  0.08580  1.0000 -0.0811992047
C   C127      1.0  0.96640  0.59920  0.41420  1.0000 -0.0811992047
C   C128      1.0  0.40080  0.36720  0.41420  1.0000 -0.0811992047
C   C129      1.0  0.63280  0.03360  0.41420  1.0000 -0.0811992047
C   C130      1.0  0.03360  0.40080  0.91420  1.0000 -0.0811992047
C   C131      1.0  0.59920  0.63280  0.91420  1.0000 -0.0811992047
C   C132      1.0  0.36720  0.96640  0.91420  1.0000 -0.0811992047
C   C133      1.0  0.07760  0.42710  0.54100  1.0000 -0.1569046038
C   C134      1.0  0.57290  0.65050  0.54100  1.0000 -0.1541211692
C   C135      1.0  0.34950  0.92240  0.54100  1.0000 -0.1569046038
C   C136      1.0  0.92240  0.57290  0.04100  1.0000 -0.1541211692
C   C137      1.0  0.42710  0.34950  0.04100  1.0000 -0.1569046038
C   C138      1.0  0.65050  0.07760  0.04100  1.0000 -0.1541211692
C   C139      1.0  0.92240  0.57290  0.45900  1.0000 -0.1541211692
C   C140      1.0  0.42710  0.34950  0.45900  1.0000 -0.1541211692
C   C141      1.0  0.65050  0.07760  0.45900  1.0000 -0.1541211692
C   C142      1.0  0.07760  0.42710  0.95900  1.0000 -0.1569046038
C   C143      1.0  0.57290  0.65050  0.95900  1.0000 -0.1541211692
C   C144      1.0  0.34950  0.92240  0.95900  1.0000 -0.1569046038
C   C145      1.0  0.97360  0.32140  0.66240  1.0000 0.5738950904
C   C146      1.0  0.67860  0.65220  0.66240  1.0000 0.5738950904
C   C147      1.0  0.34780  0.02640  0.66240  1.0000 0.5738950904
C   C148      1.0  0.02640  0.67860  0.16240  1.0000 0.5738950904
C   C149      1.0  0.32140  0.34780  0.16240  1.0000 0.5738950904
C   C150      1.0  0.65220  0.97360  0.16240  1.0000 0.5738950904
C   C151      1.0  0.02640  0.67860  0.33760  1.0000 0.5738950904
C   C152      1.0  0.32140  0.34780  0.33760  1.0000 0.5738950904
C   C153      1.0  0.65220  0.97360  0.33760  1.0000 0.5738950904
C   C154      1.0  0.97360  0.32140  0.83760  1.0000 0.5738950904
C   C155      1.0  0.67860  0.65220  0.83760  1.0000 0.5738950904
C   C156      1.0  0.34780  0.02640  0.83760  1.0000 0.5738950904
C   C157      1.0  0.39010  0.68640  0.71150  1.0000 -0.1191510957
C   C158      1.0  0.31360  0.70370  0.71150  1.0000 -0.1191510957
C   C159      1.0  0.29630  0.60990  0.71150  1.0000 -0.1191510957
C   C160      1.0  0.60990  0.31360  0.21150  1.0000 -0.1191510957
C   C161      1.0  0.68640  0.29630  0.21150  1.0000 -0.1191510957
C   C162      1.0  0.70370  0.39010  0.21150  1.0000 -0.1191510957
C   C163      1.0  0.60990  0.31360  0.28850  1.0000 -0.1191510957
C   C164      1.0  0.68640  0.29630  0.28850  1.0000 -0.1191510957
C   C165      1.0  0.70370  0.39010  0.28850  1.0000 -0.1191510957
C   C166      1.0  0.39010  0.68640  0.78850  1.0000 -0.1191510957
C   C167      1.0  0.31360  0.70370  0.78850  1.0000 -0.1191510957
C   C168      1.0  0.29630  0.60990  0.78850  1.0000 -0.1191510957
I   I1        1.0  0.22672  0.63420  0.54931  1.0000 -0.3625350286
I   I2        1.0  0.36580  0.59252  0.54931  1.0000 -0.3625350286
I   I3        1.0  0.40748  0.77328  0.54931  1.0000 -0.3625350286
I   I4        1.0  0.77328  0.36580  0.04931  1.0000 -0.3625350286
I   I5        1.0  0.63420  0.40748  0.04931  1.0000 -0.3625350286
I   I6        1.0  0.59252  0.22672  0.04931  1.0000 -0.3625350286
I   I7        1.0  0.77328  0.36580  0.45069  1.0000 -0.3625350286
I   I8        1.0  0.63420  0.40748  0.45069  1.0000 -0.3625350286
I   I9        1.0  0.59252  0.22672  0.45069  1.0000 -0.3625350286
I   I10       1.0  0.22672  0.63420  0.95069  1.0000 -0.3625350286
I   I11       1.0  0.36580  0.59252  0.95069  1.0000 -0.3625350286
I   I12       1.0  0.40748  0.77328  0.95069  1.0000 -0.3625350286
I   I13       1.0  0.33333  0.66667  0.36496  1.0000 -0.247054628
I   I14       1.0  0.66667  0.33333  0.86496  1.0000 -0.247054628
I   I15       1.0  0.66667  0.33333  0.63504  1.0000 -0.247054628
I   I16       1.0  0.33333  0.66667  0.13504  1.0000 -0.247054628
N   N1        1.0  0.23769  0.52387  0.45010  1.0000 -0.1569046038
N   N2        1.0  0.47613  0.71382  0.45010  1.0000 -0.1569046038
N   N3        1.0  0.28618  0.76231  0.45010  1.0000 -0.1569046038
N   N4        1.0  0.76231  0.47613  0.95010  1.0000 -0.1569046038
N   N5        1.0  0.52387  0.28618  0.95010  1.0000 -0.1569046038
N   N6        1.0  0.71382  0.23769  0.95010  1.0000 -0.1569046038
N   N7        1.0  0.76231  0.47613  0.54990  1.0000 -0.1569046038
N   N8        1.0  0.52387  0.28618  0.54990  1.0000 -0.1569046038
N   N9        1.0  0.71382  0.23769  0.54990  1.0000 -0.1569046038
N   N10       1.0  0.23769  0.52387  0.04990  1.0000 -0.1569046038
N   N11       1.0  0.47613  0.71382  0.04990  1.0000 -0.1569046038
N   N12       1.0  0.28618  0.76231  0.04990  1.0000 -0.1569046038
N   N13       1.0  0.33333  0.66667  0.68540  1.0000 -0.052233328
N   N14       1.0  0.66667  0.33333  0.18540  1.0000 -0.052233328
N   N15       1.0  0.66667  0.33333  0.31460  1.0000 -0.052233328
N   N16       1.0  0.33333  0.66667  0.81460  1.0000 -0.052233328
O   O1        1.0  0.21137  0.36887  0.31983  1.0000 -0.5018658304
O   O2        1.0  0.63113  0.84250  0.31983  1.0000 -0.5018658304
O   O3        1.0  0.15750  0.78863  0.31983  1.0000 -0.5018658304
O   O4        1.0  0.78863  0.63113  0.81983  1.0000 -0.5018658304
O   O5        1.0  0.36887  0.15750  0.81983  1.0000 -0.5018658304
O   O6        1.0  0.84250  0.21137  0.81983  1.0000 -0.5018658304
O   O7        1.0  0.78863  0.63113  0.68017  1.0000 -0.5018658304
O   O8        1.0  0.36887  0.15750  0.68017  1.0000 -0.5018658304
O   O9        1.0  0.84250  0.21137  0.68017  1.0000 -0.5018658304
O   O10       1.0  0.21137  0.36887  0.18017  1.0000 -0.5018658304
O   O11       1.0  0.63113  0.84250  0.18017  1.0000 -0.5018658304
O   O12       1.0  0.15750  0.78863  0.18017  1.0000 -0.5018658304
O   O13       1.0  0.29103  0.45132  0.31759  1.0000 -0.5274928872
O   O14       1.0  0.54868  0.83971  0.31759  1.0000 -0.5274928872
O   O15       1.0  0.16029  0.70897  0.31759  1.0000 -0.5274928872
O   O16       1.0  0.70897  0.54868  0.81759  1.0000 -0.5274928872
O   O17       1.0  0.45132  0.16029  0.81759  1.0000 -0.5274928872
O   O18       1.0  0.83971  0.29103  0.81759  1.0000 -0.5274928872
O   O19       1.0  0.70897  0.54868  0.68241  1.0000 -0.5274928872
O   O20       1.0  0.45132  0.16029  0.68241  1.0000 -0.5274928872
O   O21       1.0  0.83971  0.29103  0.68241  1.0000 -0.5274928872
O   O22       1.0  0.29103  0.45132  0.18241  1.0000 -0.5274928872
O   O23       1.0  0.54868  0.83971  0.18241  1.0000 -0.5274928872
O   O24       1.0  0.16029  0.70897  0.18241  1.0000 -0.5274928872
O   O25       1.0  0.95908  0.27229  0.68097  1.0000 -0.5236901506
O   O26       1.0  0.72771  0.68679  0.68097  1.0000 -0.5236901506
O   O27       1.0  0.31321  0.04092  0.68097  1.0000 -0.5236901506
O   O28       1.0  0.04092  0.72771  0.18097  1.0000 -0.5236901506
O   O29       1.0  0.27229  0.31321  0.18097  1.0000 -0.5236901506
O   O30       1.0  0.68679  0.95908  0.18097  1.0000 -0.5236901506
O   O31       1.0  0.04092  0.72771  0.31903  1.0000 -0.5236901506
O   O32       1.0  0.27229  0.31321  0.31903  1.0000 -0.5236901506
O   O33       1.0  0.68679  0.95908  0.31903  1.0000 -0.5236901506
O   O34       1.0  0.95908  0.27229  0.81903  1.0000 -0.5236901506
O   O35       1.0  0.72771  0.68679  0.81903  1.0000 -0.5236901506
O   O36       1.0  0.31321  0.04092  0.81903  1.0000 -0.5236901506
O   O37       1.0  0.95458  0.35125  0.68229  1.0000 -0.5127879743
O   O38       1.0  0.64875  0.60333  0.68229  1.0000 -0.5127879743
O   O39       1.0  0.39667  0.04542  0.68229  1.0000 -0.5127879743
O   O40       1.0  0.04542  0.64875  0.18229  1.0000 -0.5127879743
O   O41       1.0  0.35125  0.39667  0.18229  1.0000 -0.5127879743
O   O42       1.0  0.60333  0.95458  0.18229  1.0000 -0.5127879743
O   O43       1.0  0.04542  0.64875  0.31771  1.0000 -0.5127879743
O   O44       1.0  0.35125  0.39667  0.31771  1.0000 -0.5127879743
O   O45       1.0  0.60333  0.95458  0.31771  1.0000 -0.5127879743
O   O46       1.0  0.95458  0.35125  0.81771  1.0000 -0.5127879743
O   O47       1.0  0.64875  0.60333  0.81771  1.0000 -0.5127879743
O   O48       1.0  0.39667  0.04542  0.81771  1.0000 -0.5127879743
