# DDEC6 charges by PACMAN v1.1 (https://github.com/mtap-research/PACMAN-charge/)
data_2015[Cd][flu]3[ASR]1
_chemical_formula_sum              "Cd3 H20 C36 O20"
_cell_length_a       9.9428
_cell_length_b       10.4394
_cell_length_c       14.5779
_cell_angle_alpha    107.05
_cell_angle_beta     109.127
_cell_angle_gamma    90.079

_symmetry_space_group_name_H-M    "P 1"
_symmetry_Int_Tables_number       1

loop_
  _symmetry_equiv_pos_as_xyz
  'x, y, z'

loop_
  _atom_site_type_symbol
  _atom_site_label
  _atom_site_symmetry_multiplicity
  _atom_site_fract_x
  _atom_site_fract_y
  _atom_site_fract_z
  _atom_site_occupancy
  _atom_site_charge
Cd  Cd1       1.0  0.00000  0.00000  0.00000  1.0000 1.1223104922
Cd  Cd2       1.0  0.10428  0.29784  0.20177  1.0000 0.9746451704
Cd  Cd3       1.0  0.89572  0.70216  0.79823  1.0000 0.9746451704
H   H1        1.0  0.58480  0.27590  0.17360  1.0000 0.1369406311
H   H2        1.0  0.41520  0.72410  0.82640  1.0000 0.1369406311
H   H3        1.0  0.67680  0.11910  0.91740  1.0000 0.1305724299
H   H4        1.0  0.32320  0.88090  0.08260  1.0000 0.1305724299
H   H5        1.0  0.26650  0.11200  0.90590  1.0000 0.1556167183
H   H6        1.0  0.73350  0.88800  0.09410  1.0000 0.1556167183
H   H7        1.0  0.09880  0.75860  0.19560  1.0000 0.1513779117
H   H8        1.0  0.90120  0.24140  0.80440  1.0000 0.1513779117
H   H9        1.0  0.29510  0.71080  0.46900  1.0000 0.1305724299
H   H10       1.0  0.70490  0.28920  0.53100  1.0000 0.1305724299
H   H11       1.0  0.57550  0.93400  0.78080  1.0000 0.1068513347
H   H12       1.0  0.42450  0.06600  0.21920  1.0000 0.1068513347
H   H13       1.0  0.56780  0.05470  0.73620  1.0000 0.1068513347
H   H14       1.0  0.43220  0.94530  0.26380  1.0000 0.1068513347
H   H15       1.0  0.26190  0.08640  0.44370  1.0000 0.1513779117
H   H16       1.0  0.73810  0.91360  0.55630  1.0000 0.1513779117
H   H17       1.0  0.49900  0.83670  0.60920  1.0000 0.1305724299
H   H18       1.0  0.50100  0.16330  0.39080  1.0000 0.1305724299
H   H19       1.0  0.36110  0.82900  0.63870  1.0000 0.1305724299
H   H20       1.0  0.63890  0.17100  0.36130  1.0000 0.1305724299
C   C1        1.0  0.80850  0.23840  0.11410  1.0000 0.5852040378
C   C2        1.0  0.19150  0.76160  0.88590  1.0000 0.5818844167
C   C3        1.0  0.40860  0.19680  0.04730  1.0000 0.0085205501
C   C4        1.0  0.59140  0.80320  0.95270  1.0000 0.0085205501
C   C5        1.0  0.55430  0.23280  0.10350  1.0000 -0.141216171
C   C6        1.0  0.44570  0.76720  0.89650  1.0000 -0.141216171
C   C7        1.0  0.60920  0.13880  0.94960  1.0000 -0.2302523526
C   C8        1.0  0.39080  0.86120  0.05040  1.0000 -0.2302523526
C   C9        1.0  0.65190  0.20370  0.05420  1.0000 0.0085205501
C   C10       1.0  0.34810  0.79630  0.94580  1.0000 0.0085205501
C   C11       1.0  0.36380  0.13390  0.94310  1.0000 -0.2018025788
C   C12       1.0  0.63620  0.86610  0.05690  1.0000 -0.2018025788
C   C13       1.0  0.15160  0.56540  0.27960  1.0000 0.5596421687
C   C14       1.0  0.84840  0.43460  0.72040  1.0000 0.5596421687
C   C15       1.0  0.46250  0.10320  0.89330  1.0000 0.2629098324
C   C16       1.0  0.53750  0.89680  0.10670  1.0000 0.2629098324
C   C17       1.0  0.12860  0.02840  0.24270  1.0000 0.5818844167
C   C18       1.0  0.87140  0.97160  0.75730  1.0000 0.5818844167
C   C19       1.0  0.29830  0.22560  0.10050  1.0000 0.5654873578
C   C20       1.0  0.70170  0.77440  0.89950  1.0000 0.5654873578
C   C21       1.0  0.14630  0.79670  0.26540  1.0000 -0.141216171
C   C22       1.0  0.85370  0.20330  0.73460  1.0000 -0.141216171
C   C23       1.0  0.19080  0.71620  0.32750  1.0000 0.034397888
C   C24       1.0  0.80920  0.28380  0.67250  1.0000 0.034397888
C   C25       1.0  0.26480  0.76780  0.42950  1.0000 -0.2351744147
C   C26       1.0  0.73520  0.23220  0.57050  1.0000 -0.2351744147
C   C27       1.0  0.17420  0.93730  0.30970  1.0000 0.0031515742
C   C28       1.0  0.82580  0.06270  0.69030  1.0000 0.0031515742
C   C29       1.0  0.51110  0.98270  0.74070  1.0000 -0.0559348753
C   C30       1.0  0.48890  0.01730  0.25930  1.0000 -0.0559348753
C   C31       1.0  0.24620  0.99330  0.41420  1.0000 -0.2351744147
C   C32       1.0  0.75380  0.00670  0.58580  1.0000 -0.2351744147
C   C33       1.0  0.29490  0.90940  0.47480  1.0000 0.2761262683
C   C34       1.0  0.70510  0.09060  0.52520  1.0000 0.2761262683
C   C35       1.0  0.43300  0.88990  0.63660  1.0000 -0.0391830569
C   C36       1.0  0.56700  0.11010  0.36340  1.0000 -0.0391830569
O   O1        1.0  0.89740  0.18510  0.06970  1.0000 -0.5997261079
O   O2        1.0  0.10260  0.81490  0.93030  1.0000 -0.5997261079
O   O3        1.0  0.40930  0.04020  0.79130  1.0000 -0.1563893827
O   O4        1.0  0.59070  0.95980  0.20870  1.0000 -0.1563893827
O   O5        1.0  0.85310  0.31580  0.20130  1.0000 -0.4730445715
O   O6        1.0  0.14690  0.68420  0.79870  1.0000 -0.4730445715
O   O7        1.0  0.18400  0.49250  0.33780  1.0000 -0.5203492912
O   O8        1.0  0.81600  0.50750  0.66220  1.0000 -0.5203492912
O   O9        1.0  0.33480  0.29820  0.18980  1.0000 -0.4854141446
O   O10       1.0  0.66520  0.70180  0.81020  1.0000 -0.4854141446
O   O11       1.0  0.09910  0.51600  0.18500  1.0000 -0.5081875892
O   O12       1.0  0.90090  0.48400  0.81500  1.0000 -0.5081875892
O   O13       1.0  0.17210  0.17780  0.05160  1.0000 -0.5475858124
O   O14       1.0  0.82790  0.82220  0.94840  1.0000 -0.5475858124
O   O15       1.0  0.08600  0.97100  0.14990  1.0000 -0.5400085421
O   O16       1.0  0.91400  0.02900  0.85010  1.0000 -0.5400085421
O   O17       1.0  0.36720  0.97070  0.57470  1.0000 -0.1324437456
O   O18       1.0  0.63280  0.02930  0.42530  1.0000 -0.1324437456
O   O19       1.0  0.14080  0.15090  0.28590  1.0000 -0.5081875892
O   O20       1.0  0.85920  0.84910  0.71410  1.0000 -0.5081875892
