# DDEC6 charges by PACMAN v1.1 (https://github.com/mtap-research/PACMAN-charge/)
data_2015[Cd][nan]3[ASR]19
_chemical_formula_sum              "Cd4 H52 C74 N4 O16"
_cell_length_a       9.725
_cell_length_b       14.654
_cell_length_c       19.736
_cell_angle_alpha    80.5
_cell_angle_beta     77.2
_cell_angle_gamma    81.7

_symmetry_space_group_name_H-M    "P 1"
_symmetry_Int_Tables_number       1

loop_
  _symmetry_equiv_pos_as_xyz
  'x, y, z'

loop_
  _atom_site_type_symbol
  _atom_site_label
  _atom_site_symmetry_multiplicity
  _atom_site_fract_x
  _atom_site_fract_y
  _atom_site_fract_z
  _atom_site_occupancy
  _atom_site_charge
Cd  Cd1       1.0  0.46414  0.06293  0.19358  1.0000 0.9085937859
Cd  Cd2       1.0  0.53586  0.93707  0.80642  1.0000 0.9085937859
Cd  Cd3       1.0  0.16578  0.23162  0.24784  1.0000 0.9596882583
Cd  Cd4       1.0  0.83422  0.76838  0.75216  1.0000 0.9596882583
H   H1        1.0  0.88020  0.13590  0.13310  1.0000 0.1106394278
H   H2        1.0  0.11980  0.86410  0.86690  1.0000 0.1106394278
H   H3        1.0  0.23470  0.97540  0.05140  1.0000 0.1106394278
H   H4        1.0  0.76530  0.02460  0.94860  1.0000 0.1106394278
H   H5        1.0  0.76550  0.10530  0.05020  1.0000 0.1201058829
H   H6        1.0  0.23450  0.89470  0.94980  1.0000 0.1201058829
H   H7        1.0  0.34470  0.42730  0.11950  1.0000 0.1201058829
H   H8        1.0  0.65530  0.57270  0.88050  1.0000 0.1201058829
H   H9        1.0  0.66820  0.27650  0.00530  1.0000 0.1201058829
H   H10       1.0  0.33180  0.72350  0.99470  1.0000 0.1201058829
H   H11       1.0  0.71810  0.40630  0.92460  1.0000 0.1201058829
H   H12       1.0  0.28190  0.59370  0.07540  1.0000 0.1201058829
H   H13       1.0  0.02570  0.82210  0.48370  1.0000 0.1201058829
H   H14       1.0  0.97430  0.17790  0.51630  1.0000 0.1201058829
H   H15       1.0  0.19500  0.85610  0.38340  1.0000 0.1201058829
H   H16       1.0  0.80500  0.14390  0.61660  1.0000 0.1201058829
H   H17       1.0  0.14550  0.12540  0.41270  1.0000 0.1271807151
H   H18       1.0  0.85450  0.87460  0.58730  1.0000 0.1271807151
H   H19       1.0  0.19900  0.44830  0.39250  1.0000 0.1271807151
H   H20       1.0  0.80100  0.55170  0.60750  1.0000 0.1271807151
H   H21       1.0  0.83620  0.32980  0.45820  1.0000 0.1201058829
H   H22       1.0  0.16380  0.67020  0.54180  1.0000 0.1201058829
H   H23       1.0  0.75680  0.42550  0.54480  1.0000 0.1201058829
H   H24       1.0  0.24320  0.57450  0.45520  1.0000 0.1201058829
H   H25       1.0  0.09850  0.45510  0.22950  1.0000 0.1106394278
H   H26       1.0  0.90150  0.54490  0.77050  1.0000 0.1106394278
H   H27       1.0  0.94960  0.57660  0.19170  1.0000 0.138818224
H   H28       1.0  0.05040  0.42340  0.80830  1.0000 0.138818224
H   H29       1.0  0.79610  0.40570  0.09610  1.0000 0.138818224
H   H30       1.0  0.20390  0.59430  0.90390  1.0000 0.138818224
H   H31       1.0  0.94690  0.28480  0.14170  1.0000 0.1012036946
H   H32       1.0  0.05310  0.71520  0.85830  1.0000 0.1012036946
H   H33       1.0  0.71340  0.62550  0.14120  1.0000 0.1201058829
H   H34       1.0  0.28660  0.37450  0.85880  1.0000 0.1201058829
H   H35       1.0  0.69440  0.56250  0.08540  1.0000 0.1106394278
H   H36       1.0  0.30560  0.43750  0.91460  1.0000 0.1106394278
H   H37       1.0  0.94250  0.66030  0.06360  1.0000 0.1012036946
H   H38       1.0  0.05750  0.33970  0.93640  1.0000 0.1012036946
H   H39       1.0  0.90280  0.60910  0.00660  1.0000 0.1012036946
H   H40       1.0  0.09720  0.39090  0.99340  1.0000 0.1012036946
H   H41       1.0  0.74050  0.71340  0.98880  1.0000 0.1271807151
H   H42       1.0  0.25950  0.28660  0.01120  1.0000 0.1271807151
H   H43       1.0  0.88620  0.75510  0.98070  1.0000 0.1201058829
H   H44       1.0  0.11380  0.24490  0.01930  1.0000 0.1201058829
H   H45       1.0  0.86060  0.79030  0.12870  1.0000 0.138818224
H   H46       1.0  0.13940  0.20970  0.87130  1.0000 0.138818224
H   H47       1.0  0.74170  0.90840  0.18890  1.0000 0.1106394278
H   H48       1.0  0.25830  0.09160  0.81110  1.0000 0.1106394278
H   H49       1.0  0.46530  0.95780  0.06760  1.0000 0.1106394278
H   H50       1.0  0.53470  0.04220  0.93240  1.0000 0.1106394278
H   H51       1.0  0.57120  0.83670  0.00880  1.0000 0.138818224
H   H52       1.0  0.42880  0.16330  0.99120  1.0000 0.138818224
C   C1        1.0  0.15290  0.08760  0.14770  1.0000 0.5775887491
C   C2        1.0  0.84710  0.91240  0.85230  1.0000 0.5775887491
C   C3        1.0  0.07210  0.06000  0.09849  1.0000 -0.026202037
C   C4        1.0  0.92790  0.94000  0.90151  1.0000 -0.026202037
C   C5        1.0  0.92870  0.09750  0.09880  1.0000 -0.1420425473
C   C6        1.0  0.07130  0.90250  0.90120  1.0000 -0.1420425473
C   C7        1.0  0.13980  0.00180  0.05060  1.0000 -0.1710084556
C   C8        1.0  0.86020  0.99820  0.94940  1.0000 -0.1710084556
C   C9        1.0  0.07050  0.98020  0.00007  1.0000 0.0701687854
C   C10       1.0  0.92950  0.01980  0.99993  1.0000 0.0701687854
C   C11       1.0  0.86050  0.07860  0.05020  1.0000 -0.1574033005
C   C12       1.0  0.13950  0.92140  0.94980  1.0000 -0.1574033005
C   C13       1.0  0.44340  0.50280  0.02930  1.0000 0.0701687854
C   C14       1.0  0.55660  0.49720  0.97070  1.0000 0.0701687854
C   C15       1.0  0.41850  0.42320  0.07920  1.0000 -0.1771036862
C   C16       1.0  0.58150  0.57680  0.92080  1.0000 -0.1771036862
C   C17       1.0  0.50040  0.33910  0.07000  1.0000 -0.0210403565
C   C18       1.0  0.49960  0.66090  0.93000  1.0000 -0.0210403565
C   C19       1.0  0.61170  0.33420  0.01160  1.0000 -0.1238598889
C   C20       1.0  0.38830  0.66580  0.98840  1.0000 -0.1238598889
C   C21       1.0  0.64080  0.41100  0.96330  1.0000 -0.1574033005
C   C22       1.0  0.35920  0.58900  0.03670  1.0000 -0.1574033005
C   C23       1.0  0.46680  0.25450  0.12210  1.0000 0.562578571
C   C24       1.0  0.53320  0.74550  0.87790  1.0000 0.562578571
C   C25       1.0  0.04960  0.88400  0.46970  1.0000 -0.1486569721
C   C26       1.0  0.95040  0.11600  0.53030  1.0000 -0.1486569721
C   C27       1.0  0.14890  0.90430  0.41010  1.0000 -0.0966928778
C   C28       1.0  0.85110  0.09570  0.58990  1.0000 -0.0966928778
C   C29       1.0  0.18340  0.99580  0.38792  1.0000 -0.0077554779
C   C30       1.0  0.81660  0.00420  0.61208  1.0000 -0.0077554779
C   C31       1.0  0.12000  0.06400  0.42735  1.0000 -0.1420425473
C   C32       1.0  0.88000  0.93600  0.57265  1.0000 -0.1420425473
C   C33       1.0  0.01750  0.04600  0.48944  1.0000 0.0859496827
C   C34       1.0  0.98250  0.95400  0.51056  1.0000 0.0859496827
C   C35       1.0  0.28760  0.01730  0.32070  1.0000 0.5775887491
C   C36       1.0  0.71240  0.98270  0.67930  1.0000 0.5775887491
C   C37       1.0  0.11000  0.44390  0.42380  1.0000 -0.1574033005
C   C38       1.0  0.89000  0.55610  0.57620  1.0000 -0.1574033005
C   C39       1.0  0.02690  0.38130  0.41770  1.0000 -0.0210403565
C   C40       1.0  0.97310  0.61870  0.58230  1.0000 -0.0210403565
C   C41       1.0  0.89420  0.37420  0.46320  1.0000 -0.1090628309
C   C42       1.0  0.10580  0.62580  0.53680  1.0000 -0.1090628309
C   C43       1.0  0.84720  0.43050  0.51480  1.0000 -0.1574033005
C   C44       1.0  0.15280  0.56950  0.48520  1.0000 -0.1574033005
C   C45       1.0  0.93340  0.49560  0.52320  1.0000 0.0787167018
C   C46       1.0  0.06660  0.50440  0.47680  1.0000 0.0787167018
C   C47       1.0  0.07270  0.31990  0.36050  1.0000 0.5279234769
C   C48       1.0  0.92730  0.68010  0.63950  1.0000 0.5279234769
C   C49       1.0  0.03420  0.44390  0.20270  1.0000 0.0701687854
C   C50       1.0  0.96580  0.55610  0.79730  1.0000 0.0701687854
C   C51       1.0  0.94810  0.51690  0.17920  1.0000 -0.2114670007
C   C52       1.0  0.05190  0.48310  0.82080  1.0000 -0.2114670007
C   C53       1.0  0.85820  0.50580  0.13750  1.0000 0.162129906
C   C54       1.0  0.14180  0.49420  0.86250  1.0000 0.162129906
C   C55       1.0  0.85750  0.41790  0.12400  1.0000 -0.2114670007
C   C56       1.0  0.14250  0.58210  0.87600  1.0000 -0.2114670007
C   C57       1.0  0.94810  0.34590  0.15170  1.0000 0.0859496827
C   C58       1.0  0.05190  0.65410  0.84830  1.0000 0.0859496827
C   C59       1.0  0.76500  0.58680  0.10490  1.0000 -0.232853932
C   C60       1.0  0.23500  0.41320  0.89510  1.0000 -0.232853932
C   C61       1.0  0.86220  0.64790  0.04440  1.0000 -0.1420425473
C   C62       1.0  0.13780  0.35210  0.95560  1.0000 -0.1486569721
C   C63       1.0  0.80820  0.72720  0.01550  1.0000 -0.2390924303
C   C64       1.0  0.19180  0.27280  0.98450  1.0000 -0.2390924303
C   C65       1.0  0.73190  0.80210  0.05980  1.0000 0.1655338825
C   C66       1.0  0.26810  0.19790  0.94020  1.0000 0.1655338825
C   C67       1.0  0.77780  0.82420  0.11520  1.0000 -0.203995931
C   C68       1.0  0.22220  0.17580  0.88480  1.0000 -0.203995931
C   C69       1.0  0.70590  0.89450  0.15120  1.0000 0.0787167018
C   C70       1.0  0.29410  0.10550  0.84880  1.0000 0.0787167018
C   C71       1.0  0.54630  0.92180  0.08150  1.0000 0.0552233541
C   C72       1.0  0.45370  0.07820  0.91850  1.0000 0.0549249509
C   C73       1.0  0.61090  0.85140  0.04500  1.0000 -0.1935379831
C   C74       1.0  0.38910  0.14860  0.95500  1.0000 -0.1935379831
N   N1        1.0  0.03530  0.35800  0.19100  1.0000 -0.2390924303
N   N2        1.0  0.96470  0.64200  0.80900  1.0000 -0.2390924303
N   N3        1.0  0.58960  0.94370  0.13619  1.0000 -0.232853932
N   N4        1.0  0.41040  0.05630  0.86381  1.0000 -0.2390924303
O   O1        1.0  0.27980  0.05570  0.14228  1.0000 -0.5525276242
O   O2        1.0  0.72020  0.94430  0.85772  1.0000 -0.5525276242
O   O3        1.0  0.08470  0.14200  0.18972  1.0000 -0.5656740843
O   O4        1.0  0.91530  0.85800  0.81028  1.0000 -0.5656740843
O   O5        1.0  0.53670  0.17810  0.10921  1.0000 -0.5525276242
O   O6        1.0  0.46330  0.82190  0.89079  1.0000 -0.5525276242
O   O7        1.0  0.37460  0.26300  0.17643  1.0000 -0.5629843353
O   O8        1.0  0.62540  0.73700  0.82357  1.0000 -0.5629843353
O   O9        1.0  0.29940  0.10280  0.29530  1.0000 -0.5905007003
O   O10       1.0  0.70060  0.89720  0.70470  1.0000 -0.5905007003
O   O11       1.0  0.36030  0.95330  0.29089  1.0000 -0.5316432891
O   O12       1.0  0.63970  0.04670  0.70911  1.0000 -0.5316432891
O   O13       1.0  0.99120  0.26710  0.35197  1.0000 -0.5355346082
O   O14       1.0  0.00880  0.73290  0.64803  1.0000 -0.5355346082
O   O15       1.0  0.19380  0.32460  0.32430  1.0000 -0.5215170263
O   O16       1.0  0.80620  0.67540  0.67570  1.0000 -0.5215170263
