# DDEC6 charges by PACMAN v1.1 (https://github.com/mtap-research/PACMAN-charge/)
data_2015[Fe][acs]3[ASR]1
_chemical_formula_sum              "Fe6 H24 C48 O26"
_cell_length_a       14.4162
_cell_length_b       14.4162
_cell_length_c       17.304
_cell_angle_alpha    90
_cell_angle_beta     90
_cell_angle_gamma    120

_symmetry_space_group_name_H-M    "P 1"
_symmetry_Int_Tables_number       1

loop_
  _symmetry_equiv_pos_as_xyz
  'x, y, z'

loop_
  _atom_site_type_symbol
  _atom_site_label
  _atom_site_symmetry_multiplicity
  _atom_site_fract_x
  _atom_site_fract_y
  _atom_site_fract_z
  _atom_site_occupancy
  _atom_site_charge
Fe  Fe1       1.0  0.25639  0.51279  0.75000  1.0000 1.2061654234
Fe  Fe2       1.0  0.48721  0.74361  0.75000  1.0000 1.2061654234
Fe  Fe3       1.0  0.25640  0.74361  0.75000  1.0000 1.2061654234
Fe  Fe4       1.0  0.74360  0.48721  0.25000  1.0000 1.2061654234
Fe  Fe5       1.0  0.51279  0.25639  0.25000  1.0000 1.2061654234
Fe  Fe6       1.0  0.74360  0.25639  0.25000  1.0000 1.2061654234
H   H1        1.0  0.33540  0.38610  0.55610  1.0000 0.1289656662
H   H2        1.0  0.61390  0.94930  0.55610  1.0000 0.1289656662
H   H3        1.0  0.05070  0.66460  0.55610  1.0000 0.1289656662
H   H4        1.0  0.66460  0.61390  0.05610  1.0000 0.1289656662
H   H5        1.0  0.38610  0.05070  0.05610  1.0000 0.1289656662
H   H6        1.0  0.94930  0.33540  0.05610  1.0000 0.1289656662
H   H7        1.0  0.38610  0.33540  0.44390  1.0000 0.1289656662
H   H8        1.0  0.94930  0.61390  0.44390  1.0000 0.1289656662
H   H9        1.0  0.66460  0.05070  0.44390  1.0000 0.1289656662
H   H10       1.0  0.61390  0.66460  0.94390  1.0000 0.1289656662
H   H11       1.0  0.05070  0.38610  0.94390  1.0000 0.1289656662
H   H12       1.0  0.33540  0.94930  0.94390  1.0000 0.1289656662
H   H13       1.0  0.66460  0.61390  0.44390  1.0000 0.1289656662
H   H14       1.0  0.38610  0.05070  0.44390  1.0000 0.1289656662
H   H15       1.0  0.94930  0.33540  0.44390  1.0000 0.1289656662
H   H16       1.0  0.33540  0.38610  0.94390  1.0000 0.1289656662
H   H17       1.0  0.61390  0.94930  0.94390  1.0000 0.1289656662
H   H18       1.0  0.05070  0.66460  0.94390  1.0000 0.1289656662
H   H19       1.0  0.61390  0.66460  0.55610  1.0000 0.1289656662
H   H20       1.0  0.05070  0.38610  0.55610  1.0000 0.1289656662
H   H21       1.0  0.33540  0.94930  0.55610  1.0000 0.1289656662
H   H22       1.0  0.38610  0.33540  0.05610  1.0000 0.1289656662
H   H23       1.0  0.94930  0.61390  0.05610  1.0000 0.1289656662
H   H24       1.0  0.66460  0.05070  0.05610  1.0000 0.1289656662
C   C1        1.0  0.43633  0.56367  0.63920  1.0000 0.5941699051
C   C2        1.0  0.43633  0.87266  0.63920  1.0000 0.5941699051
C   C3        1.0  0.12734  0.56367  0.63920  1.0000 0.5941699051
C   C4        1.0  0.56367  0.43633  0.13920  1.0000 0.5941699051
C   C5        1.0  0.56367  0.12734  0.13920  1.0000 0.5941699051
C   C6        1.0  0.87266  0.43633  0.13920  1.0000 0.5941699051
C   C7        1.0  0.56367  0.43633  0.36080  1.0000 0.5941699051
C   C8        1.0  0.87266  0.43633  0.36080  1.0000 0.5941699051
C   C9        1.0  0.56367  0.12734  0.36080  1.0000 0.5941699051
C   C10       1.0  0.43633  0.56367  0.86080  1.0000 0.5941699051
C   C11       1.0  0.12734  0.56367  0.86080  1.0000 0.5941699051
C   C12       1.0  0.43633  0.87266  0.86080  1.0000 0.5941699051
C   C13       1.0  0.46980  0.53020  0.56740  1.0000 -0.0256029029
C   C14       1.0  0.46980  0.93960  0.56740  1.0000 -0.0256029029
C   C15       1.0  0.06040  0.53020  0.56740  1.0000 -0.0256029029
C   C16       1.0  0.53020  0.46980  0.06740  1.0000 -0.0256029029
C   C17       1.0  0.53020  0.06040  0.06740  1.0000 -0.0256029029
C   C18       1.0  0.93960  0.46980  0.06740  1.0000 -0.0256029029
C   C19       1.0  0.53020  0.46980  0.43260  1.0000 -0.0256029029
C   C20       1.0  0.93960  0.46980  0.43260  1.0000 -0.0256029029
C   C21       1.0  0.53020  0.06040  0.43260  1.0000 -0.0256029029
C   C22       1.0  0.46980  0.53020  0.93260  1.0000 -0.0256029029
C   C23       1.0  0.06040  0.53020  0.93260  1.0000 -0.0256029029
C   C24       1.0  0.46980  0.93960  0.93260  1.0000 -0.0256029029
C   C25       1.0  0.40150  0.43180  0.53360  1.0000 -0.0969426554
C   C26       1.0  0.56820  0.96970  0.53360  1.0000 -0.0969426554
C   C27       1.0  0.03030  0.59850  0.53360  1.0000 -0.0969426554
C   C28       1.0  0.59850  0.56820  0.03360  1.0000 -0.0969426554
C   C29       1.0  0.43180  0.03030  0.03360  1.0000 -0.0969426554
C   C30       1.0  0.96970  0.40150  0.03360  1.0000 -0.0969426554
C   C31       1.0  0.43180  0.40150  0.46640  1.0000 -0.0969426554
C   C32       1.0  0.96970  0.56820  0.46640  1.0000 -0.0969426554
C   C33       1.0  0.59850  0.03030  0.46640  1.0000 -0.0969426554
C   C34       1.0  0.56820  0.59850  0.96640  1.0000 -0.0969426554
C   C35       1.0  0.03030  0.43180  0.96640  1.0000 -0.0969426554
C   C36       1.0  0.40150  0.96970  0.96640  1.0000 -0.0969426554
C   C37       1.0  0.59850  0.56820  0.46640  1.0000 -0.0969426554
C   C38       1.0  0.43180  0.03030  0.46640  1.0000 -0.0969426554
C   C39       1.0  0.96970  0.40150  0.46640  1.0000 -0.0969426554
C   C40       1.0  0.40150  0.43180  0.96640  1.0000 -0.0969426554
C   C41       1.0  0.56820  0.96970  0.96640  1.0000 -0.0969426554
C   C42       1.0  0.03030  0.59850  0.96640  1.0000 -0.0969426554
C   C43       1.0  0.56820  0.59850  0.53360  1.0000 -0.0969426554
C   C44       1.0  0.03030  0.43180  0.53360  1.0000 -0.0969426554
C   C45       1.0  0.40150  0.96970  0.53360  1.0000 -0.0969426554
C   C46       1.0  0.43180  0.40150  0.03360  1.0000 -0.0969426554
C   C47       1.0  0.96970  0.56820  0.03360  1.0000 -0.0969426554
C   C48       1.0  0.59850  0.03030  0.03360  1.0000 -0.0969426554
O   O1        1.0  0.34600  0.49950  0.66609  1.0000 -0.5392883888
O   O2        1.0  0.50050  0.84650  0.66609  1.0000 -0.5392883888
O   O3        1.0  0.15350  0.65400  0.66609  1.0000 -0.5392883888
O   O4        1.0  0.65400  0.50050  0.16609  1.0000 -0.5392883888
O   O5        1.0  0.49950  0.15350  0.16609  1.0000 -0.5392883888
O   O6        1.0  0.84650  0.34600  0.16609  1.0000 -0.5392883888
O   O7        1.0  0.49950  0.34600  0.33391  1.0000 -0.5392883888
O   O8        1.0  0.84650  0.50050  0.33391  1.0000 -0.5392883888
O   O9        1.0  0.65400  0.15350  0.33391  1.0000 -0.5392883888
O   O10       1.0  0.50050  0.65400  0.83391  1.0000 -0.5392883888
O   O11       1.0  0.15350  0.49950  0.83391  1.0000 -0.5392883888
O   O12       1.0  0.34600  0.84650  0.83391  1.0000 -0.5392883888
O   O13       1.0  0.65400  0.50050  0.33391  1.0000 -0.5392883888
O   O14       1.0  0.49950  0.15350  0.33391  1.0000 -0.5392883888
O   O15       1.0  0.84650  0.34600  0.33391  1.0000 -0.5392883888
O   O16       1.0  0.34600  0.49950  0.83391  1.0000 -0.5392883888
O   O17       1.0  0.50050  0.84650  0.83391  1.0000 -0.5392883888
O   O18       1.0  0.15350  0.65400  0.83391  1.0000 -0.5392883888
O   O19       1.0  0.50050  0.65400  0.66609  1.0000 -0.5392883888
O   O20       1.0  0.15350  0.49950  0.66609  1.0000 -0.5392883888
O   O21       1.0  0.34600  0.84650  0.66609  1.0000 -0.5392883888
O   O22       1.0  0.49950  0.34600  0.16609  1.0000 -0.5392883888
O   O23       1.0  0.84650  0.50050  0.16609  1.0000 -0.5392883888
O   O24       1.0  0.65400  0.15350  0.16609  1.0000 -0.5392883888
O   O25       1.0  0.33333  0.66667  0.75000  1.0000 -0.9427137471
O   O26       1.0  0.66667  0.33333  0.25000  1.0000 -0.9427137471
