# DDEC6 charges by PACMAN v1.1 (https://github.com/mtap-research/PACMAN-charge/)
data_2015[Zn][dmc]3[ASR]1
_chemical_formula_sum              "Zn4 H8 C12 N12 O8"
_cell_length_a       8.9147
_cell_length_b       9.7297
_cell_length_c       9.5179
_cell_angle_alpha    90
_cell_angle_beta     115.745
_cell_angle_gamma    90

_symmetry_space_group_name_H-M    "P 1"
_symmetry_Int_Tables_number       1

loop_
  _symmetry_equiv_pos_as_xyz
  'x, y, z'

loop_
  _atom_site_type_symbol
  _atom_site_label
  _atom_site_symmetry_multiplicity
  _atom_site_fract_x
  _atom_site_fract_y
  _atom_site_fract_z
  _atom_site_occupancy
  _atom_site_charge
Zn  Zn1       1.0  0.17537  0.94138  0.93670  1.0000 0.6740262315
Zn  Zn2       1.0  0.82463  0.44138  0.56330  1.0000 0.6750646041
Zn  Zn3       1.0  0.82463  0.05862  0.06330  1.0000 0.6750646041
Zn  Zn4       1.0  0.17537  0.55862  0.43670  1.0000 0.6740262315
H   H1        1.0  0.91380  0.69050  0.79690  1.0000 0.1216717467
H   H2        1.0  0.08620  0.19050  0.70310  1.0000 0.1216717467
H   H3        1.0  0.08620  0.30950  0.20310  1.0000 0.1216717467
H   H4        1.0  0.91380  0.80950  0.29690  1.0000 0.1216717467
H   H5        1.0  0.25080  0.80360  0.66780  1.0000 0.1216717467
H   H6        1.0  0.74920  0.30360  0.83220  1.0000 0.1216717467
H   H7        1.0  0.74920  0.19640  0.33220  1.0000 0.1216717467
H   H8        1.0  0.25080  0.69640  0.16780  1.0000 0.1216717467
C   C1        1.0  0.47590  0.03130  0.91840  1.0000 0.4618247256
C   C2        1.0  0.52410  0.53130  0.58160  1.0000 0.4618247256
C   C3        1.0  0.52410  0.96870  0.08160  1.0000 0.4618247256
C   C4        1.0  0.47590  0.46870  0.41840  1.0000 0.4618247256
C   C5        1.0  0.98230  0.69440  0.74610  1.0000 0.1500901685
C   C6        1.0  0.01770  0.19440  0.75390  1.0000 0.1500901685
C   C7        1.0  0.01770  0.30560  0.25390  1.0000 0.1500901685
C   C8        1.0  0.98230  0.80560  0.24610  1.0000 0.1500901685
C   C9        1.0  0.16530  0.75510  0.67630  1.0000 0.1554430828
C   C10       1.0  0.83470  0.25510  0.82370  1.0000 0.1554430828
C   C11       1.0  0.83470  0.24490  0.32370  1.0000 0.1554430828
C   C12       1.0  0.16530  0.74490  0.17630  1.0000 0.1554430828
N   N1        1.0  0.10170  0.78800  0.77670  1.0000 -0.3171686723
N   N2        1.0  0.89830  0.28800  0.72330  1.0000 -0.3171686723
N   N3        1.0  0.89830  0.21200  0.22330  1.0000 -0.3171686723
N   N4        1.0  0.10170  0.71200  0.27670  1.0000 -0.3171686723
N   N5        1.0  0.97260  0.60800  0.63570  1.0000 -0.1902326296
N   N6        1.0  0.02740  0.10800  0.86430  1.0000 -0.1902326296
N   N7        1.0  0.02740  0.39200  0.36430  1.0000 -0.1902326296
N   N8        1.0  0.97260  0.89200  0.13570  1.0000 -0.1902326296
N   N9        1.0  0.09310  0.64690  0.59160  1.0000 -0.1902326296
N   N10       1.0  0.90690  0.14690  0.90840  1.0000 -0.1902326296
N   N11       1.0  0.90690  0.35310  0.40840  1.0000 -0.1902326296
N   N12       1.0  0.09310  0.85310  0.09160  1.0000 -0.1902326296
O   O1        1.0  0.32550  0.02860  0.82690  1.0000 -0.5050303235
O   O2        1.0  0.67450  0.52860  0.67310  1.0000 -0.5050303235
O   O3        1.0  0.67450  0.97140  0.17310  1.0000 -0.5050303235
O   O4        1.0  0.32550  0.47140  0.32690  1.0000 -0.5050303235
O   O5        1.0  0.59060  0.07730  0.89140  1.0000 -0.4825826331
O   O6        1.0  0.40940  0.57730  0.60860  1.0000 -0.4825826331
O   O7        1.0  0.40940  0.92270  0.10860  1.0000 -0.4825826331
O   O8        1.0  0.59060  0.42270  0.39140  1.0000 -0.4825826331
