# DDEC6 charges by PACMAN v1.1 (https://github.com/mtap-research/PACMAN-charge/)
data_2015[Zn][hyw]3[ASR]2
_chemical_formula_sum              "Zn32 H144 C304 N32 O128"
_cell_length_a       32.2857
_cell_length_b       32.2857
_cell_length_c       32.2857
_cell_angle_alpha    133.587
_cell_angle_beta     133.587
_cell_angle_gamma    67.7334

_symmetry_space_group_name_H-M    "P 1"
_symmetry_Int_Tables_number       1

loop_
  _symmetry_equiv_pos_as_xyz
  'x, y, z'

loop_
  _atom_site_type_symbol
  _atom_site_label
  _atom_site_symmetry_multiplicity
  _atom_site_fract_x
  _atom_site_fract_y
  _atom_site_fract_z
  _atom_site_occupancy
  _atom_site_charge
Zn  Zn1       1.0  0.65247  0.43462  0.78215  1.0000 0.9624575113
Zn  Zn2       1.0  0.18462  0.90247  0.28215  1.0000 0.9624575113
Zn  Zn3       1.0  0.65247  0.87032  0.21785  1.0000 0.9624575113
Zn  Zn4       1.0  0.62032  0.90247  0.71785  1.0000 0.9624575113
Zn  Zn5       1.0  0.09753  0.37968  0.28215  1.0000 0.9624575113
Zn  Zn6       1.0  0.09753  0.81538  0.71785  1.0000 0.9624575113
Zn  Zn7       1.0  0.12968  0.34753  0.78215  1.0000 0.9624575113
Zn  Zn8       1.0  0.56538  0.34753  0.21785  1.0000 0.9624575113
Zn  Zn9       1.0  0.61408  0.31088  0.69680  1.0000 0.9432213266
Zn  Zn10      1.0  0.06088  0.86408  0.19680  1.0000 0.9432213266
Zn  Zn11      1.0  0.61408  0.91728  0.30320  1.0000 0.9432213266
Zn  Zn12      1.0  0.66728  0.86408  0.80320  1.0000 0.9432213266
Zn  Zn13      1.0  0.13592  0.33272  0.19680  1.0000 0.9432213266
Zn  Zn14      1.0  0.13592  0.93912  0.80320  1.0000 0.9432213266
Zn  Zn15      1.0  0.08272  0.38592  0.69680  1.0000 0.9432213266
Zn  Zn16      1.0  0.68912  0.38592  0.30320  1.0000 0.9432213266
Zn  Zn17      1.0  0.44640  0.47509  0.41789  1.0000 0.9469550994
Zn  Zn18      1.0  0.22509  0.30720  0.52869  1.0000 0.9469550994
Zn  Zn19      1.0  0.05720  0.02851  0.58211  1.0000 0.9469550994
Zn  Zn20      1.0  0.77851  0.69640  0.47131  1.0000 0.9469550994
Zn  Zn21      1.0  0.30360  0.22149  0.52869  1.0000 0.9469550994
Zn  Zn22      1.0  0.69280  0.77491  0.47131  1.0000 0.9469550994
Zn  Zn23      1.0  0.97149  0.94280  0.41789  1.0000 0.9469550994
Zn  Zn24      1.0  0.52491  0.55360  0.58211  1.0000 0.9469550994
Zn  Zn25      1.0  0.30360  0.77491  0.08211  1.0000 0.9469550994
Zn  Zn26      1.0  0.52491  0.94280  0.97131  1.0000 0.9469550994
Zn  Zn27      1.0  0.69280  0.22149  0.91789  1.0000 0.9469550994
Zn  Zn28      1.0  0.97149  0.55360  0.02869  1.0000 0.9469550994
Zn  Zn29      1.0  0.44640  0.02851  0.97131  1.0000 0.9469550994
Zn  Zn30      1.0  0.05720  0.47509  0.02869  1.0000 0.9469550994
Zn  Zn31      1.0  0.77851  0.30720  0.08211  1.0000 0.9469550994
Zn  Zn32      1.0  0.22509  0.69640  0.91789  1.0000 0.9469550994
H   H1        1.0  0.55040  0.69650  0.61090  1.0000 0.1377531138
H   H2        1.0  0.44650  0.33560  0.64610  1.0000 0.1377531138
H   H3        1.0  0.08560  0.93950  0.38910  1.0000 0.1377531138
H   H4        1.0  0.68950  0.80040  0.35390  1.0000 0.1377531138
H   H5        1.0  0.19960  0.31050  0.64610  1.0000 0.1377531138
H   H6        1.0  0.66440  0.55350  0.35390  1.0000 0.1377531138
H   H7        1.0  0.06050  0.91440  0.61090  1.0000 0.1377531138
H   H8        1.0  0.30350  0.44960  0.38910  1.0000 0.1377531138
H   H9        1.0  0.19960  0.55350  0.88910  1.0000 0.1377531138
H   H10       1.0  0.30350  0.91440  0.85390  1.0000 0.1377531138
H   H11       1.0  0.66440  0.31050  0.11090  1.0000 0.1377531138
H   H12       1.0  0.06050  0.44960  0.14610  1.0000 0.1377531138
H   H13       1.0  0.55040  0.93950  0.85390  1.0000 0.1377531138
H   H14       1.0  0.08560  0.69650  0.14610  1.0000 0.1377531138
H   H15       1.0  0.68950  0.33560  0.88910  1.0000 0.1377531138
H   H16       1.0  0.44650  0.80040  0.11090  1.0000 0.1377531138
H   H17       1.0  0.47610  0.76320  0.50830  1.0000 0.1311933883
H   H18       1.0  0.51320  0.50490  0.78710  1.0000 0.1311933883
H   H19       1.0  0.25490  0.96780  0.49170  1.0000 0.1311933883
H   H20       1.0  0.71780  0.72610  0.21290  1.0000 0.1311933883
H   H21       1.0  0.27390  0.28220  0.78710  1.0000 0.1311933883
H   H22       1.0  0.49510  0.48680  0.21290  1.0000 0.1311933883
H   H23       1.0  0.03220  0.74510  0.50830  1.0000 0.1311933883
H   H24       1.0  0.23680  0.52390  0.49170  1.0000 0.1311933883
H   H25       1.0  0.27390  0.48680  0.99170  1.0000 0.1311933883
H   H26       1.0  0.23680  0.74510  0.71290  1.0000 0.1311933883
H   H27       1.0  0.49510  0.28220  0.00830  1.0000 0.1311933883
H   H28       1.0  0.03220  0.52390  0.28710  1.0000 0.1311933883
H   H29       1.0  0.47610  0.96780  0.71290  1.0000 0.1311933883
H   H30       1.0  0.25490  0.76320  0.28710  1.0000 0.1311933883
H   H31       1.0  0.71780  0.50490  0.99170  1.0000 0.1311933883
H   H32       1.0  0.51320  0.72610  0.00830  1.0000 0.1311933883
H   H33       1.0  0.46350  0.31160  0.37450  1.0000 0.1311933883
H   H34       1.0  0.06160  0.18710  0.34810  1.0000 0.1311933883
H   H35       1.0  0.93710  0.08900  0.62550  1.0000 0.1311933883
H   H36       1.0  0.83900  0.71350  0.65190  1.0000 0.1311933883
H   H37       1.0  0.28650  0.16100  0.34810  1.0000 0.1311933883
H   H38       1.0  0.81290  0.93840  0.65190  1.0000 0.1311933883
H   H39       1.0  0.91100  0.06290  0.37450  1.0000 0.1311933883
H   H40       1.0  0.68840  0.53650  0.62550  1.0000 0.1311933883
H   H41       1.0  0.28650  0.93840  0.12550  1.0000 0.1311933883
H   H42       1.0  0.68840  0.06290  0.15190  1.0000 0.1311933883
H   H43       1.0  0.81290  0.16100  0.87450  1.0000 0.1311933883
H   H44       1.0  0.91100  0.53650  0.84810  1.0000 0.1311933883
H   H45       1.0  0.46350  0.08900  0.15190  1.0000 0.1311933883
H   H46       1.0  0.93710  0.31160  0.84810  1.0000 0.1311933883
H   H47       1.0  0.83900  0.18710  0.12550  1.0000 0.1311933883
H   H48       1.0  0.06160  0.71350  0.87450  1.0000 0.1311933883
H   H49       1.0  0.53310  0.24610  0.47740  1.0000 0.1311933883
H   H50       1.0  0.99610  0.01870  0.21300  1.0000 0.1311933883
H   H51       1.0  0.76870  0.05570  0.52260  1.0000 0.1311933883
H   H52       1.0  0.80570  0.78310  0.78700  1.0000 0.1311933883
H   H53       1.0  0.21690  0.19430  0.21300  1.0000 0.1311933883
H   H54       1.0  0.98130  0.00390  0.78700  1.0000 0.1311933883
H   H55       1.0  0.94430  0.23130  0.47740  1.0000 0.1311933883
H   H56       1.0  0.75390  0.46690  0.52260  1.0000 0.1311933883
H   H57       1.0  0.21690  0.00390  0.02260  1.0000 0.1311933883
H   H58       1.0  0.75390  0.23130  0.28700  1.0000 0.1311933883
H   H59       1.0  0.98130  0.19430  0.97740  1.0000 0.1311933883
H   H60       1.0  0.94430  0.46690  0.71300  1.0000 0.1311933883
H   H61       1.0  0.53310  0.05570  0.28700  1.0000 0.1311933883
H   H62       1.0  0.76870  0.24610  0.71300  1.0000 0.1311933883
H   H63       1.0  0.80570  0.01870  0.02260  1.0000 0.1311933883
H   H64       1.0  0.99610  0.78310  0.97740  1.0000 0.1311933883
H   H65       1.0  0.39700  0.61010  0.39850  1.0000 0.1311933883
H   H66       1.0  0.36010  0.46160  0.71310  1.0000 0.1311933883
H   H67       1.0  0.21160  0.99850  0.60150  1.0000 0.1311933883
H   H68       1.0  0.74850  0.64700  0.28690  1.0000 0.1311933883
H   H69       1.0  0.35300  0.25150  0.71310  1.0000 0.1311933883
H   H70       1.0  0.53840  0.63990  0.28690  1.0000 0.1311933883
H   H71       1.0  0.00150  0.78840  0.39850  1.0000 0.1311933883
H   H72       1.0  0.38990  0.60300  0.60150  1.0000 0.1311933883
H   H73       1.0  0.35300  0.63990  0.10150  1.0000 0.1311933883
H   H74       1.0  0.38990  0.78840  0.78690  1.0000 0.1311933883
H   H75       1.0  0.53840  0.25150  0.89850  1.0000 0.1311933883
H   H76       1.0  0.00150  0.60300  0.21310  1.0000 0.1311933883
H   H77       1.0  0.39700  0.99850  0.78690  1.0000 0.1311933883
H   H78       1.0  0.21160  0.61010  0.21310  1.0000 0.1311933883
H   H79       1.0  0.74850  0.46160  0.10150  1.0000 0.1311933883
H   H80       1.0  0.36010  0.64700  0.89850  1.0000 0.1311933883
H   H81       1.0  0.55570  0.42220  0.59610  1.0000 0.1377531138
H   H82       1.0  0.17220  0.07610  0.36650  1.0000 0.1377531138
H   H83       1.0  0.82610  0.95960  0.40390  1.0000 0.1377531138
H   H84       1.0  0.70960  0.80570  0.63350  1.0000 0.1377531138
H   H85       1.0  0.19430  0.29040  0.36650  1.0000 0.1377531138
H   H86       1.0  0.92390  0.82780  0.63350  1.0000 0.1377531138
H   H87       1.0  0.04040  0.17390  0.59610  1.0000 0.1377531138
H   H88       1.0  0.57780  0.44430  0.40390  1.0000 0.1377531138
H   H89       1.0  0.19430  0.82780  0.90390  1.0000 0.1377531138
H   H90       1.0  0.57780  0.17390  0.13350  1.0000 0.1377531138
H   H91       1.0  0.92390  0.29040  0.09610  1.0000 0.1377531138
H   H92       1.0  0.04040  0.44430  0.86650  1.0000 0.1377531138
H   H93       1.0  0.55570  0.95960  0.13350  1.0000 0.1377531138
H   H94       1.0  0.82610  0.42220  0.86650  1.0000 0.1377531138
H   H95       1.0  0.70960  0.07610  0.90390  1.0000 0.1377531138
H   H96       1.0  0.17220  0.80570  0.09610  1.0000 0.1377531138
H   H97       1.0  0.31270  0.67300  0.36030  1.0000 0.1311933883
H   H98       1.0  0.42300  0.56270  0.86030  1.0000 0.1311933883
H   H99       1.0  0.31270  0.95240  0.63970  1.0000 0.1311933883
H   H100      1.0  0.70240  0.56270  0.13970  1.0000 0.1311933883
H   H101      1.0  0.43730  0.29760  0.86030  1.0000 0.1311933883
H   H102      1.0  0.43730  0.57700  0.13970  1.0000 0.1311933883
H   H103      1.0  0.04760  0.68730  0.36030  1.0000 0.1311933883
H   H104      1.0  0.32700  0.68730  0.63970  1.0000 0.1311933883
H   H105      1.0  0.43190  0.69650  0.36460  1.0000 0.1377531138
H   H106      1.0  0.44650  0.58190  0.76460  1.0000 0.1377531138
H   H107      1.0  0.33190  0.06730  0.63540  1.0000 0.1377531138
H   H108      1.0  0.81730  0.68190  0.23540  1.0000 0.1377531138
H   H109      1.0  0.31810  0.18270  0.76460  1.0000 0.1377531138
H   H110      1.0  0.41810  0.55350  0.23540  1.0000 0.1377531138
H   H111      1.0  0.93270  0.66810  0.36460  1.0000 0.1377531138
H   H112      1.0  0.30350  0.56810  0.63540  1.0000 0.1377531138
H   H113      1.0  0.31810  0.55350  0.13540  1.0000 0.1377531138
H   H114      1.0  0.30350  0.66810  0.73540  1.0000 0.1377531138
H   H115      1.0  0.41810  0.18270  0.86460  1.0000 0.1377531138
H   H116      1.0  0.93270  0.56810  0.26460  1.0000 0.1377531138
H   H117      1.0  0.43190  0.06730  0.73540  1.0000 0.1377531138
H   H118      1.0  0.33190  0.69650  0.26460  1.0000 0.1377531138
H   H119      1.0  0.81730  0.58190  0.13540  1.0000 0.1377531138
H   H120      1.0  0.44650  0.68190  0.86460  1.0000 0.1377531138
H   H121      1.0  0.39070  0.21450  0.28300  1.0000 0.1311933883
H   H122      1.0  0.96450  0.18150  0.32380  1.0000 0.1311933883
H   H123      1.0  0.93150  0.10770  0.71700  1.0000 0.1311933883
H   H124      1.0  0.85770  0.64070  0.67620  1.0000 0.1311933883
H   H125      1.0  0.35930  0.14230  0.32380  1.0000 0.1311933883
H   H126      1.0  0.81850  0.03550  0.67620  1.0000 0.1311933883
H   H127      1.0  0.89230  0.06850  0.28300  1.0000 0.1311933883
H   H128      1.0  0.78550  0.60930  0.71700  1.0000 0.1311933883
H   H129      1.0  0.35930  0.03550  0.21700  1.0000 0.1311933883
H   H130      1.0  0.78550  0.06850  0.17620  1.0000 0.1311933883
H   H131      1.0  0.81850  0.14230  0.78300  1.0000 0.1311933883
H   H132      1.0  0.89230  0.60930  0.82380  1.0000 0.1311933883
H   H133      1.0  0.39070  0.10770  0.17620  1.0000 0.1311933883
H   H134      1.0  0.93150  0.21450  0.82380  1.0000 0.1311933883
H   H135      1.0  0.85770  0.18150  0.21700  1.0000 0.1311933883
H   H136      1.0  0.96450  0.64070  0.78300  1.0000 0.1311933883
H   H137      1.0  0.54860  0.17880  0.36980  1.0000 0.1311933883
H   H138      1.0  0.92880  0.05900  0.13020  1.0000 0.1311933883
H   H139      1.0  0.80900  0.17880  0.63020  1.0000 0.1311933883
H   H140      1.0  0.92880  0.79860  0.86980  1.0000 0.1311933883
H   H141      1.0  0.20140  0.07120  0.13020  1.0000 0.1311933883
H   H142      1.0  0.94100  0.07120  0.86980  1.0000 0.1311933883
H   H143      1.0  0.82120  0.19100  0.36980  1.0000 0.1311933883
H   H144      1.0  0.82120  0.45140  0.63020  1.0000 0.1311933883
C   C1        1.0  0.47386  0.59806  0.50160  1.0000 0.5881105789
C   C2        1.0  0.34806  0.34646  0.62420  1.0000 0.5881105789
C   C3        1.0  0.09646  0.97226  0.49840  1.0000 0.5881105789
C   C4        1.0  0.72226  0.72386  0.37580  1.0000 0.5881105789
C   C5        1.0  0.27614  0.27774  0.62420  1.0000 0.5881105789
C   C6        1.0  0.65354  0.65194  0.37580  1.0000 0.5881105789
C   C7        1.0  0.02774  0.90354  0.50160  1.0000 0.5881105789
C   C8        1.0  0.40194  0.52614  0.49840  1.0000 0.5881105789
C   C9        1.0  0.27614  0.65194  0.99840  1.0000 0.5881105789
C   C10       1.0  0.40194  0.90354  0.87580  1.0000 0.5881105789
C   C11       1.0  0.65354  0.27774  0.00160  1.0000 0.5881105789
C   C12       1.0  0.02774  0.52614  0.12420  1.0000 0.5881105789
C   C13       1.0  0.47386  0.97226  0.87580  1.0000 0.5881105789
C   C14       1.0  0.09646  0.59806  0.12420  1.0000 0.5881105789
C   C15       1.0  0.72226  0.34646  0.99840  1.0000 0.5881105789
C   C16       1.0  0.34806  0.72386  0.00160  1.0000 0.5881105789
C   C17       1.0  0.58235  0.34475  0.61580  1.0000 0.5881105789
C   C18       1.0  0.09475  0.97895  0.26240  1.0000 0.5881105789
C   C19       1.0  0.72895  0.96655  0.38420  1.0000 0.5881105789
C   C20       1.0  0.71655  0.83235  0.73760  1.0000 0.5881105789
C   C21       1.0  0.16765  0.28345  0.26240  1.0000 0.5881105789
C   C22       1.0  0.02105  0.90525  0.73760  1.0000 0.5881105789
C   C23       1.0  0.03345  0.27105  0.61580  1.0000 0.5881105789
C   C24       1.0  0.65525  0.41765  0.38420  1.0000 0.5881105789
C   C25       1.0  0.16765  0.90525  0.88420  1.0000 0.5881105789
C   C26       1.0  0.65525  0.27105  0.23760  1.0000 0.5881105789
C   C27       1.0  0.02105  0.28345  0.11580  1.0000 0.5881105789
C   C28       1.0  0.03345  0.41765  0.76240  1.0000 0.5881105789
C   C29       1.0  0.58235  0.96655  0.23760  1.0000 0.5881105789
C   C30       1.0  0.72895  0.34475  0.76240  1.0000 0.5881105789
C   C31       1.0  0.71655  0.97895  0.88420  1.0000 0.5881105789
C   C32       1.0  0.09475  0.83235  0.11580  1.0000 0.5881105789
C   C33       1.0  0.49911  0.42451  0.48960  1.0000 0.5881105789
C   C34       1.0  0.17451  0.18491  0.42540  1.0000 0.5881105789
C   C35       1.0  0.93491  0.00951  0.51040  1.0000 0.5881105789
C   C36       1.0  0.75951  0.74911  0.57460  1.0000 0.5881105789
C   C37       1.0  0.25089  0.24049  0.42540  1.0000 0.5881105789
C   C38       1.0  0.81509  0.82549  0.57460  1.0000 0.5881105789
C   C39       1.0  0.99049  0.06509  0.48960  1.0000 0.5881105789
C   C40       1.0  0.57549  0.50089  0.51040  1.0000 0.5881105789
C   C41       1.0  0.25089  0.82549  0.01040  1.0000 0.5881105789
C   C42       1.0  0.57549  0.06509  0.07460  1.0000 0.5881105789
C   C43       1.0  0.81509  0.24049  0.98960  1.0000 0.5881105789
C   C44       1.0  0.99049  0.50089  0.92540  1.0000 0.5881105789
C   C45       1.0  0.49911  0.00951  0.07460  1.0000 0.5881105789
C   C46       1.0  0.93491  0.42451  0.92540  1.0000 0.5881105789
C   C47       1.0  0.75951  0.18491  0.01040  1.0000 0.5881105789
C   C48       1.0  0.17451  0.74911  0.98960  1.0000 0.5881105789
C   C49       1.0  0.51953  0.69426  0.56867  1.0000 -0.0971246593
C   C50       1.0  0.44426  0.37559  0.67473  1.0000 -0.0940505065
C   C51       1.0  0.12559  0.95086  0.43133  1.0000 -0.0940505065
C   C52       1.0  0.70086  0.76953  0.32527  1.0000 -0.0971246593
C   C53       1.0  0.23047  0.29914  0.67473  1.0000 -0.0940505065
C   C54       1.0  0.62441  0.55574  0.32527  1.0000 -0.0940505065
C   C55       1.0  0.04914  0.87441  0.56867  1.0000 -0.0971246593
C   C56       1.0  0.30574  0.48047  0.43133  1.0000 -0.0940505065
C   C57       1.0  0.23047  0.55574  0.93133  1.0000 -0.0940505065
C   C58       1.0  0.30574  0.87441  0.82527  1.0000 -0.0940505065
C   C59       1.0  0.62441  0.29914  0.06867  1.0000 -0.0940505065
C   C60       1.0  0.04914  0.48047  0.17473  1.0000 -0.0940505065
C   C61       1.0  0.51953  0.95086  0.82527  1.0000 -0.0940505065
C   C62       1.0  0.12559  0.69426  0.17473  1.0000 -0.0971246593
C   C63       1.0  0.70086  0.37559  0.93133  1.0000 -0.0940505065
C   C64       1.0  0.44426  0.76953  0.06867  1.0000 -0.0971246593
C   C65       1.0  0.47585  0.73347  0.50778  1.0000 -0.1915241968
C   C66       1.0  0.48347  0.47569  0.75762  1.0000 -0.1915241968
C   C67       1.0  0.22569  0.96807  0.49222  1.0000 -0.1915241968
C   C68       1.0  0.71807  0.72585  0.24238  1.0000 -0.1915241968
C   C69       1.0  0.27415  0.28193  0.75762  1.0000 -0.1915241968
C   C70       1.0  0.52431  0.51653  0.24238  1.0000 -0.1915241968
C   C71       1.0  0.03193  0.77431  0.50778  1.0000 -0.1915241968
C   C72       1.0  0.26653  0.52415  0.49222  1.0000 -0.1915241968
C   C73       1.0  0.27415  0.51653  0.99222  1.0000 -0.1915241968
C   C74       1.0  0.26653  0.77431  0.74238  1.0000 -0.1915241968
C   C75       1.0  0.52431  0.28193  0.00778  1.0000 -0.1915241968
C   C76       1.0  0.03193  0.52415  0.25762  1.0000 -0.1915241968
C   C77       1.0  0.47585  0.96807  0.74238  1.0000 -0.1915241968
C   C78       1.0  0.22569  0.73347  0.25762  1.0000 -0.1915241968
C   C79       1.0  0.71807  0.47569  0.99222  1.0000 -0.1915241968
C   C80       1.0  0.48347  0.72585  0.00778  1.0000 -0.1915241968
C   C81       1.0  0.48676  0.31788  0.41908  1.0000 -0.1915241968
C   C82       1.0  0.06788  0.14880  0.33112  1.0000 -0.1915241968
C   C83       1.0  0.89880  0.06768  0.58092  1.0000 -0.1915241968
C   C84       1.0  0.81768  0.73676  0.66888  1.0000 -0.1915241968
C   C85       1.0  0.26324  0.18232  0.33112  1.0000 -0.1915241968
C   C86       1.0  0.85120  0.93212  0.66888  1.0000 -0.1915241968
C   C87       1.0  0.93232  0.10120  0.41908  1.0000 -0.1915241968
C   C88       1.0  0.68212  0.51324  0.58092  1.0000 -0.1915241968
C   C89       1.0  0.26324  0.93212  0.08092  1.0000 -0.1915241968
C   C90       1.0  0.68212  0.10120  0.16888  1.0000 -0.1915241968
C   C91       1.0  0.85120  0.18232  0.91908  1.0000 -0.1915241968
C   C92       1.0  0.93232  0.51324  0.83112  1.0000 -0.1915241968
C   C93       1.0  0.48676  0.06768  0.16888  1.0000 -0.1915241968
C   C94       1.0  0.89880  0.31788  0.83112  1.0000 -0.1915241968
C   C95       1.0  0.81768  0.14880  0.08092  1.0000 -0.1915241968
C   C96       1.0  0.06788  0.73676  0.91908  1.0000 -0.1915241968
C   C97       1.0  0.52795  0.27884  0.48043  1.0000 -0.1980851705
C   C98       1.0  0.02884  0.04841  0.25089  1.0000 -0.1980851705
C   C99       1.0  0.79841  0.04752  0.51957  1.0000 -0.1980851705
C   C100      1.0  0.79752  0.77795  0.74911  1.0000 -0.1980851705
C   C101      1.0  0.22205  0.20248  0.25089  1.0000 -0.1980851705
C   C102      1.0  0.95159  0.97116  0.74911  1.0000 -0.1980851705
C   C103      1.0  0.95248  0.20159  0.48043  1.0000 -0.1980851705
C   C104      1.0  0.72116  0.47205  0.51957  1.0000 -0.1980851705
C   C105      1.0  0.22205  0.97116  0.01957  1.0000 -0.1980851705
C   C106      1.0  0.72116  0.20159  0.24911  1.0000 -0.1980851705
C   C107      1.0  0.95159  0.20248  0.98043  1.0000 -0.1980851705
C   C108      1.0  0.95248  0.47205  0.75089  1.0000 -0.1980851705
C   C109      1.0  0.52795  0.04752  0.24911  1.0000 -0.1980851705
C   C110      1.0  0.79841  0.27884  0.75089  1.0000 -0.1980851705
C   C111      1.0  0.79752  0.04841  0.01957  1.0000 -0.1980851705
C   C112      1.0  0.02884  0.77795  0.98043  1.0000 -0.1980851705
C   C113      1.0  0.56889  0.78879  0.64050  1.0000 0.5881105789
C   C114      1.0  0.53879  0.39829  0.71990  1.0000 0.5881105789
C   C115      1.0  0.14829  0.92839  0.35950  1.0000 0.5881105789
C   C116      1.0  0.67839  0.81889  0.28010  1.0000 0.5881105789
C   C117      1.0  0.18111  0.32161  0.71990  1.0000 0.5881105789
C   C118      1.0  0.60171  0.46121  0.28010  1.0000 0.5881105789
C   C119      1.0  0.07161  0.85171  0.64050  1.0000 0.5881105789
C   C120      1.0  0.21121  0.43111  0.35950  1.0000 0.5881105789
C   C121      1.0  0.18111  0.46121  0.85950  1.0000 0.5881105789
C   C122      1.0  0.21121  0.85171  0.78010  1.0000 0.5881105789
C   C123      1.0  0.60171  0.32161  0.14050  1.0000 0.5881105789
C   C124      1.0  0.07161  0.43111  0.21990  1.0000 0.5881105789
C   C125      1.0  0.56889  0.92839  0.78010  1.0000 0.5881105789
C   C126      1.0  0.14829  0.78879  0.21990  1.0000 0.5881105789
C   C127      1.0  0.67839  0.39829  0.85950  1.0000 0.5881105789
C   C128      1.0  0.53879  0.81889  0.14050  1.0000 0.5881105789
C   C129      1.0  0.42883  0.64206  0.44217  1.0000 -0.1915241968
C   C130      1.0  0.39206  0.44989  0.71323  1.0000 -0.1915241968
C   C131      1.0  0.19989  0.98666  0.55783  1.0000 -0.1915241968
C   C132      1.0  0.73666  0.67883  0.28677  1.0000 -0.1915241968
C   C133      1.0  0.32117  0.26334  0.71323  1.0000 -0.1915241968
C   C134      1.0  0.55011  0.60794  0.28677  1.0000 -0.1915241968
C   C135      1.0  0.01334  0.80011  0.44217  1.0000 -0.1915241968
C   C136      1.0  0.35794  0.57117  0.55783  1.0000 -0.1915241968
C   C137      1.0  0.32117  0.60794  0.05783  1.0000 -0.1915241968
C   C138      1.0  0.35794  0.80011  0.78677  1.0000 -0.1915241968
C   C139      1.0  0.55011  0.26334  0.94217  1.0000 -0.1915241968
C   C140      1.0  0.01334  0.57117  0.21323  1.0000 -0.1915241968
C   C141      1.0  0.42883  0.98666  0.78677  1.0000 -0.1915241968
C   C142      1.0  0.19989  0.64206  0.21323  1.0000 -0.1915241968
C   C143      1.0  0.73666  0.44989  0.05783  1.0000 -0.1915241968
C   C144      1.0  0.39206  0.67883  0.94217  1.0000 -0.1915241968
C   C145      1.0  0.55019  0.33534  0.54817  1.0000 -0.0461582771
C   C146      1.0  0.08534  0.03717  0.28515  1.0000 -0.0461582771
C   C147      1.0  0.78717  0.00202  0.45183  1.0000 -0.0461582771
C   C148      1.0  0.75202  0.80019  0.71485  1.0000 -0.0461582771
C   C149      1.0  0.19981  0.24798  0.28515  1.0000 -0.0461582771
C   C150      1.0  0.96283  0.91466  0.71485  1.0000 -0.0461582771
C   C151      1.0  0.99798  0.21283  0.54817  1.0000 -0.0461582771
C   C152      1.0  0.66466  0.44981  0.45183  1.0000 -0.0461582771
C   C153      1.0  0.19981  0.91466  0.95183  1.0000 -0.0461582771
C   C154      1.0  0.66466  0.21283  0.21485  1.0000 -0.0461582771
C   C155      1.0  0.96283  0.24798  0.04817  1.0000 -0.0461582771
C   C156      1.0  0.99798  0.44981  0.78515  1.0000 -0.0461582771
C   C157      1.0  0.55019  0.00202  0.21485  1.0000 -0.0461582771
C   C158      1.0  0.78717  0.33534  0.78515  1.0000 -0.0461582771
C   C159      1.0  0.75202  0.03717  0.95183  1.0000 -0.0461582771
C   C160      1.0  0.08534  0.80019  0.04817  1.0000 -0.0461582771
C   C161      1.0  0.47286  0.64538  0.50388  1.0000 -0.0370069233
C   C162      1.0  0.39538  0.39150  0.67252  1.0000 -0.0370069233
C   C163      1.0  0.14150  0.96898  0.49612  1.0000 -0.0370069233
C   C164      1.0  0.71898  0.72286  0.32748  1.0000 -0.0370069233
C   C165      1.0  0.27714  0.28102  0.67252  1.0000 -0.0370069233
C   C166      1.0  0.60850  0.60462  0.32748  1.0000 -0.0370069233
C   C167      1.0  0.03102  0.85850  0.50388  1.0000 -0.0370069233
C   C168      1.0  0.35462  0.52714  0.49612  1.0000 -0.0370069233
C   C169      1.0  0.27714  0.60462  0.99612  1.0000 -0.0370069233
C   C170      1.0  0.35462  0.85850  0.82748  1.0000 -0.0370069233
C   C171      1.0  0.60850  0.28102  0.00388  1.0000 -0.0370069233
C   C172      1.0  0.03102  0.52714  0.17252  1.0000 -0.0370069233
C   C173      1.0  0.47286  0.96898  0.82748  1.0000 -0.0370069233
C   C174      1.0  0.14150  0.64538  0.17252  1.0000 -0.0370069233
C   C175      1.0  0.71898  0.39150  0.99612  1.0000 -0.0370069233
C   C176      1.0  0.39538  0.72286  0.00388  1.0000 -0.0370069233
C   C177      1.0  0.54055  0.38358  0.55033  1.0000 -0.0971246593
C   C178      1.0  0.13358  0.08325  0.34303  1.0000 -0.0971246593
C   C179      1.0  0.83325  0.99022  0.44967  1.0000 -0.0971246593
C   C180      1.0  0.74022  0.79055  0.65697  1.0000 -0.0971246593
C   C181      1.0  0.20945  0.25978  0.34303  1.0000 -0.0971246593
C   C182      1.0  0.91675  0.86642  0.65697  1.0000 -0.0971246593
C   C183      1.0  0.00978  0.16675  0.55033  1.0000 -0.0971246593
C   C184      1.0  0.61642  0.45945  0.44967  1.0000 -0.0971246593
C   C185      1.0  0.20945  0.86642  0.94967  1.0000 -0.0971246593
C   C186      1.0  0.61642  0.16675  0.15697  1.0000 -0.0971246593
C   C187      1.0  0.91675  0.25978  0.05033  1.0000 -0.0971246593
C   C188      1.0  0.00978  0.45945  0.84303  1.0000 -0.0971246593
C   C189      1.0  0.54055  0.99022  0.15697  1.0000 -0.0971246593
C   C190      1.0  0.83325  0.38358  0.84303  1.0000 -0.0971246593
C   C191      1.0  0.74022  0.08325  0.94967  1.0000 -0.0940505065
C   C192      1.0  0.13358  0.79055  0.05033  1.0000 -0.0971246593
C   C193      1.0  0.32962  0.67872  0.34910  1.0000 -0.0567978917
C   C194      1.0  0.42872  0.57962  0.84910  1.0000 -0.0567978917
C   C195      1.0  0.32962  0.98052  0.65090  1.0000 -0.0567978917
C   C196      1.0  0.73052  0.57962  0.15090  1.0000 -0.0567978917
C   C197      1.0  0.42038  0.26948  0.84910  1.0000 -0.0567978917
C   C198      1.0  0.42038  0.57128  0.15090  1.0000 -0.0567978917
C   C199      1.0  0.01948  0.67038  0.34910  1.0000 -0.0567978917
C   C200      1.0  0.32128  0.67038  0.65090  1.0000 -0.0567978917
C   C201      1.0  0.43136  0.68521  0.44435  1.0000 0.1377531138
C   C202      1.0  0.43521  0.49086  0.75385  1.0000 0.1377531138
C   C203      1.0  0.24086  0.98701  0.55565  1.0000 0.1377531138
C   C204      1.0  0.73701  0.68136  0.24615  1.0000 0.1377531138
C   C205      1.0  0.31864  0.26299  0.75385  1.0000 0.1377531138
C   C206      1.0  0.50914  0.56479  0.24615  1.0000 0.1377531138
C   C207      1.0  0.01299  0.75914  0.44435  1.0000 0.1377531138
C   C208      1.0  0.31479  0.56864  0.55565  1.0000 0.1377531138
C   C209      1.0  0.31864  0.56479  0.05565  1.0000 0.1377531138
C   C210      1.0  0.31479  0.75914  0.74615  1.0000 0.1377531138
C   C211      1.0  0.50914  0.26299  0.94435  1.0000 0.1377531138
C   C212      1.0  0.01299  0.56864  0.25385  1.0000 0.1377531138
C   C213      1.0  0.43136  0.98701  0.74615  1.0000 0.1377531138
C   C214      1.0  0.24086  0.68521  0.25385  1.0000 0.1377531138
C   C215      1.0  0.73701  0.49086  0.05565  1.0000 0.1377531138
C   C216      1.0  0.43521  0.68136  0.94435  1.0000 0.1377531138
C   C217      1.0  0.50984  0.37427  0.48703  1.0000 -0.0370069233
C   C218      1.0  0.12427  0.13724  0.36443  1.0000 -0.0370069233
C   C219      1.0  0.88724  0.02281  0.51297  1.0000 -0.0370069233
C   C220      1.0  0.77281  0.75984  0.63557  1.0000 -0.0370069233
C   C221      1.0  0.24016  0.22719  0.36443  1.0000 -0.0370069233
C   C222      1.0  0.86276  0.87573  0.63557  1.0000 -0.0370069233
C   C223      1.0  0.97719  0.11276  0.48703  1.0000 -0.0370069233
C   C224      1.0  0.62573  0.49016  0.51297  1.0000 -0.0370069233
C   C225      1.0  0.24016  0.87573  0.01297  1.0000 -0.0370069233
C   C226      1.0  0.62573  0.11276  0.13557  1.0000 -0.0370069233
C   C227      1.0  0.86276  0.22719  0.98703  1.0000 -0.0370069233
C   C228      1.0  0.97719  0.49016  0.86443  1.0000 -0.0370069233
C   C229      1.0  0.50984  0.02281  0.13557  1.0000 -0.0346374217
C   C230      1.0  0.88724  0.37427  0.86443  1.0000 -0.0370069233
C   C231      1.0  0.77281  0.13724  0.01297  1.0000 -0.0370069233
C   C232      1.0  0.12427  0.75984  0.98703  1.0000 -0.0370069233
C   C233      1.0  0.49823  0.27195  0.41792  1.0000 0.1311933883
C   C234      1.0  0.02195  0.10403  0.27372  1.0000 0.1311933883
C   C235      1.0  0.85403  0.08031  0.58208  1.0000 0.1311933883
C   C236      1.0  0.83031  0.74823  0.72628  1.0000 0.1311933883
C   C237      1.0  0.25177  0.16969  0.27372  1.0000 0.1311933883
C   C238      1.0  0.89597  0.97805  0.72628  1.0000 0.1311933883
C   C239      1.0  0.91969  0.14597  0.41792  1.0000 0.1311933883
C   C240      1.0  0.72805  0.50177  0.58208  1.0000 0.1311933883
C   C241      1.0  0.25177  0.97805  0.08208  1.0000 0.1311933883
C   C242      1.0  0.72805  0.14597  0.22628  1.0000 0.1311933883
C   C243      1.0  0.89597  0.16969  0.91792  1.0000 0.1311933883
C   C244      1.0  0.91969  0.50177  0.77372  1.0000 0.1311933883
C   C245      1.0  0.49823  0.08031  0.22628  1.0000 0.1311933883
C   C246      1.0  0.85403  0.27195  0.77372  1.0000 0.1311933883
C   C247      1.0  0.83031  0.10403  0.08208  1.0000 0.1311933883
C   C248      1.0  0.02195  0.74823  0.91792  1.0000 0.1311933883
C   C249      1.0  0.39564  0.69194  0.35050  1.0000 -0.111200156
C   C250      1.0  0.44194  0.59144  0.79630  1.0000 -0.111200156
C   C251      1.0  0.34144  0.04514  0.64950  1.0000 -0.111200156
C   C252      1.0  0.79514  0.64564  0.20370  1.0000 -0.111200156
C   C253      1.0  0.35436  0.20486  0.79630  1.0000 -0.111200156
C   C254      1.0  0.40856  0.55806  0.20370  1.0000 -0.111200156
C   C255      1.0  0.95486  0.65856  0.35050  1.0000 -0.111200156
C   C256      1.0  0.30806  0.60436  0.64950  1.0000 -0.111200156
C   C257      1.0  0.35436  0.55806  0.14950  1.0000 -0.111200156
C   C258      1.0  0.30806  0.65856  0.70370  1.0000 -0.111200156
C   C259      1.0  0.40856  0.20486  0.85050  1.0000 -0.111200156
C   C260      1.0  0.95486  0.60436  0.29630  1.0000 -0.111200156
C   C261      1.0  0.39564  0.04514  0.70370  1.0000 -0.111200156
C   C262      1.0  0.34144  0.69194  0.29630  1.0000 -0.111200156
C   C263      1.0  0.79514  0.59144  0.14950  1.0000 -0.111200156
C   C264      1.0  0.44194  0.64564  0.85050  1.0000 -0.111200156
C   C265      1.0  0.42259  0.19509  0.28790  1.0000 -0.0971246593
C   C266      1.0  0.94509  0.15719  0.27250  1.0000 -0.0971246593
C   C267      1.0  0.90719  0.13469  0.71210  1.0000 -0.0971246593
C   C268      1.0  0.88469  0.67259  0.72750  1.0000 -0.0971246593
C   C269      1.0  0.32741  0.11531  0.27250  1.0000 -0.0971246593
C   C270      1.0  0.84281  0.05491  0.72750  1.0000 -0.0971246593
C   C271      1.0  0.86531  0.09281  0.28790  1.0000 -0.0971246593
C   C272      1.0  0.80491  0.57741  0.71210  1.0000 -0.0971246593
C   C273      1.0  0.32741  0.05491  0.21210  1.0000 -0.0971246593
C   C274      1.0  0.80491  0.09281  0.22750  1.0000 -0.0971246593
C   C275      1.0  0.84281  0.11531  0.78790  1.0000 -0.0971246593
C   C276      1.0  0.86531  0.57741  0.77250  1.0000 -0.0971246593
C   C277      1.0  0.42259  0.13469  0.22750  1.0000 -0.0971246593
C   C278      1.0  0.90719  0.19509  0.77250  1.0000 -0.0971246593
C   C279      1.0  0.88469  0.15719  0.21210  1.0000 -0.0971246593
C   C280      1.0  0.94509  0.67259  0.78790  1.0000 -0.0971246593
C   C281      1.0  0.50807  0.17457  0.33350  1.0000 -0.0370069233
C   C282      1.0  0.92457  0.09107  0.16650  1.0000 -0.0370069233
C   C283      1.0  0.84107  0.17457  0.66650  1.0000 -0.0370069233
C   C284      1.0  0.92457  0.75807  0.83350  1.0000 -0.0370069233
C   C285      1.0  0.24193  0.07543  0.16650  1.0000 -0.0370069233
C   C286      1.0  0.90893  0.07543  0.83350  1.0000 -0.0370069233
C   C287      1.0  0.82543  0.15893  0.33350  1.0000 -0.0370069233
C   C288      1.0  0.82543  0.49193  0.66650  1.0000 -0.0370069233
C   C289      1.0  0.52075  0.73785  0.57130  1.0000 -0.0370069233
C   C290      1.0  0.48785  0.41655  0.71710  1.0000 -0.0370069233
C   C291      1.0  0.16655  0.94945  0.42870  1.0000 -0.0370069233
C   C292      1.0  0.69945  0.77075  0.28290  1.0000 -0.0370069233
C   C293      1.0  0.22925  0.30055  0.71710  1.0000 -0.0370069233
C   C294      1.0  0.58345  0.51215  0.28290  1.0000 -0.0370069233
C   C295      1.0  0.05055  0.83345  0.57130  1.0000 -0.0370069233
C   C296      1.0  0.26215  0.47925  0.42870  1.0000 -0.0370069233
C   C297      1.0  0.22925  0.51215  0.92870  1.0000 -0.0370069233
C   C298      1.0  0.26215  0.83345  0.78290  1.0000 -0.0370069233
C   C299      1.0  0.58345  0.30055  0.07130  1.0000 -0.0370069233
C   C300      1.0  0.05055  0.47925  0.21710  1.0000 -0.0370069233
C   C301      1.0  0.52075  0.94945  0.78290  1.0000 -0.0370069233
C   C302      1.0  0.16655  0.73785  0.21710  1.0000 -0.0370069233
C   C303      1.0  0.69945  0.41655  0.92870  1.0000 -0.0370069233
C   C304      1.0  0.48785  0.77075  0.07130  1.0000 -0.0346374217
N   N1        1.0  0.47828  0.21365  0.34903  1.0000 0.0091438017
N   N2        1.0  0.96365  0.11462  0.23537  1.0000 0.0091438017
N   N3        1.0  0.86462  0.12925  0.65097  1.0000 0.0091438017
N   N4        1.0  0.87925  0.72828  0.76463  1.0000 0.0091438017
N   N5        1.0  0.27172  0.12075  0.23537  1.0000 0.0091438017
N   N6        1.0  0.88538  0.03635  0.76463  1.0000 0.0091438017
N   N7        1.0  0.87075  0.13538  0.34903  1.0000 0.0091438017
N   N8        1.0  0.78635  0.52172  0.65097  1.0000 0.0091438017
N   N9        1.0  0.27172  0.03635  0.15097  1.0000 0.0091438017
N   N10       1.0  0.78635  0.13538  0.26463  1.0000 0.0091438017
N   N11       1.0  0.88538  0.12075  0.84903  1.0000 0.0091438017
N   N12       1.0  0.87075  0.52172  0.73537  1.0000 0.0091438017
N   N13       1.0  0.47828  0.12925  0.26463  1.0000 0.0091438017
N   N14       1.0  0.86462  0.21365  0.73537  1.0000 0.0091438017
N   N15       1.0  0.87925  0.11462  0.15097  1.0000 0.0091438017
N   N16       1.0  0.96365  0.72828  0.84903  1.0000 0.0091438017
N   N17       1.0  0.38466  0.68336  0.38150  1.0000 0.0023675308
N   N18       1.0  0.43336  0.55186  0.79870  1.0000 0.0023675308
N   N19       1.0  0.30186  0.00316  0.61850  1.0000 0.0023675308
N   N20       1.0  0.75316  0.63466  0.20130  1.0000 0.0023675308
N   N21       1.0  0.36534  0.24684  0.79870  1.0000 0.0023675308
N   N22       1.0  0.44814  0.56664  0.20130  1.0000 0.0023675308
N   N23       1.0  0.99684  0.69814  0.38150  1.0000 0.0023675308
N   N24       1.0  0.31664  0.61534  0.61850  1.0000 0.0023675308
N   N25       1.0  0.36534  0.56664  0.11850  1.0000 0.0023675308
N   N26       1.0  0.31664  0.69814  0.70130  1.0000 0.0023675308
N   N27       1.0  0.44814  0.24684  0.88150  1.0000 0.0023675308
N   N28       1.0  0.99684  0.61534  0.29870  1.0000 0.0023675308
N   N29       1.0  0.38466  0.00316  0.70130  1.0000 0.0023675308
N   N30       1.0  0.30186  0.68336  0.29870  1.0000 0.0023675308
N   N31       1.0  0.75316  0.55186  0.11850  1.0000 0.0023675308
N   N32       1.0  0.43336  0.63466  0.88150  1.0000 0.0023675308
O   O1        1.0  0.43657  0.55205  0.43912  1.0000 -0.5511005469
O   O2        1.0  0.30205  0.36293  0.61548  1.0000 -0.5511005469
O   O3        1.0  0.11293  0.99745  0.56088  1.0000 -0.5511005469
O   O4        1.0  0.74745  0.68657  0.38452  1.0000 -0.5511005469
O   O5        1.0  0.31343  0.25255  0.61548  1.0000 -0.5511005469
O   O6        1.0  0.63707  0.69795  0.38452  1.0000 -0.5511005469
O   O7        1.0  0.00255  0.88707  0.43912  1.0000 -0.5511005469
O   O8        1.0  0.44795  0.56343  0.56088  1.0000 -0.5511005469
O   O9        1.0  0.31343  0.69795  0.06088  1.0000 -0.5511005469
O   O10       1.0  0.44795  0.88707  0.88452  1.0000 -0.5511005469
O   O11       1.0  0.63707  0.25255  0.93912  1.0000 -0.5511005469
O   O12       1.0  0.00255  0.56343  0.11548  1.0000 -0.5511005469
O   O13       1.0  0.43657  0.99745  0.88452  1.0000 -0.5511005469
O   O14       1.0  0.11293  0.55205  0.11548  1.0000 -0.5511005469
O   O15       1.0  0.74745  0.36293  0.06088  1.0000 -0.5511005469
O   O16       1.0  0.30205  0.68657  0.93912  1.0000 -0.5511005469
O   O17       1.0  0.60346  0.79483  0.69663  1.0000 -0.4939026828
O   O18       1.0  0.54483  0.34820  0.69137  1.0000 -0.4950152006
O   O19       1.0  0.09820  0.90683  0.30337  1.0000 -0.4950152006
O   O20       1.0  0.65683  0.85346  0.30863  1.0000 -0.4939026828
O   O21       1.0  0.14654  0.34317  0.69137  1.0000 -0.4950152006
O   O22       1.0  0.65180  0.45517  0.30863  1.0000 -0.4950152006
O   O23       1.0  0.09317  0.90180  0.69663  1.0000 -0.4939026828
O   O24       1.0  0.20517  0.39654  0.30337  1.0000 -0.4939026828
O   O25       1.0  0.14654  0.45517  0.80337  1.0000 -0.4950152006
O   O26       1.0  0.20517  0.90180  0.80863  1.0000 -0.4939026828
O   O27       1.0  0.65180  0.34317  0.19663  1.0000 -0.4939026828
O   O28       1.0  0.09317  0.39654  0.19137  1.0000 -0.4939026828
O   O29       1.0  0.60346  0.90683  0.80863  1.0000 -0.4939026828
O   O30       1.0  0.09820  0.79483  0.19137  1.0000 -0.4939026828
O   O31       1.0  0.65683  0.34820  0.80337  1.0000 -0.4950152006
O   O32       1.0  0.54483  0.85346  0.19663  1.0000 -0.4939026828
O   O33       1.0  0.51175  0.60669  0.56300  1.0000 -0.5591962874
O   O34       1.0  0.35669  0.29369  0.59494  1.0000 -0.5591962874
O   O35       1.0  0.04369  0.94875  0.43700  1.0000 -0.5591962874
O   O36       1.0  0.69875  0.76175  0.40506  1.0000 -0.5591962874
O   O37       1.0  0.23825  0.30125  0.59494  1.0000 -0.5591962874
O   O38       1.0  0.70631  0.64331  0.40506  1.0000 -0.5591962874
O   O39       1.0  0.05125  0.95631  0.56300  1.0000 -0.5591962874
O   O40       1.0  0.39331  0.48825  0.43700  1.0000 -0.5591962874
O   O41       1.0  0.23825  0.64331  0.93700  1.0000 -0.5591962874
O   O42       1.0  0.39331  0.95631  0.90506  1.0000 -0.5591962874
O   O43       1.0  0.70631  0.30125  0.06300  1.0000 -0.5591962874
O   O44       1.0  0.05125  0.48825  0.09494  1.0000 -0.5591962874
O   O45       1.0  0.51175  0.94875  0.90506  1.0000 -0.5591962874
O   O46       1.0  0.04369  0.60669  0.09494  1.0000 -0.5591962874
O   O47       1.0  0.69875  0.29369  0.93700  1.0000 -0.5591962874
O   O48       1.0  0.35669  0.76175  0.06300  1.0000 -0.5591962874
O   O49       1.0  0.58230  0.30358  0.61178  1.0000 -0.5319883194
O   O50       1.0  0.05358  0.94180  0.22128  1.0000 -0.5319883194
O   O51       1.0  0.69180  0.97052  0.38822  1.0000 -0.5319883194
O   O52       1.0  0.72052  0.83230  0.77872  1.0000 -0.5319883194
O   O53       1.0  0.16770  0.27948  0.22128  1.0000 -0.5319883194
O   O54       1.0  0.05820  0.94642  0.77872  1.0000 -0.5319883194
O   O55       1.0  0.02948  0.30820  0.61178  1.0000 -0.5319883194
O   O56       1.0  0.69642  0.41770  0.38822  1.0000 -0.5319883194
O   O57       1.0  0.16770  0.94642  0.88822  1.0000 -0.5319883194
O   O58       1.0  0.69642  0.30820  0.27872  1.0000 -0.5319883194
O   O59       1.0  0.05820  0.27948  0.11178  1.0000 -0.5319883194
O   O60       1.0  0.02948  0.41770  0.72128  1.0000 -0.5319883194
O   O61       1.0  0.58230  0.97052  0.27872  1.0000 -0.5319883194
O   O62       1.0  0.69180  0.30358  0.72128  1.0000 -0.5319883194
O   O63       1.0  0.72052  0.94180  0.88822  1.0000 -0.5319883194
O   O64       1.0  0.05358  0.83230  0.11178  1.0000 -0.5319883194
O   O65       1.0  0.51590  0.47408  0.55016  1.0000 -0.5363793674
O   O66       1.0  0.22408  0.17392  0.45818  1.0000 -0.5363793674
O   O67       1.0  0.92392  0.96574  0.44984  1.0000 -0.5363793674
O   O68       1.0  0.71574  0.76590  0.54182  1.0000 -0.5363793674
O   O69       1.0  0.23410  0.28426  0.45818  1.0000 -0.5363793674
O   O70       1.0  0.82608  0.77592  0.54182  1.0000 -0.5363793674
O   O71       1.0  0.03426  0.07608  0.55016  1.0000 -0.5363793674
O   O72       1.0  0.52592  0.48410  0.44984  1.0000 -0.5363793674
O   O73       1.0  0.23410  0.77592  0.94984  1.0000 -0.5363793674
O   O74       1.0  0.52592  0.07608  0.04182  1.0000 -0.5363793674
O   O75       1.0  0.82608  0.28426  0.05016  1.0000 -0.5363793674
O   O76       1.0  0.03426  0.48410  0.95818  1.0000 -0.5363793674
O   O77       1.0  0.51590  0.96574  0.04182  1.0000 -0.5363793674
O   O78       1.0  0.92392  0.47408  0.95818  1.0000 -0.5363793674
O   O79       1.0  0.71574  0.17392  0.94984  1.0000 -0.5363793674
O   O80       1.0  0.22408  0.76590  0.05016  1.0000 -0.5363793674
O   O81       1.0  0.61011  0.39679  0.67744  1.0000 -0.5651591263
O   O82       1.0  0.14679  0.96935  0.28668  1.0000 -0.5651591263
O   O83       1.0  0.71935  0.93267  0.32256  1.0000 -0.5651591263
O   O84       1.0  0.68267  0.86011  0.71332  1.0000 -0.5651591263
O   O85       1.0  0.13989  0.31733  0.28668  1.0000 -0.5591962874
O   O86       1.0  0.03065  0.85321  0.71332  1.0000 -0.5591962874
O   O87       1.0  0.06733  0.28065  0.67744  1.0000 -0.5651591263
O   O88       1.0  0.60321  0.38989  0.32256  1.0000 -0.5591962874
O   O89       1.0  0.13989  0.85321  0.82256  1.0000 -0.5591962874
O   O90       1.0  0.60321  0.28065  0.21332  1.0000 -0.5651591263
O   O91       1.0  0.03065  0.31733  0.17744  1.0000 -0.5591962874
O   O92       1.0  0.06733  0.38989  0.78668  1.0000 -0.5651591263
O   O93       1.0  0.61011  0.93267  0.21332  1.0000 -0.5651591263
O   O94       1.0  0.71935  0.39679  0.78668  1.0000 -0.5651591263
O   O95       1.0  0.68267  0.96935  0.82256  1.0000 -0.5651591263
O   O96       1.0  0.14679  0.86011  0.17744  1.0000 -0.5651591263
O   O97       1.0  0.56813  0.82567  0.63592  1.0000 -0.5591962874
O   O98       1.0  0.57567  0.43975  0.75754  1.0000 -0.5651591263
O   O99       1.0  0.18975  0.93221  0.36408  1.0000 -0.5651591263
O   O100      1.0  0.68221  0.81813  0.24246  1.0000 -0.5591962874
O   O101      1.0  0.18187  0.31779  0.75754  1.0000 -0.5651591263
O   O102      1.0  0.56025  0.42433  0.24246  1.0000 -0.5591962874
O   O103      1.0  0.06779  0.81025  0.63592  1.0000 -0.5591962874
O   O104      1.0  0.17433  0.43187  0.36408  1.0000 -0.5651591263
O   O105      1.0  0.18187  0.42433  0.86408  1.0000 -0.5591962874
O   O106      1.0  0.17433  0.81025  0.74246  1.0000 -0.5591962874
O   O107      1.0  0.56025  0.31779  0.13592  1.0000 -0.5651591263
O   O108      1.0  0.06779  0.43187  0.25754  1.0000 -0.5591962874
O   O109      1.0  0.56813  0.93221  0.74246  1.0000 -0.5591962874
O   O110      1.0  0.18975  0.82567  0.25754  1.0000 -0.5591962874
O   O111      1.0  0.68221  0.43975  0.86408  1.0000 -0.5651591263
O   O112      1.0  0.57567  0.81813  0.13592  1.0000 -0.5591962874
O   O113      1.0  0.47361  0.41367  0.42996  1.0000 -0.5591962874
O   O114      1.0  0.16367  0.23371  0.44006  1.0000 -0.5591962874
O   O115      1.0  0.98371  0.04365  0.57004  1.0000 -0.5591962874
O   O116      1.0  0.79365  0.72361  0.55994  1.0000 -0.5591962874
O   O117      1.0  0.27639  0.20635  0.44006  1.0000 -0.5591962874
O   O118      1.0  0.76629  0.83633  0.55994  1.0000 -0.5591962874
O   O119      1.0  0.95635  0.01629  0.42996  1.0000 -0.5591962874
O   O120      1.0  0.58633  0.52639  0.57004  1.0000 -0.5591962874
O   O121      1.0  0.27639  0.83633  0.07004  1.0000 -0.5511005469
O   O122      1.0  0.58633  0.01629  0.05994  1.0000 -0.5591962874
O   O123      1.0  0.76629  0.20635  0.92996  1.0000 -0.5591962874
O   O124      1.0  0.95635  0.52639  0.94006  1.0000 -0.5591962874
O   O125      1.0  0.47361  0.04365  0.05994  1.0000 -0.5591962874
O   O126      1.0  0.98371  0.41367  0.94006  1.0000 -0.5591962874
O   O127      1.0  0.79365  0.23371  0.07004  1.0000 -0.5591962874
O   O128      1.0  0.16367  0.72361  0.92996  1.0000 -0.5591962874
