# DDEC6 charges by PACMAN v1.1 (https://github.com/mtap-research/PACMAN-charge/)
data_2015[Zn][eta]3[ASR]2
_chemical_formula_sum              "Zn6 H36 C30 N48"
_cell_length_a       9.6896
_cell_length_b       9.6896
_cell_length_c       20.153
_cell_angle_alpha    90
_cell_angle_beta     90
_cell_angle_gamma    120

_symmetry_space_group_name_H-M    "P 1"
_symmetry_Int_Tables_number       1

loop_
  _symmetry_equiv_pos_as_xyz
  'x, y, z'

loop_
  _atom_site_type_symbol
  _atom_site_label
  _atom_site_symmetry_multiplicity
  _atom_site_fract_x
  _atom_site_fract_y
  _atom_site_fract_z
  _atom_site_occupancy
  _atom_site_charge
Zn  Zn1       1.0  0.93674  0.50690  0.41598  1.0000 0.6724536732
Zn  Zn2       1.0  0.49310  0.42984  0.74931  1.0000 0.6724536732
Zn  Zn3       1.0  0.57016  0.06326  0.08265  1.0000 0.6724536732
Zn  Zn4       1.0  0.50690  0.93674  0.58402  1.0000 0.6724536732
Zn  Zn5       1.0  0.42984  0.49310  0.25069  1.0000 0.6724536732
Zn  Zn6       1.0  0.06326  0.57016  0.91735  1.0000 0.6724536732
H   H1        1.0  0.98740  0.65340  0.56130  1.0000 0.3016803975
H   H2        1.0  0.34660  0.33400  0.89463  1.0000 0.3016803975
H   H3        1.0  0.66600  0.01260  0.22797  1.0000 0.3016803975
H   H4        1.0  0.65340  0.98740  0.43870  1.0000 0.3016803975
H   H5        1.0  0.33400  0.34660  0.10537  1.0000 0.3016803975
H   H6        1.0  0.01260  0.66600  0.77203  1.0000 0.3016803975
H   H7        1.0  0.12000  0.78470  0.59860  1.0000 0.3086828902
H   H8        1.0  0.21530  0.33530  0.93193  1.0000 0.3086828902
H   H9        1.0  0.66470  0.88000  0.26527  1.0000 0.3086828902
H   H10       1.0  0.78470  0.12000  0.40140  1.0000 0.3086828902
H   H11       1.0  0.33530  0.21530  0.06807  1.0000 0.3086828902
H   H12       1.0  0.88000  0.66470  0.73473  1.0000 0.3086828902
H   H13       1.0  0.95810  0.08360  0.22900  1.0000 0.2769554471
H   H14       1.0  0.91640  0.87450  0.56233  1.0000 0.2769554471
H   H15       1.0  0.12550  0.04190  0.89567  1.0000 0.2769554471
H   H16       1.0  0.08360  0.95810  0.77100  1.0000 0.2769554471
H   H17       1.0  0.87450  0.91640  0.43767  1.0000 0.2769554471
H   H18       1.0  0.04190  0.12550  0.10433  1.0000 0.2769554471
H   H19       1.0  0.12490  0.16480  0.21470  1.0000 0.2709674949
H   H20       1.0  0.83520  0.96010  0.54803  1.0000 0.2709674949
H   H21       1.0  0.03990  0.87510  0.88137  1.0000 0.2709674949
H   H22       1.0  0.16480  0.12490  0.78530  1.0000 0.2709674949
H   H23       1.0  0.96010  0.83520  0.45197  1.0000 0.2709674949
H   H24       1.0  0.87510  0.03990  0.11863  1.0000 0.2709674949
H   H25       1.0  0.27450  0.74700  0.31680  1.0000 0.161646462
H   H26       1.0  0.25300  0.52750  0.65013  1.0000 0.161646462
H   H27       1.0  0.47250  0.72550  0.98347  1.0000 0.161646462
H   H28       1.0  0.74700  0.27450  0.68320  1.0000 0.161646462
H   H29       1.0  0.52750  0.25300  0.34987  1.0000 0.161646462
H   H30       1.0  0.72550  0.47250  0.01653  1.0000 0.161646462
H   H31       1.0  0.40390  0.70010  0.33910  1.0000 0.1549868946
H   H32       1.0  0.29990  0.70380  0.67243  1.0000 0.1549868946
H   H33       1.0  0.29620  0.59610  0.00577  1.0000 0.1549868946
H   H34       1.0  0.70010  0.40390  0.66090  1.0000 0.1549868946
H   H35       1.0  0.70380  0.29990  0.32757  1.0000 0.1549868946
H   H36       1.0  0.59610  0.29620  0.99423  1.0000 0.1549868946
C   C1        1.0  0.19020  0.75120  0.50930  1.0000 0.5197868263
C   C2        1.0  0.24880  0.43900  0.84263  1.0000 0.5197868263
C   C3        1.0  0.56100  0.80980  0.17597  1.0000 0.5197868263
C   C4        1.0  0.75120  0.19020  0.49070  1.0000 0.5197868263
C   C5        1.0  0.43900  0.24880  0.15737  1.0000 0.5197868263
C   C6        1.0  0.80980  0.56100  0.82403  1.0000 0.5197868263
C   C7        1.0  0.28290  0.72410  0.41780  1.0000 0.3667122886
C   C8        1.0  0.27590  0.55880  0.75113  1.0000 0.3667122886
C   C9        1.0  0.44120  0.71710  0.08447  1.0000 0.3667122886
C   C10       1.0  0.72410  0.28290  0.58220  1.0000 0.3667122886
C   C11       1.0  0.55880  0.27590  0.24887  1.0000 0.3667122886
C   C12       1.0  0.71710  0.44120  0.91553  1.0000 0.3667122886
C   C13       1.0  0.29390  0.67810  0.34710  1.0000 -0.3994398798
C   C14       1.0  0.32190  0.61580  0.68043  1.0000 -0.3994398798
C   C15       1.0  0.38420  0.70610  0.01377  1.0000 -0.3994398798
C   C16       1.0  0.67810  0.29390  0.65290  1.0000 -0.3994398798
C   C17       1.0  0.61580  0.32190  0.31957  1.0000 -0.3994398798
C   C18       1.0  0.70610  0.38420  0.98623  1.0000 -0.3994398798
C   C19       1.0  0.18100  0.50860  0.33010  1.0000 0.3614062384
C   C20       1.0  0.49140  0.67240  0.66343  1.0000 0.3614062384
C   C21       1.0  0.32760  0.81900  0.99677  1.0000 0.3614062384
C   C22       1.0  0.50860  0.18100  0.66990  1.0000 0.3614062384
C   C23       1.0  0.67240  0.49140  0.33657  1.0000 0.3614062384
C   C24       1.0  0.81900  0.32760  0.00323  1.0000 0.3614062384
C   C25       1.0  0.07680  0.27860  0.28610  1.0000 0.513865522
C   C26       1.0  0.72140  0.79820  0.61943  1.0000 0.513865522
C   C27       1.0  0.20180  0.92320  0.95277  1.0000 0.513865522
C   C28       1.0  0.27860  0.07680  0.71390  1.0000 0.513865522
C   C29       1.0  0.79820  0.72140  0.38057  1.0000 0.513865522
C   C30       1.0  0.92320  0.20180  0.04723  1.0000 0.513865522
N   N1        1.0  0.34850  0.83150  0.51349  1.0000 -0.3310602243
N   N2        1.0  0.16850  0.51700  0.84682  1.0000 -0.3310602243
N   N3        1.0  0.48300  0.65150  0.18016  1.0000 -0.3310602243
N   N4        1.0  0.83150  0.34850  0.48651  1.0000 -0.3310602243
N   N5        1.0  0.51700  0.16850  0.15318  1.0000 -0.3310602243
N   N6        1.0  0.65150  0.48300  0.81984  1.0000 -0.3310602243
N   N7        1.0  0.40900  0.81350  0.45329  1.0000 -0.2993913973
N   N8        1.0  0.18650  0.59550  0.78662  1.0000 -0.2993913973
N   N9        1.0  0.40450  0.59100  0.11996  1.0000 -0.2993913973
N   N10       1.0  0.81350  0.40900  0.54671  1.0000 -0.2993913973
N   N11       1.0  0.59550  0.18650  0.21338  1.0000 -0.2993913973
N   N12       1.0  0.59100  0.40450  0.88004  1.0000 -0.2993913973
N   N13       1.0  0.14290  0.68250  0.44901  1.0000 -0.4837930883
N   N14       1.0  0.31750  0.46040  0.78234  1.0000 -0.4837930883
N   N15       1.0  0.53960  0.85710  0.11568  1.0000 -0.4837930883
N   N16       1.0  0.68250  0.14290  0.55099  1.0000 -0.4852685119
N   N17       1.0  0.46040  0.31750  0.21766  1.0000 -0.4852685119
N   N18       1.0  0.85710  0.53960  0.88432  1.0000 -0.4837930883
N   N19       1.0  0.08820  0.74570  0.55686  1.0000 -0.6569219813
N   N20       1.0  0.25430  0.34250  0.89019  1.0000 -0.6569219813
N   N21       1.0  0.65750  0.91180  0.22353  1.0000 -0.6569219813
N   N22       1.0  0.74570  0.08820  0.44314  1.0000 -0.6569219813
N   N23       1.0  0.34250  0.25430  0.10981  1.0000 -0.6569219813
N   N24       1.0  0.91180  0.65750  0.77647  1.0000 -0.6569219813
N   N25       1.0  0.21680  0.41990  0.28902  1.0000 -0.473078617
N   N26       1.0  0.58010  0.79690  0.62235  1.0000 -0.473078617
N   N27       1.0  0.20310  0.78320  0.95569  1.0000 -0.473078617
N   N28       1.0  0.41990  0.21680  0.71098  1.0000 -0.473078617
N   N29       1.0  0.79690  0.58010  0.37765  1.0000 -0.473078617
N   N30       1.0  0.78320  0.20310  0.04431  1.0000 -0.473078617
N   N31       1.0  0.03150  0.42690  0.35025  1.0000 -0.2574617748
N   N32       1.0  0.57310  0.60460  0.68358  1.0000 -0.2574617748
N   N33       1.0  0.39540  0.96850  0.01692  1.0000 -0.2574617748
N   N34       1.0  0.42690  0.03150  0.64975  1.0000 -0.2574617748
N   N35       1.0  0.60460  0.57310  0.31642  1.0000 -0.2574617748
N   N36       1.0  0.96850  0.39540  0.98308  1.0000 -0.2574617748
N   N37       1.0  0.96290  0.27590  0.32220  1.0000 -0.3650577749
N   N38       1.0  0.72410  0.68700  0.65553  1.0000 -0.3650577749
N   N39       1.0  0.31300  0.03710  0.98887  1.0000 -0.3641292537
N   N40       1.0  0.27590  0.96290  0.67780  1.0000 -0.3641292537
N   N41       1.0  0.68700  0.72410  0.34447  1.0000 -0.3650577749
N   N42       1.0  0.03710  0.31300  0.01113  1.0000 -0.3650577749
N   N43       1.0  0.05930  0.15050  0.24970  1.0000 -0.6427570964
N   N44       1.0  0.84950  0.90880  0.58303  1.0000 -0.6427570964
N   N45       1.0  0.09120  0.94070  0.91637  1.0000 -0.6427570964
N   N46       1.0  0.15050  0.05930  0.75030  1.0000 -0.6427570964
N   N47       1.0  0.90880  0.84950  0.41697  1.0000 -0.6427570964
N   N48       1.0  0.94070  0.09120  0.08363  1.0000 -0.6427570964
