# DDEC6 charges by PACMAN v1.1 (https://github.com/mtap-research/PACMAN-charge/)
data_2015[Cd][nan]3[ASR]17
_chemical_formula_sum              "Cd36 H432 C576 N120 O192"
_cell_length_a       29.5955
_cell_length_b       29.5955
_cell_length_c       29.5955
_cell_angle_alpha    90
_cell_angle_beta     90
_cell_angle_gamma    90

_symmetry_space_group_name_H-M    "P 1"
_symmetry_Int_Tables_number       1

loop_
  _symmetry_equiv_pos_as_xyz
  'x, y, z'

loop_
  _atom_site_type_symbol
  _atom_site_label
  _atom_site_symmetry_multiplicity
  _atom_site_fract_x
  _atom_site_fract_y
  _atom_site_fract_z
  _atom_site_occupancy
  _atom_site_charge
Cd  Cd1       1.0  0.97813  0.27607  0.99793  1.0000 0.9194849091
Cd  Cd2       1.0  0.52187  0.72393  0.49793  1.0000 0.9194849091
Cd  Cd3       1.0  0.02187  0.77607  0.50207  1.0000 0.9194849091
Cd  Cd4       1.0  0.47813  0.22393  0.00207  1.0000 0.9194849091
Cd  Cd5       1.0  0.99793  0.97813  0.27607  1.0000 0.9194849091
Cd  Cd6       1.0  0.49793  0.52187  0.72393  1.0000 0.9194849091
Cd  Cd7       1.0  0.50207  0.02187  0.77607  1.0000 0.9194849091
Cd  Cd8       1.0  0.00207  0.47813  0.22393  1.0000 0.9194849091
Cd  Cd9       1.0  0.27607  0.99793  0.97813  1.0000 0.9194849091
Cd  Cd10      1.0  0.72393  0.49793  0.52187  1.0000 0.9194849091
Cd  Cd11      1.0  0.77607  0.50207  0.02187  1.0000 0.9194849091
Cd  Cd12      1.0  0.22393  0.00207  0.47813  1.0000 0.9194849091
Cd  Cd13      1.0  0.52607  0.72813  0.75207  1.0000 0.9194849091
Cd  Cd14      1.0  0.97393  0.27187  0.25207  1.0000 0.9194849091
Cd  Cd15      1.0  0.02607  0.77187  0.24793  1.0000 0.9194849091
Cd  Cd16      1.0  0.47393  0.22813  0.74793  1.0000 0.9194849091
Cd  Cd17      1.0  0.22813  0.74793  0.47393  1.0000 0.9194849091
Cd  Cd18      1.0  0.77187  0.24793  0.02607  1.0000 0.9194849091
Cd  Cd19      1.0  0.27187  0.25207  0.97393  1.0000 0.9194849091
Cd  Cd20      1.0  0.72813  0.75207  0.52607  1.0000 0.9194849091
Cd  Cd21      1.0  0.24793  0.02607  0.77187  1.0000 0.9194849091
Cd  Cd22      1.0  0.74793  0.47393  0.22813  1.0000 0.9194849091
Cd  Cd23      1.0  0.75207  0.52607  0.72813  1.0000 0.9194849091
Cd  Cd24      1.0  0.25207  0.97393  0.27187  1.0000 0.9194849091
Cd  Cd25      1.0  0.81324  0.43676  0.62500  1.0000 0.8394136187
Cd  Cd26      1.0  0.68676  0.56324  0.12500  1.0000 0.8394136187
Cd  Cd27      1.0  0.18676  0.93676  0.87500  1.0000 0.8394136187
Cd  Cd28      1.0  0.31324  0.06324  0.37500  1.0000 0.8394136187
Cd  Cd29      1.0  0.62500  0.81324  0.43676  1.0000 0.8394136187
Cd  Cd30      1.0  0.12500  0.68676  0.56324  1.0000 0.8394136187
Cd  Cd31      1.0  0.87500  0.18676  0.93676  1.0000 0.8394136187
Cd  Cd32      1.0  0.37500  0.31324  0.06324  1.0000 0.8394136187
Cd  Cd33      1.0  0.43676  0.62500  0.81324  1.0000 0.8394136187
Cd  Cd34      1.0  0.56324  0.12500  0.68676  1.0000 0.8394136187
Cd  Cd35      1.0  0.93676  0.87500  0.18676  1.0000 0.8394136187
Cd  Cd36      1.0  0.06324  0.37500  0.31324  1.0000 0.8394136187
H   H1        1.0  0.98090  0.56950  0.54000  1.0000 0.1566287596
H   H2        1.0  0.51910  0.43050  0.04000  1.0000 0.1566287596
H   H3        1.0  0.01910  0.06950  0.96000  1.0000 0.1566287596
H   H4        1.0  0.48090  0.93050  0.46000  1.0000 0.1566287596
H   H5        1.0  0.54000  0.98090  0.56950  1.0000 0.1566287596
H   H6        1.0  0.04000  0.51910  0.43050  1.0000 0.1566287596
H   H7        1.0  0.96000  0.01910  0.06950  1.0000 0.1566287596
H   H8        1.0  0.46000  0.48090  0.93050  1.0000 0.1566287596
H   H9        1.0  0.56950  0.54000  0.98090  1.0000 0.1566287596
H   H10       1.0  0.43050  0.04000  0.51910  1.0000 0.1566287596
H   H11       1.0  0.06950  0.96000  0.01910  1.0000 0.1566287596
H   H12       1.0  0.93050  0.46000  0.48090  1.0000 0.1566287596
H   H13       1.0  0.81950  0.73090  0.21000  1.0000 0.1566287596
H   H14       1.0  0.68050  0.26910  0.71000  1.0000 0.1566287596
H   H15       1.0  0.31950  0.76910  0.79000  1.0000 0.1566287596
H   H16       1.0  0.18050  0.23090  0.29000  1.0000 0.1566287596
H   H17       1.0  0.23090  0.29000  0.18050  1.0000 0.1566287596
H   H18       1.0  0.76910  0.79000  0.31950  1.0000 0.1566287596
H   H19       1.0  0.26910  0.71000  0.68050  1.0000 0.1566287596
H   H20       1.0  0.73090  0.21000  0.81950  1.0000 0.1566287596
H   H21       1.0  0.79000  0.31950  0.76910  1.0000 0.1566287596
H   H22       1.0  0.29000  0.18050  0.23090  1.0000 0.1566287596
H   H23       1.0  0.21000  0.81950  0.73090  1.0000 0.1566287596
H   H24       1.0  0.71000  0.68050  0.26910  1.0000 0.1566287596
H   H25       1.0  0.90670  0.57440  0.56910  1.0000 0.1388073667
H   H26       1.0  0.59330  0.42560  0.06910  1.0000 0.1388073667
H   H27       1.0  0.09330  0.07440  0.93090  1.0000 0.1388073667
H   H28       1.0  0.40670  0.92560  0.43090  1.0000 0.1388073667
H   H29       1.0  0.56910  0.90670  0.57440  1.0000 0.1388073667
H   H30       1.0  0.06910  0.59330  0.42560  1.0000 0.1388073667
H   H31       1.0  0.93090  0.09330  0.07440  1.0000 0.1388073667
H   H32       1.0  0.43090  0.40670  0.92560  1.0000 0.1388073667
H   H33       1.0  0.57440  0.56910  0.90670  1.0000 0.1388073667
H   H34       1.0  0.42560  0.06910  0.59330  1.0000 0.1388073667
H   H35       1.0  0.07440  0.93090  0.09330  1.0000 0.1388073667
H   H36       1.0  0.92560  0.43090  0.40670  1.0000 0.1388073667
H   H37       1.0  0.82440  0.65670  0.18090  1.0000 0.1388073667
H   H38       1.0  0.67560  0.34330  0.68090  1.0000 0.1388073667
H   H39       1.0  0.32440  0.84330  0.81910  1.0000 0.1388073667
H   H40       1.0  0.17560  0.15670  0.31910  1.0000 0.1388073667
H   H41       1.0  0.15670  0.31910  0.17560  1.0000 0.1388073667
H   H42       1.0  0.84330  0.81910  0.32440  1.0000 0.1388073667
H   H43       1.0  0.34330  0.68090  0.67560  1.0000 0.1388073667
H   H44       1.0  0.65670  0.18090  0.82440  1.0000 0.1388073667
H   H45       1.0  0.81910  0.32440  0.84330  1.0000 0.1388073667
H   H46       1.0  0.31910  0.17560  0.15670  1.0000 0.1388073667
H   H47       1.0  0.18090  0.82440  0.65670  1.0000 0.1388073667
H   H48       1.0  0.68090  0.67560  0.34330  1.0000 0.1388073667
H   H49       1.0  0.82270  0.45050  0.87010  1.0000 0.1388073667
H   H50       1.0  0.67730  0.54950  0.37010  1.0000 0.1388073667
H   H51       1.0  0.17730  0.95050  0.62990  1.0000 0.1388073667
H   H52       1.0  0.32270  0.04950  0.12990  1.0000 0.1388073667
H   H53       1.0  0.87010  0.82270  0.45050  1.0000 0.1388073667
H   H54       1.0  0.37010  0.67730  0.54950  1.0000 0.1388073667
H   H55       1.0  0.62990  0.17730  0.95050  1.0000 0.1388073667
H   H56       1.0  0.12990  0.32270  0.04950  1.0000 0.1388073667
H   H57       1.0  0.45050  0.87010  0.82270  1.0000 0.1388073667
H   H58       1.0  0.54950  0.37010  0.67730  1.0000 0.1388073667
H   H59       1.0  0.95050  0.62990  0.17730  1.0000 0.1388073667
H   H60       1.0  0.04950  0.12990  0.32270  1.0000 0.1388073667
H   H61       1.0  0.70050  0.57270  0.87990  1.0000 0.1388073667
H   H62       1.0  0.79950  0.42730  0.37990  1.0000 0.1388073667
H   H63       1.0  0.20050  0.92730  0.12010  1.0000 0.1388073667
H   H64       1.0  0.29950  0.07270  0.62010  1.0000 0.1388073667
H   H65       1.0  0.07270  0.62010  0.29950  1.0000 0.1388073667
H   H66       1.0  0.92730  0.12010  0.20050  1.0000 0.1388073667
H   H67       1.0  0.42730  0.37990  0.79950  1.0000 0.1388073667
H   H68       1.0  0.57270  0.87990  0.70050  1.0000 0.1388073667
H   H69       1.0  0.12010  0.20050  0.92730  1.0000 0.1388073667
H   H70       1.0  0.62010  0.29950  0.07270  1.0000 0.1388073667
H   H71       1.0  0.87990  0.70050  0.57270  1.0000 0.1388073667
H   H72       1.0  0.37990  0.79950  0.42730  1.0000 0.1388073667
H   H73       1.0  0.02750  0.09470  0.13790  1.0000 0.1522896197
H   H74       1.0  0.47250  0.90530  0.63790  1.0000 0.1522896197
H   H75       1.0  0.97250  0.59470  0.36210  1.0000 0.1522896197
H   H76       1.0  0.52750  0.40530  0.86210  1.0000 0.1522896197
H   H77       1.0  0.13790  0.02750  0.09470  1.0000 0.1522896197
H   H78       1.0  0.63790  0.47250  0.90530  1.0000 0.1522896197
H   H79       1.0  0.36210  0.97250  0.59470  1.0000 0.1522896197
H   H80       1.0  0.86210  0.52750  0.40530  1.0000 0.1522896197
H   H81       1.0  0.09470  0.13790  0.02750  1.0000 0.1522896197
H   H82       1.0  0.90530  0.63790  0.47250  1.0000 0.1522896197
H   H83       1.0  0.59470  0.36210  0.97250  1.0000 0.1522896197
H   H84       1.0  0.40530  0.86210  0.52750  1.0000 0.1522896197
H   H85       1.0  0.34470  0.77750  0.61210  1.0000 0.1522896197
H   H86       1.0  0.15530  0.22250  0.11210  1.0000 0.1522896197
H   H87       1.0  0.84470  0.72250  0.38790  1.0000 0.1522896197
H   H88       1.0  0.65530  0.27750  0.88790  1.0000 0.1522896197
H   H89       1.0  0.27750  0.88790  0.65530  1.0000 0.1522896197
H   H90       1.0  0.72250  0.38790  0.84470  1.0000 0.1522896197
H   H91       1.0  0.22250  0.11210  0.15530  1.0000 0.1522896197
H   H92       1.0  0.77750  0.61210  0.34470  1.0000 0.1522896197
H   H93       1.0  0.38790  0.84470  0.72250  1.0000 0.1522896197
H   H94       1.0  0.88790  0.65530  0.27750  1.0000 0.1522896197
H   H95       1.0  0.61210  0.34470  0.77750  1.0000 0.1522896197
H   H96       1.0  0.11210  0.15530  0.22250  1.0000 0.1522896197
H   H97       1.0  0.92510  0.37280  0.84120  1.0000 0.1206422232
H   H98       1.0  0.57490  0.62720  0.34120  1.0000 0.1206422232
H   H99       1.0  0.07490  0.87280  0.65880  1.0000 0.1206422232
H   H100      1.0  0.42510  0.12720  0.15880  1.0000 0.1206422232
H   H101      1.0  0.84120  0.92510  0.37280  1.0000 0.1206422232
H   H102      1.0  0.34120  0.57490  0.62720  1.0000 0.1206422232
H   H103      1.0  0.65880  0.07490  0.87280  1.0000 0.1206422232
H   H104      1.0  0.15880  0.42510  0.12720  1.0000 0.1206422232
H   H105      1.0  0.37280  0.84120  0.92510  1.0000 0.1206422232
H   H106      1.0  0.62720  0.34120  0.57490  1.0000 0.1206422232
H   H107      1.0  0.87280  0.65880  0.07490  1.0000 0.1206422232
H   H108      1.0  0.12720  0.15880  0.42510  1.0000 0.1206422232
H   H109      1.0  0.62280  0.67510  0.90880  1.0000 0.1206422232
H   H110      1.0  0.87720  0.32490  0.40880  1.0000 0.1206422232
H   H111      1.0  0.12280  0.82490  0.09120  1.0000 0.1206422232
H   H112      1.0  0.37720  0.17510  0.59120  1.0000 0.1206422232
H   H113      1.0  0.17510  0.59120  0.37720  1.0000 0.1206422232
H   H114      1.0  0.82490  0.09120  0.12280  1.0000 0.1206422232
H   H115      1.0  0.32490  0.40880  0.87720  1.0000 0.1206422232
H   H116      1.0  0.67510  0.90880  0.62280  1.0000 0.1206422232
H   H117      1.0  0.09120  0.12280  0.82490  1.0000 0.1206422232
H   H118      1.0  0.59120  0.37720  0.17510  1.0000 0.1206422232
H   H119      1.0  0.90880  0.62280  0.67510  1.0000 0.1206422232
H   H120      1.0  0.40880  0.87720  0.32490  1.0000 0.1206422232
H   H121      1.0  0.03510  0.18120  0.00820  1.0000 0.1206422232
H   H122      1.0  0.46490  0.81880  0.50820  1.0000 0.1206422232
H   H123      1.0  0.96490  0.68120  0.49180  1.0000 0.1206422232
H   H124      1.0  0.53510  0.31880  0.99180  1.0000 0.1206422232
H   H125      1.0  0.00820  0.03510  0.18120  1.0000 0.1206422232
H   H126      1.0  0.50820  0.46490  0.81880  1.0000 0.1206422232
H   H127      1.0  0.49180  0.96490  0.68120  1.0000 0.1206422232
H   H128      1.0  0.99180  0.53510  0.31880  1.0000 0.1206422232
H   H129      1.0  0.18120  0.00820  0.03510  1.0000 0.1206422232
H   H130      1.0  0.81880  0.50820  0.46490  1.0000 0.1206422232
H   H131      1.0  0.68120  0.49180  0.96490  1.0000 0.1206422232
H   H132      1.0  0.31880  0.99180  0.53510  1.0000 0.1206422232
H   H133      1.0  0.43120  0.78510  0.74180  1.0000 0.1206422232
H   H134      1.0  0.06880  0.21490  0.24180  1.0000 0.1206422232
H   H135      1.0  0.93120  0.71490  0.25820  1.0000 0.1206422232
H   H136      1.0  0.56880  0.28510  0.75820  1.0000 0.1206422232
H   H137      1.0  0.28510  0.75820  0.56880  1.0000 0.1206422232
H   H138      1.0  0.71490  0.25820  0.93120  1.0000 0.1206422232
H   H139      1.0  0.21490  0.24180  0.06880  1.0000 0.1206422232
H   H140      1.0  0.78510  0.74180  0.43120  1.0000 0.1206422232
H   H141      1.0  0.25820  0.93120  0.71490  1.0000 0.1206422232
H   H142      1.0  0.75820  0.56880  0.28510  1.0000 0.1206422232
H   H143      1.0  0.74180  0.43120  0.78510  1.0000 0.1206422232
H   H144      1.0  0.24180  0.06880  0.21490  1.0000 0.1206422232
H   H145      1.0  0.85120  0.54510  0.62270  1.0000 0.1288376214
H   H146      1.0  0.64880  0.45490  0.12270  1.0000 0.1288376214
H   H147      1.0  0.14880  0.04510  0.87730  1.0000 0.1288376214
H   H148      1.0  0.35120  0.95490  0.37730  1.0000 0.1288376214
H   H149      1.0  0.62270  0.85120  0.54510  1.0000 0.1288376214
H   H150      1.0  0.12270  0.64880  0.45490  1.0000 0.1288376214
H   H151      1.0  0.87730  0.14880  0.04510  1.0000 0.1288376214
H   H152      1.0  0.37730  0.35120  0.95490  1.0000 0.1288376214
H   H153      1.0  0.54510  0.62270  0.85120  1.0000 0.1288376214
H   H154      1.0  0.45490  0.12270  0.64880  1.0000 0.1288376214
H   H155      1.0  0.04510  0.87730  0.14880  1.0000 0.1288376214
H   H156      1.0  0.95490  0.37730  0.35120  1.0000 0.1288376214
H   H157      1.0  0.79510  0.60120  0.12730  1.0000 0.1288376214
H   H158      1.0  0.70490  0.39880  0.62730  1.0000 0.1288376214
H   H159      1.0  0.29510  0.89880  0.87270  1.0000 0.1288376214
H   H160      1.0  0.20490  0.10120  0.37270  1.0000 0.1288376214
H   H161      1.0  0.10120  0.37270  0.20490  1.0000 0.1288376214
H   H162      1.0  0.89880  0.87270  0.29510  1.0000 0.1288376214
H   H163      1.0  0.39880  0.62730  0.70490  1.0000 0.1288376214
H   H164      1.0  0.60120  0.12730  0.79510  1.0000 0.1288376214
H   H165      1.0  0.87270  0.29510  0.89880  1.0000 0.1288376214
H   H166      1.0  0.37270  0.20490  0.10120  1.0000 0.1288376214
H   H167      1.0  0.12730  0.79510  0.60120  1.0000 0.1288376214
H   H168      1.0  0.62730  0.70490  0.39880  1.0000 0.1288376214
H   H169      1.0  0.88990  0.44700  0.54520  1.0000 0.1206422232
H   H170      1.0  0.61010  0.55300  0.04520  1.0000 0.1206422232
H   H171      1.0  0.11010  0.94700  0.95480  1.0000 0.1206422232
H   H172      1.0  0.38990  0.05300  0.45480  1.0000 0.1206422232
H   H173      1.0  0.54520  0.88990  0.44700  1.0000 0.1206422232
H   H174      1.0  0.04520  0.61010  0.55300  1.0000 0.1206422232
H   H175      1.0  0.95480  0.11010  0.94700  1.0000 0.1206422232
H   H176      1.0  0.45480  0.38990  0.05300  1.0000 0.1206422232
H   H177      1.0  0.44700  0.54520  0.88990  1.0000 0.1206422232
H   H178      1.0  0.55300  0.04520  0.61010  1.0000 0.1206422232
H   H179      1.0  0.94700  0.95480  0.11010  1.0000 0.1206422232
H   H180      1.0  0.05300  0.45480  0.38990  1.0000 0.1206422232
H   H181      1.0  0.69700  0.63990  0.20480  1.0000 0.1206422232
H   H182      1.0  0.80300  0.36010  0.70480  1.0000 0.1206422232
H   H183      1.0  0.19700  0.86010  0.79520  1.0000 0.1206422232
H   H184      1.0  0.30300  0.13990  0.29520  1.0000 0.1206422232
H   H185      1.0  0.13990  0.29520  0.30300  1.0000 0.1206422232
H   H186      1.0  0.86010  0.79520  0.19700  1.0000 0.1206422232
H   H187      1.0  0.36010  0.70480  0.80300  1.0000 0.1206422232
H   H188      1.0  0.63990  0.20480  0.69700  1.0000 0.1206422232
H   H189      1.0  0.79520  0.19700  0.86010  1.0000 0.1206422232
H   H190      1.0  0.29520  0.30300  0.13990  1.0000 0.1206422232
H   H191      1.0  0.20480  0.69700  0.63990  1.0000 0.1206422232
H   H192      1.0  0.70480  0.80300  0.36010  1.0000 0.1206422232
H   H193      1.0  0.89370  0.39610  0.97050  1.0000 0.1388073667
H   H194      1.0  0.60630  0.60390  0.47050  1.0000 0.1388073667
H   H195      1.0  0.10630  0.89610  0.52950  1.0000 0.1388073667
H   H196      1.0  0.39370  0.10390  0.02950  1.0000 0.1388073667
H   H197      1.0  0.97050  0.89370  0.39610  1.0000 0.1388073667
H   H198      1.0  0.47050  0.60630  0.60390  1.0000 0.1388073667
H   H199      1.0  0.52950  0.10630  0.89610  1.0000 0.1388073667
H   H200      1.0  0.02950  0.39370  0.10390  1.0000 0.1388073667
H   H201      1.0  0.39610  0.97050  0.89370  1.0000 0.1388073667
H   H202      1.0  0.60390  0.47050  0.60630  1.0000 0.1388073667
H   H203      1.0  0.89610  0.52950  0.10630  1.0000 0.1388073667
H   H204      1.0  0.10390  0.02950  0.39370  1.0000 0.1388073667
H   H205      1.0  0.64610  0.64370  0.77950  1.0000 0.1388073667
H   H206      1.0  0.85390  0.35630  0.27950  1.0000 0.1388073667
H   H207      1.0  0.14610  0.85630  0.22050  1.0000 0.1388073667
H   H208      1.0  0.35390  0.14370  0.72050  1.0000 0.1388073667
H   H209      1.0  0.14370  0.72050  0.35390  1.0000 0.1388073667
H   H210      1.0  0.85630  0.22050  0.14610  1.0000 0.1388073667
H   H211      1.0  0.35630  0.27950  0.85390  1.0000 0.1388073667
H   H212      1.0  0.64370  0.77950  0.64610  1.0000 0.1388073667
H   H213      1.0  0.22050  0.14610  0.85630  1.0000 0.1388073667
H   H214      1.0  0.72050  0.35390  0.14370  1.0000 0.1388073667
H   H215      1.0  0.77950  0.64610  0.64370  1.0000 0.1388073667
H   H216      1.0  0.27950  0.85390  0.35630  1.0000 0.1388073667
H   H217      1.0  0.87100  0.41770  0.71090  1.0000 0.0925022148
H   H218      1.0  0.62900  0.58230  0.21090  1.0000 0.0925022148
H   H219      1.0  0.12900  0.91770  0.78910  1.0000 0.0925022148
H   H220      1.0  0.37100  0.08230  0.28910  1.0000 0.0925022148
H   H221      1.0  0.71090  0.87100  0.41770  1.0000 0.0925022148
H   H222      1.0  0.21090  0.62900  0.58230  1.0000 0.0925022148
H   H223      1.0  0.78910  0.12900  0.91770  1.0000 0.0925022148
H   H224      1.0  0.28910  0.37100  0.08230  1.0000 0.0925022148
H   H225      1.0  0.41770  0.71090  0.87100  1.0000 0.0925022148
H   H226      1.0  0.58230  0.21090  0.62900  1.0000 0.0925022148
H   H227      1.0  0.91770  0.78910  0.12900  1.0000 0.0925022148
H   H228      1.0  0.08230  0.28910  0.37100  1.0000 0.0925022148
H   H229      1.0  0.66770  0.62100  0.03910  1.0000 0.0925022148
H   H230      1.0  0.83230  0.37900  0.53910  1.0000 0.0925022148
H   H231      1.0  0.16770  0.87900  0.96090  1.0000 0.0925022148
H   H232      1.0  0.33230  0.12100  0.46090  1.0000 0.0925022148
H   H233      1.0  0.12100  0.46090  0.33230  1.0000 0.0925022148
H   H234      1.0  0.87900  0.96090  0.16770  1.0000 0.0925022148
H   H235      1.0  0.37900  0.53910  0.83230  1.0000 0.0925022148
H   H236      1.0  0.62100  0.03910  0.66770  1.0000 0.0925022148
H   H237      1.0  0.96090  0.16770  0.87900  1.0000 0.0925022148
H   H238      1.0  0.46090  0.33230  0.12100  1.0000 0.0925022148
H   H239      1.0  0.03910  0.66770  0.62100  1.0000 0.0925022148
H   H240      1.0  0.53910  0.83230  0.37900  1.0000 0.0925022148
H   H241      1.0  0.94870  0.43780  0.79530  1.0000 0.1115453968
H   H242      1.0  0.55130  0.56220  0.29530  1.0000 0.1115453968
H   H243      1.0  0.05130  0.93780  0.70470  1.0000 0.1115453968
H   H244      1.0  0.44870  0.06220  0.20470  1.0000 0.1115453968
H   H245      1.0  0.79530  0.94870  0.43780  1.0000 0.1115453968
H   H246      1.0  0.29530  0.55130  0.56220  1.0000 0.1115453968
H   H247      1.0  0.70470  0.05130  0.93780  1.0000 0.1115453968
H   H248      1.0  0.20470  0.44870  0.06220  1.0000 0.1115453968
H   H249      1.0  0.43780  0.79530  0.94870  1.0000 0.1115453968
H   H250      1.0  0.56220  0.29530  0.55130  1.0000 0.1115453968
H   H251      1.0  0.93780  0.70470  0.05130  1.0000 0.1115453968
H   H252      1.0  0.06220  0.20470  0.44870  1.0000 0.1115453968
H   H253      1.0  0.68780  0.69870  0.95470  1.0000 0.1115453968
H   H254      1.0  0.81220  0.30130  0.45470  1.0000 0.1115453968
H   H255      1.0  0.18780  0.80130  0.04530  1.0000 0.1115453968
H   H256      1.0  0.31220  0.19870  0.54530  1.0000 0.1115453968
H   H257      1.0  0.19870  0.54530  0.31220  1.0000 0.1115453968
H   H258      1.0  0.80130  0.04530  0.18780  1.0000 0.1115453968
H   H259      1.0  0.30130  0.45470  0.81220  1.0000 0.1115453968
H   H260      1.0  0.69870  0.95470  0.68780  1.0000 0.1115453968
H   H261      1.0  0.04530  0.18780  0.80130  1.0000 0.1115453968
H   H262      1.0  0.54530  0.31220  0.19870  1.0000 0.1115453968
H   H263      1.0  0.95470  0.68780  0.69870  1.0000 0.1115453968
H   H264      1.0  0.45470  0.81220  0.30130  1.0000 0.1115453968
H   H265      1.0  0.91960  0.47900  0.81270  1.0000 0.1288376214
H   H266      1.0  0.58040  0.52100  0.31270  1.0000 0.1288376214
H   H267      1.0  0.08040  0.97900  0.68730  1.0000 0.1288376214
H   H268      1.0  0.41960  0.02100  0.18730  1.0000 0.1288376214
H   H269      1.0  0.81270  0.91960  0.47900  1.0000 0.1288376214
H   H270      1.0  0.31270  0.58040  0.52100  1.0000 0.1288376214
H   H271      1.0  0.68730  0.08040  0.97900  1.0000 0.1288376214
H   H272      1.0  0.18730  0.41960  0.02100  1.0000 0.1288376214
H   H273      1.0  0.47900  0.81270  0.91960  1.0000 0.1288376214
H   H274      1.0  0.52100  0.31270  0.58040  1.0000 0.1288376214
H   H275      1.0  0.97900  0.68730  0.08040  1.0000 0.1288376214
H   H276      1.0  0.02100  0.18730  0.41960  1.0000 0.1288376214
H   H277      1.0  0.72900  0.66960  0.93730  1.0000 0.1288376214
H   H278      1.0  0.77100  0.33040  0.43730  1.0000 0.1288376214
H   H279      1.0  0.22900  0.83040  0.06270  1.0000 0.1288376214
H   H280      1.0  0.27100  0.16960  0.56270  1.0000 0.1288376214
H   H281      1.0  0.16960  0.56270  0.27100  1.0000 0.1288376214
H   H282      1.0  0.83040  0.06270  0.22900  1.0000 0.1288376214
H   H283      1.0  0.33040  0.43730  0.77100  1.0000 0.1288376214
H   H284      1.0  0.66960  0.93730  0.72900  1.0000 0.1288376214
H   H285      1.0  0.06270  0.22900  0.83040  1.0000 0.1288376214
H   H286      1.0  0.56270  0.27100  0.16960  1.0000 0.1288376214
H   H287      1.0  0.93730  0.72900  0.66960  1.0000 0.1288376214
H   H288      1.0  0.43730  0.77100  0.33040  1.0000 0.1288376214
H   H289      1.0  0.99550  0.16810  0.13550  1.0000 0.1388073667
H   H290      1.0  0.50450  0.83190  0.63550  1.0000 0.1388073667
H   H291      1.0  0.00450  0.66810  0.36450  1.0000 0.1388073667
H   H292      1.0  0.49550  0.33190  0.86450  1.0000 0.1388073667
H   H293      1.0  0.13550  0.99550  0.16810  1.0000 0.1388073667
H   H294      1.0  0.63550  0.50450  0.83190  1.0000 0.1388073667
H   H295      1.0  0.36450  0.00450  0.66810  1.0000 0.1388073667
H   H296      1.0  0.86450  0.49550  0.33190  1.0000 0.1388073667
H   H297      1.0  0.16810  0.13550  0.99550  1.0000 0.1388073667
H   H298      1.0  0.83190  0.63550  0.50450  1.0000 0.1388073667
H   H299      1.0  0.66810  0.36450  0.00450  1.0000 0.1388073667
H   H300      1.0  0.33190  0.86450  0.49550  1.0000 0.1388073667
H   H301      1.0  0.41810  0.74550  0.61450  1.0000 0.1388073667
H   H302      1.0  0.08190  0.25450  0.11450  1.0000 0.1388073667
H   H303      1.0  0.91810  0.75450  0.38550  1.0000 0.1388073667
H   H304      1.0  0.58190  0.24550  0.88550  1.0000 0.1388073667
H   H305      1.0  0.24550  0.88550  0.58190  1.0000 0.1388073667
H   H306      1.0  0.75450  0.38550  0.91810  1.0000 0.1388073667
H   H307      1.0  0.25450  0.11450  0.08190  1.0000 0.1388073667
H   H308      1.0  0.74550  0.61450  0.41810  1.0000 0.1388073667
H   H309      1.0  0.38550  0.91810  0.75450  1.0000 0.1388073667
H   H310      1.0  0.88550  0.58190  0.24550  1.0000 0.1388073667
H   H311      1.0  0.61450  0.41810  0.74550  1.0000 0.1388073667
H   H312      1.0  0.11450  0.08190  0.25450  1.0000 0.1388073667
H   H313      1.0  0.93240  0.45290  0.69020  1.0000 0.1115453968
H   H314      1.0  0.56760  0.54710  0.19020  1.0000 0.1115453968
H   H315      1.0  0.06760  0.95290  0.80980  1.0000 0.1115453968
H   H316      1.0  0.43240  0.04710  0.30980  1.0000 0.1115453968
H   H317      1.0  0.69020  0.93240  0.45290  1.0000 0.1115453968
H   H318      1.0  0.19020  0.56760  0.54710  1.0000 0.1115453968
H   H319      1.0  0.80980  0.06760  0.95290  1.0000 0.1115453968
H   H320      1.0  0.30980  0.43240  0.04710  1.0000 0.1115453968
H   H321      1.0  0.45290  0.69020  0.93240  1.0000 0.1115453968
H   H322      1.0  0.54710  0.19020  0.56760  1.0000 0.1115453968
H   H323      1.0  0.95290  0.80980  0.06760  1.0000 0.1115453968
H   H324      1.0  0.04710  0.30980  0.43240  1.0000 0.1115453968
H   H325      1.0  0.70290  0.68240  0.05980  1.0000 0.1115453968
H   H326      1.0  0.79710  0.31760  0.55980  1.0000 0.1115453968
H   H327      1.0  0.20290  0.81760  0.94020  1.0000 0.1115453968
H   H328      1.0  0.29710  0.18240  0.44020  1.0000 0.1115453968
H   H329      1.0  0.18240  0.44020  0.29710  1.0000 0.1115453968
H   H330      1.0  0.81760  0.94020  0.20290  1.0000 0.1115453968
H   H331      1.0  0.31760  0.55980  0.79710  1.0000 0.1115453968
H   H332      1.0  0.68240  0.05980  0.70290  1.0000 0.1115453968
H   H333      1.0  0.94020  0.20290  0.81760  1.0000 0.1115453968
H   H334      1.0  0.44020  0.29710  0.18240  1.0000 0.1115453968
H   H335      1.0  0.05980  0.70290  0.68240  1.0000 0.1115453968
H   H336      1.0  0.55980  0.79710  0.31760  1.0000 0.1115453968
H   H337      1.0  0.90420  0.49800  0.69210  1.0000 0.1288376214
H   H338      1.0  0.59580  0.50200  0.19210  1.0000 0.1288376214
H   H339      1.0  0.09580  0.99800  0.80790  1.0000 0.1288376214
H   H340      1.0  0.40420  0.00200  0.30790  1.0000 0.1288376214
H   H341      1.0  0.69210  0.90420  0.49800  1.0000 0.1288376214
H   H342      1.0  0.19210  0.59580  0.50200  1.0000 0.1288376214
H   H343      1.0  0.80790  0.09580  0.99800  1.0000 0.1288376214
H   H344      1.0  0.30790  0.40420  0.00200  1.0000 0.1288376214
H   H345      1.0  0.49800  0.69210  0.90420  1.0000 0.1288376214
H   H346      1.0  0.50200  0.19210  0.59580  1.0000 0.1288376214
H   H347      1.0  0.99800  0.80790  0.09580  1.0000 0.1288376214
H   H348      1.0  0.00200  0.30790  0.40420  1.0000 0.1288376214
H   H349      1.0  0.74800  0.65420  0.05790  1.0000 0.1288376214
H   H350      1.0  0.75200  0.34580  0.55790  1.0000 0.1288376214
H   H351      1.0  0.24800  0.84580  0.94210  1.0000 0.1288376214
H   H352      1.0  0.25200  0.15420  0.44210  1.0000 0.1288376214
H   H353      1.0  0.15420  0.44210  0.25200  1.0000 0.1288376214
H   H354      1.0  0.84580  0.94210  0.24800  1.0000 0.1288376214
H   H355      1.0  0.34580  0.55790  0.75200  1.0000 0.1288376214
H   H356      1.0  0.65420  0.05790  0.74800  1.0000 0.1288376214
H   H357      1.0  0.94210  0.24800  0.84580  1.0000 0.1288376214
H   H358      1.0  0.44210  0.25200  0.15420  1.0000 0.1288376214
H   H359      1.0  0.05790  0.74800  0.65420  1.0000 0.1288376214
H   H360      1.0  0.55790  0.75200  0.34580  1.0000 0.1288376214
H   H361      1.0  0.93350  0.51790  0.75190  1.0000 0.1288376214
H   H362      1.0  0.56650  0.48210  0.25190  1.0000 0.1288376214
H   H363      1.0  0.06650  0.01790  0.74810  1.0000 0.1288376214
H   H364      1.0  0.43350  0.98210  0.24810  1.0000 0.1288376214
H   H365      1.0  0.75190  0.93350  0.51790  1.0000 0.1288376214
H   H366      1.0  0.25190  0.56650  0.48210  1.0000 0.1288376214
H   H367      1.0  0.74810  0.06650  0.01790  1.0000 0.1288376214
H   H368      1.0  0.24810  0.43350  0.98210  1.0000 0.1288376214
H   H369      1.0  0.51790  0.75190  0.93350  1.0000 0.1288376214
H   H370      1.0  0.48210  0.25190  0.56650  1.0000 0.1288376214
H   H371      1.0  0.01790  0.74810  0.06650  1.0000 0.1288376214
H   H372      1.0  0.98210  0.24810  0.43350  1.0000 0.1288376214
H   H373      1.0  0.76790  0.68350  0.99810  1.0000 0.1288376214
H   H374      1.0  0.73210  0.31650  0.49810  1.0000 0.1288376214
H   H375      1.0  0.26790  0.81650  0.00190  1.0000 0.1288376214
H   H376      1.0  0.23210  0.18350  0.50190  1.0000 0.1288376214
H   H377      1.0  0.18350  0.50190  0.23210  1.0000 0.1288376214
H   H378      1.0  0.81650  0.00190  0.26790  1.0000 0.1288376214
H   H379      1.0  0.31650  0.49810  0.73210  1.0000 0.1288376214
H   H380      1.0  0.68350  0.99810  0.76790  1.0000 0.1288376214
H   H381      1.0  0.00190  0.26790  0.81650  1.0000 0.1288376214
H   H382      1.0  0.50190  0.23210  0.18350  1.0000 0.1288376214
H   H383      1.0  0.99810  0.76790  0.68350  1.0000 0.1288376214
H   H384      1.0  0.49810  0.73210  0.31650  1.0000 0.1288376214
H   H385      1.0  0.97080  0.48180  0.74060  1.0000 0.1115453968
H   H386      1.0  0.52920  0.51820  0.24060  1.0000 0.1115453968
H   H387      1.0  0.02920  0.98180  0.75940  1.0000 0.1115453968
H   H388      1.0  0.47080  0.01820  0.25940  1.0000 0.1115453968
H   H389      1.0  0.74060  0.97080  0.48180  1.0000 0.1115453968
H   H390      1.0  0.24060  0.52920  0.51820  1.0000 0.1115453968
H   H391      1.0  0.75940  0.02920  0.98180  1.0000 0.1115453968
H   H392      1.0  0.25940  0.47080  0.01820  1.0000 0.1115453968
H   H393      1.0  0.48180  0.74060  0.97080  1.0000 0.1115453968
H   H394      1.0  0.51820  0.24060  0.52920  1.0000 0.1115453968
H   H395      1.0  0.98180  0.75940  0.02920  1.0000 0.1115453968
H   H396      1.0  0.01820  0.25940  0.47080  1.0000 0.1115453968
H   H397      1.0  0.73180  0.72080  0.00940  1.0000 0.1115453968
H   H398      1.0  0.76820  0.27920  0.50940  1.0000 0.1115453968
H   H399      1.0  0.23180  0.77920  0.99060  1.0000 0.1115453968
H   H400      1.0  0.26820  0.22080  0.49060  1.0000 0.1115453968
H   H401      1.0  0.22080  0.49060  0.26820  1.0000 0.1115453968
H   H402      1.0  0.77920  0.99060  0.23180  1.0000 0.1115453968
H   H403      1.0  0.27920  0.50940  0.76820  1.0000 0.1115453968
H   H404      1.0  0.72080  0.00940  0.73180  1.0000 0.1115453968
H   H405      1.0  0.99060  0.23180  0.77920  1.0000 0.1115453968
H   H406      1.0  0.49060  0.26820  0.22080  1.0000 0.1115453968
H   H407      1.0  0.00940  0.73180  0.72080  1.0000 0.1115453968
H   H408      1.0  0.50940  0.76820  0.27920  1.0000 0.1115453968
H   H409      1.0  0.94990  0.21960  0.09690  1.0000 0.1288376214
H   H410      1.0  0.55010  0.78040  0.59690  1.0000 0.1288376214
H   H411      1.0  0.05010  0.71960  0.40310  1.0000 0.1288376214
H   H412      1.0  0.44990  0.28040  0.90310  1.0000 0.1288376214
H   H413      1.0  0.09690  0.94990  0.21960  1.0000 0.1288376214
H   H414      1.0  0.59690  0.55010  0.78040  1.0000 0.1288376214
H   H415      1.0  0.40310  0.05010  0.71960  1.0000 0.1288376214
H   H416      1.0  0.90310  0.44990  0.28040  1.0000 0.1288376214
H   H417      1.0  0.21960  0.09690  0.94990  1.0000 0.1288376214
H   H418      1.0  0.78040  0.59690  0.55010  1.0000 0.1288376214
H   H419      1.0  0.71960  0.40310  0.05010  1.0000 0.1288376214
H   H420      1.0  0.28040  0.90310  0.44990  1.0000 0.1288376214
H   H421      1.0  0.46960  0.69990  0.65310  1.0000 0.1288376214
H   H422      1.0  0.03040  0.30010  0.15310  1.0000 0.1288376214
H   H423      1.0  0.96960  0.80010  0.34690  1.0000 0.1288376214
H   H424      1.0  0.53040  0.19990  0.84690  1.0000 0.1288376214
H   H425      1.0  0.19990  0.84690  0.53040  1.0000 0.1288376214
H   H426      1.0  0.80010  0.34690  0.96960  1.0000 0.1288376214
H   H427      1.0  0.30010  0.15310  0.03040  1.0000 0.1288376214
H   H428      1.0  0.69990  0.65310  0.46960  1.0000 0.1288376214
H   H429      1.0  0.34690  0.96960  0.80010  1.0000 0.1288376214
H   H430      1.0  0.84690  0.53040  0.19990  1.0000 0.1288376214
H   H431      1.0  0.65310  0.46960  0.69990  1.0000 0.1288376214
H   H432      1.0  0.15310  0.03040  0.30010  1.0000 0.1288376214
C   C1        1.0  0.98280  0.54720  0.51800  1.0000 -0.2556882494
C   C2        1.0  0.51720  0.45280  0.01800  1.0000 -0.2556882494
C   C3        1.0  0.01720  0.04720  0.98200  1.0000 -0.2556882494
C   C4        1.0  0.48280  0.95280  0.48200  1.0000 -0.2556882494
C   C5        1.0  0.51800  0.98280  0.54720  1.0000 -0.2556882494
C   C6        1.0  0.01800  0.51720  0.45280  1.0000 -0.2556882494
C   C7        1.0  0.98200  0.01720  0.04720  1.0000 -0.2556882494
C   C8        1.0  0.48200  0.48280  0.95280  1.0000 -0.2556882494
C   C9        1.0  0.54720  0.51800  0.98280  1.0000 -0.2556882494
C   C10       1.0  0.45280  0.01800  0.51720  1.0000 -0.2556882494
C   C11       1.0  0.04720  0.98200  0.01720  1.0000 -0.2556882494
C   C12       1.0  0.95280  0.48200  0.48280  1.0000 -0.2556882494
C   C13       1.0  0.79720  0.73280  0.23200  1.0000 -0.2556882494
C   C14       1.0  0.70280  0.26720  0.73200  1.0000 -0.2556882494
C   C15       1.0  0.29720  0.76720  0.76800  1.0000 -0.2556882494
C   C16       1.0  0.20280  0.23280  0.26800  1.0000 -0.2556882494
C   C17       1.0  0.23280  0.26800  0.20280  1.0000 -0.2556882494
C   C18       1.0  0.76720  0.76800  0.29720  1.0000 -0.2556882494
C   C19       1.0  0.26720  0.73200  0.70280  1.0000 -0.2556882494
C   C20       1.0  0.73280  0.23200  0.79720  1.0000 -0.2556882494
C   C21       1.0  0.76800  0.29720  0.76720  1.0000 -0.2556882494
C   C22       1.0  0.26800  0.20280  0.23280  1.0000 -0.2556882494
C   C23       1.0  0.23200  0.79720  0.73280  1.0000 -0.2556882494
C   C24       1.0  0.73200  0.70280  0.26720  1.0000 -0.2556882494
C   C25       1.0  0.91530  0.37570  0.90660  1.0000 -0.0089927752
C   C26       1.0  0.58470  0.62430  0.40660  1.0000 -0.0089927752
C   C27       1.0  0.08470  0.87570  0.59340  1.0000 -0.0089927752
C   C28       1.0  0.41530  0.12430  0.09340  1.0000 -0.0089927752
C   C29       1.0  0.90660  0.91530  0.37570  1.0000 -0.0089927752
C   C30       1.0  0.40660  0.58470  0.62430  1.0000 -0.0089927752
C   C31       1.0  0.59340  0.08470  0.87570  1.0000 -0.0089927752
C   C32       1.0  0.09340  0.41530  0.12430  1.0000 -0.0089927752
C   C33       1.0  0.37570  0.90660  0.91530  1.0000 -0.0089927752
C   C34       1.0  0.62430  0.40660  0.58470  1.0000 -0.0089927752
C   C35       1.0  0.87570  0.59340  0.08470  1.0000 -0.0089927752
C   C36       1.0  0.12430  0.09340  0.41530  1.0000 -0.0089927752
C   C37       1.0  0.62570  0.66530  0.84340  1.0000 -0.0089927752
C   C38       1.0  0.87430  0.33470  0.34340  1.0000 -0.0089927752
C   C39       1.0  0.12570  0.83470  0.15660  1.0000 -0.0089927752
C   C40       1.0  0.37430  0.16530  0.65660  1.0000 -0.0089927752
C   C41       1.0  0.16530  0.65660  0.37430  1.0000 -0.0089927752
C   C42       1.0  0.83470  0.15660  0.12570  1.0000 -0.0089927752
C   C43       1.0  0.33470  0.34340  0.87430  1.0000 -0.0089927752
C   C44       1.0  0.66530  0.84340  0.62570  1.0000 -0.0089927752
C   C45       1.0  0.15660  0.12570  0.83470  1.0000 -0.0089927752
C   C46       1.0  0.65660  0.37430  0.16530  1.0000 -0.0089927752
C   C47       1.0  0.84340  0.62570  0.66530  1.0000 -0.0089927752
C   C48       1.0  0.34340  0.87430  0.33470  1.0000 -0.0089927752
C   C49       1.0  0.95180  0.51320  0.51650  1.0000 0.1970330235
C   C50       1.0  0.54820  0.48680  0.01650  1.0000 0.1970330235
C   C51       1.0  0.04820  0.01320  0.98350  1.0000 0.1970330235
C   C52       1.0  0.45180  0.98680  0.48350  1.0000 0.1970330235
C   C53       1.0  0.51650  0.95180  0.51320  1.0000 0.1970330235
C   C54       1.0  0.01650  0.54820  0.48680  1.0000 0.1970330235
C   C55       1.0  0.98350  0.04820  0.01320  1.0000 0.1970330235
C   C56       1.0  0.48350  0.45180  0.98680  1.0000 0.1970330235
C   C57       1.0  0.51320  0.51650  0.95180  1.0000 0.1970330235
C   C58       1.0  0.48680  0.01650  0.54820  1.0000 0.1970330235
C   C59       1.0  0.01320  0.98350  0.04820  1.0000 0.1970330235
C   C60       1.0  0.98680  0.48350  0.45180  1.0000 0.1970330235
C   C61       1.0  0.76320  0.70180  0.23350  1.0000 0.1970330235
C   C62       1.0  0.73680  0.29820  0.73350  1.0000 0.1970330235
C   C63       1.0  0.26320  0.79820  0.76650  1.0000 0.1970330235
C   C64       1.0  0.23680  0.20180  0.26650  1.0000 0.1970330235
C   C65       1.0  0.20180  0.26650  0.23680  1.0000 0.1970330235
C   C66       1.0  0.79820  0.76650  0.26320  1.0000 0.1970330235
C   C67       1.0  0.29820  0.73350  0.73680  1.0000 0.1970330235
C   C68       1.0  0.70180  0.23350  0.76320  1.0000 0.1970330235
C   C69       1.0  0.76650  0.26320  0.79820  1.0000 0.1970330235
C   C70       1.0  0.26650  0.23680  0.20180  1.0000 0.1970330235
C   C71       1.0  0.23350  0.76320  0.70180  1.0000 0.1970330235
C   C72       1.0  0.73350  0.73680  0.29820  1.0000 0.1970330235
C   C73       1.0  0.89860  0.54410  0.57210  1.0000 -0.112889316
C   C74       1.0  0.60140  0.45590  0.07210  1.0000 -0.112889316
C   C75       1.0  0.10140  0.04410  0.92790  1.0000 -0.112889316
C   C76       1.0  0.39860  0.95590  0.42790  1.0000 -0.112889316
C   C77       1.0  0.57210  0.89860  0.54410  1.0000 -0.112889316
C   C78       1.0  0.07210  0.60140  0.45590  1.0000 -0.112889316
C   C79       1.0  0.92790  0.10140  0.04410  1.0000 -0.112889316
C   C80       1.0  0.42790  0.39860  0.95590  1.0000 -0.112889316
C   C81       1.0  0.54410  0.57210  0.89860  1.0000 -0.112889316
C   C82       1.0  0.45590  0.07210  0.60140  1.0000 -0.112889316
C   C83       1.0  0.04410  0.92790  0.10140  1.0000 -0.112889316
C   C84       1.0  0.95590  0.42790  0.39860  1.0000 -0.112889316
C   C85       1.0  0.79410  0.64860  0.17790  1.0000 -0.112889316
C   C86       1.0  0.70590  0.35140  0.67790  1.0000 -0.112889316
C   C87       1.0  0.29410  0.85140  0.82210  1.0000 -0.112889316
C   C88       1.0  0.20590  0.14860  0.32210  1.0000 -0.112889316
C   C89       1.0  0.14860  0.32210  0.20590  1.0000 -0.112889316
C   C90       1.0  0.85140  0.82210  0.29410  1.0000 -0.112889316
C   C91       1.0  0.35140  0.67790  0.70590  1.0000 -0.112889316
C   C92       1.0  0.64860  0.17790  0.79410  1.0000 -0.112889316
C   C93       1.0  0.82210  0.29410  0.85140  1.0000 -0.112889316
C   C94       1.0  0.32210  0.20590  0.14860  1.0000 -0.112889316
C   C95       1.0  0.17790  0.79410  0.64860  1.0000 -0.112889316
C   C96       1.0  0.67790  0.70590  0.35140  1.0000 -0.112889316
C   C97       1.0  0.05520  0.11940  0.08000  1.0000 0.1929255924
C   C98       1.0  0.44480  0.88060  0.58000  1.0000 0.1929255924
C   C99       1.0  0.94480  0.61940  0.42000  1.0000 0.1929255924
C   C100      1.0  0.55520  0.38060  0.92000  1.0000 0.1929255924
C   C101      1.0  0.08000  0.05520  0.11940  1.0000 0.1929255924
C   C102      1.0  0.58000  0.44480  0.88060  1.0000 0.1929255924
C   C103      1.0  0.42000  0.94480  0.61940  1.0000 0.1929255924
C   C104      1.0  0.92000  0.55520  0.38060  1.0000 0.1929255924
C   C105      1.0  0.11940  0.08000  0.05520  1.0000 0.1929255924
C   C106      1.0  0.88060  0.58000  0.44480  1.0000 0.1929255924
C   C107      1.0  0.61940  0.42000  0.94480  1.0000 0.1929255924
C   C108      1.0  0.38060  0.92000  0.55520  1.0000 0.1929255924
C   C109      1.0  0.36940  0.80520  0.67000  1.0000 0.1929255924
C   C110      1.0  0.13060  0.19480  0.17000  1.0000 0.1929255924
C   C111      1.0  0.86940  0.69480  0.33000  1.0000 0.1929255924
C   C112      1.0  0.63060  0.30520  0.83000  1.0000 0.1929255924
C   C113      1.0  0.30520  0.83000  0.63060  1.0000 0.1929255924
C   C114      1.0  0.69480  0.33000  0.86940  1.0000 0.1929255924
C   C115      1.0  0.19480  0.17000  0.13060  1.0000 0.1929255924
C   C116      1.0  0.80520  0.67000  0.36940  1.0000 0.1929255924
C   C117      1.0  0.33000  0.86940  0.69480  1.0000 0.1929255924
C   C118      1.0  0.83000  0.63060  0.30520  1.0000 0.1929255924
C   C119      1.0  0.67000  0.36940  0.80520  1.0000 0.1929255924
C   C120      1.0  0.17000  0.13060  0.19480  1.0000 0.1929255924
C   C121      1.0  0.85980  0.41170  0.80020  1.0000 0.4072985879
C   C122      1.0  0.64020  0.58830  0.30020  1.0000 0.4072985879
C   C123      1.0  0.14020  0.91170  0.69980  1.0000 0.4072985879
C   C124      1.0  0.35980  0.08830  0.19980  1.0000 0.4072985879
C   C125      1.0  0.80020  0.85980  0.41170  1.0000 0.4072985879
C   C126      1.0  0.30020  0.64020  0.58830  1.0000 0.4072985879
C   C127      1.0  0.69980  0.14020  0.91170  1.0000 0.4072985879
C   C128      1.0  0.19980  0.35980  0.08830  1.0000 0.4072985879
C   C129      1.0  0.41170  0.80020  0.85980  1.0000 0.4072985879
C   C130      1.0  0.58830  0.30020  0.64020  1.0000 0.4072985879
C   C131      1.0  0.91170  0.69980  0.14020  1.0000 0.4072985879
C   C132      1.0  0.08830  0.19980  0.35980  1.0000 0.4072985879
C   C133      1.0  0.66170  0.60980  0.94980  1.0000 0.4072985879
C   C134      1.0  0.83830  0.39020  0.44980  1.0000 0.4072985879
C   C135      1.0  0.16170  0.89020  0.05020  1.0000 0.4072985879
C   C136      1.0  0.33830  0.10980  0.55020  1.0000 0.4072985879
C   C137      1.0  0.10980  0.55020  0.33830  1.0000 0.4072985879
C   C138      1.0  0.89020  0.05020  0.16170  1.0000 0.4072985879
C   C139      1.0  0.39020  0.44980  0.83830  1.0000 0.4072985879
C   C140      1.0  0.60980  0.94980  0.66170  1.0000 0.4072985879
C   C141      1.0  0.05020  0.16170  0.89020  1.0000 0.4072985879
C   C142      1.0  0.55020  0.33830  0.10980  1.0000 0.4072985879
C   C143      1.0  0.94980  0.66170  0.60980  1.0000 0.4072985879
C   C144      1.0  0.44980  0.83830  0.39020  1.0000 0.4072985879
C   C145      1.0  0.84480  0.43040  0.88010  1.0000 -0.1218440402
C   C146      1.0  0.65520  0.56960  0.38010  1.0000 -0.1218440402
C   C147      1.0  0.15520  0.93040  0.61990  1.0000 -0.1218440402
C   C148      1.0  0.34480  0.06960  0.11990  1.0000 -0.1218440402
C   C149      1.0  0.88010  0.84480  0.43040  1.0000 -0.1218440402
C   C150      1.0  0.38010  0.65520  0.56960  1.0000 -0.1218440402
C   C151      1.0  0.61990  0.15520  0.93040  1.0000 -0.1218440402
C   C152      1.0  0.11990  0.34480  0.06960  1.0000 -0.1218440402
C   C153      1.0  0.43040  0.88010  0.84480  1.0000 -0.1218440402
C   C154      1.0  0.56960  0.38010  0.65520  1.0000 -0.1218440402
C   C155      1.0  0.93040  0.61990  0.15520  1.0000 -0.1218440402
C   C156      1.0  0.06960  0.11990  0.34480  1.0000 -0.1218440402
C   C157      1.0  0.68040  0.59480  0.86990  1.0000 -0.1218440402
C   C158      1.0  0.81960  0.40520  0.36990  1.0000 -0.1218440402
C   C159      1.0  0.18040  0.90520  0.13010  1.0000 -0.1218440402
C   C160      1.0  0.31960  0.09480  0.63010  1.0000 -0.1218440402
C   C161      1.0  0.09480  0.63010  0.31960  1.0000 -0.1218440402
C   C162      1.0  0.90520  0.13010  0.18040  1.0000 -0.1218440402
C   C163      1.0  0.40520  0.36990  0.81960  1.0000 -0.1218440402
C   C164      1.0  0.59480  0.86990  0.68040  1.0000 -0.1218440402
C   C165      1.0  0.13010  0.18040  0.90520  1.0000 -0.1218440402
C   C166      1.0  0.63010  0.31960  0.09480  1.0000 -0.1218440402
C   C167      1.0  0.86990  0.68040  0.59480  1.0000 -0.1218440402
C   C168      1.0  0.36990  0.81960  0.40520  1.0000 -0.1218440402
C   C169      1.0  0.05010  0.09040  0.11650  1.0000 -0.2892945725
C   C170      1.0  0.44990  0.90960  0.61650  1.0000 -0.2892945725
C   C171      1.0  0.94990  0.59040  0.38350  1.0000 -0.2892945725
C   C172      1.0  0.55010  0.40960  0.88350  1.0000 -0.2892945725
C   C173      1.0  0.11650  0.05010  0.09040  1.0000 -0.2892945725
C   C174      1.0  0.61650  0.44990  0.90960  1.0000 -0.2892945725
C   C175      1.0  0.38350  0.94990  0.59040  1.0000 -0.2892945725
C   C176      1.0  0.88350  0.55010  0.40960  1.0000 -0.2892945725
C   C177      1.0  0.09040  0.11650  0.05010  1.0000 -0.2892945725
C   C178      1.0  0.90960  0.61650  0.44990  1.0000 -0.2892945725
C   C179      1.0  0.59040  0.38350  0.94990  1.0000 -0.2892945725
C   C180      1.0  0.40960  0.88350  0.55010  1.0000 -0.2892945725
C   C181      1.0  0.34040  0.80010  0.63350  1.0000 -0.2892945725
C   C182      1.0  0.15960  0.19990  0.13350  1.0000 -0.2892945725
C   C183      1.0  0.84040  0.69990  0.36650  1.0000 -0.2892945725
C   C184      1.0  0.65960  0.30010  0.86650  1.0000 -0.2892945725
C   C185      1.0  0.30010  0.86650  0.65960  1.0000 -0.2892945725
C   C186      1.0  0.69990  0.36650  0.84040  1.0000 -0.2892945725
C   C187      1.0  0.19990  0.13350  0.15960  1.0000 -0.2892945725
C   C188      1.0  0.80010  0.63350  0.34040  1.0000 -0.2892945725
C   C189      1.0  0.36650  0.84040  0.69990  1.0000 -0.2892945725
C   C190      1.0  0.86650  0.65960  0.30010  1.0000 -0.2892945725
C   C191      1.0  0.63350  0.34040  0.80010  1.0000 -0.2892945725
C   C192      1.0  0.13350  0.15960  0.19990  1.0000 -0.2892945725
C   C193      1.0  0.82330  0.45200  0.95820  1.0000 0.5421814528
C   C194      1.0  0.67670  0.54800  0.45820  1.0000 0.5421814528
C   C195      1.0  0.17670  0.95200  0.54180  1.0000 0.5421814528
C   C196      1.0  0.32330  0.04800  0.04180  1.0000 0.5421814528
C   C197      1.0  0.95820  0.82330  0.45200  1.0000 0.5421814528
C   C198      1.0  0.45820  0.67670  0.54800  1.0000 0.5421814528
C   C199      1.0  0.54180  0.17670  0.95200  1.0000 0.5421814528
C   C200      1.0  0.04180  0.32330  0.04800  1.0000 0.5421814528
C   C201      1.0  0.45200  0.95820  0.82330  1.0000 0.5421814528
C   C202      1.0  0.54800  0.45820  0.67670  1.0000 0.5421814528
C   C203      1.0  0.95200  0.54180  0.17670  1.0000 0.5421814528
C   C204      1.0  0.04800  0.04180  0.32330  1.0000 0.5421814528
C   C205      1.0  0.70200  0.57330  0.79180  1.0000 0.5421814528
C   C206      1.0  0.79800  0.42670  0.29180  1.0000 0.5421814528
C   C207      1.0  0.20200  0.92670  0.20820  1.0000 0.5421814528
C   C208      1.0  0.29800  0.07330  0.70820  1.0000 0.5421814528
C   C209      1.0  0.07330  0.70820  0.29800  1.0000 0.5421814528
C   C210      1.0  0.92670  0.20820  0.20200  1.0000 0.5421814528
C   C211      1.0  0.42670  0.29180  0.79800  1.0000 0.5421814528
C   C212      1.0  0.57330  0.79180  0.70200  1.0000 0.5421814528
C   C213      1.0  0.20820  0.20200  0.92670  1.0000 0.5421814528
C   C214      1.0  0.70820  0.29800  0.07330  1.0000 0.5421814528
C   C215      1.0  0.79180  0.70200  0.57330  1.0000 0.5421814528
C   C216      1.0  0.29180  0.79800  0.42670  1.0000 0.5421814528
C   C217      1.0  0.85150  0.42570  0.92360  1.0000 -0.0089927752
C   C218      1.0  0.64850  0.57430  0.42360  1.0000 -0.0089927752
C   C219      1.0  0.14850  0.92570  0.57640  1.0000 -0.0089927752
C   C220      1.0  0.35150  0.07430  0.07640  1.0000 -0.0089927752
C   C221      1.0  0.92360  0.85150  0.42570  1.0000 -0.0089927752
C   C222      1.0  0.42360  0.64850  0.57430  1.0000 -0.0089927752
C   C223      1.0  0.57640  0.14850  0.92570  1.0000 -0.0089927752
C   C224      1.0  0.07640  0.35150  0.07430  1.0000 -0.0089927752
C   C225      1.0  0.42570  0.92360  0.85150  1.0000 -0.0089927752
C   C226      1.0  0.57430  0.42360  0.64850  1.0000 -0.0089927752
C   C227      1.0  0.92570  0.57640  0.14850  1.0000 -0.0089927752
C   C228      1.0  0.07430  0.07640  0.35150  1.0000 -0.0089927752
C   C229      1.0  0.67570  0.60150  0.82640  1.0000 -0.0089927752
C   C230      1.0  0.82430  0.39850  0.32640  1.0000 -0.0089927752
C   C231      1.0  0.17570  0.89850  0.17360  1.0000 -0.0089927752
C   C232      1.0  0.32430  0.10150  0.67360  1.0000 -0.0089927752
C   C233      1.0  0.10150  0.67360  0.32430  1.0000 -0.0089927752
C   C234      1.0  0.89850  0.17360  0.17570  1.0000 -0.0089927752
C   C235      1.0  0.39850  0.32640  0.82430  1.0000 -0.0089927752
C   C236      1.0  0.60150  0.82640  0.67570  1.0000 -0.0089927752
C   C237      1.0  0.17360  0.17570  0.89850  1.0000 -0.0089927752
C   C238      1.0  0.67360  0.32430  0.10150  1.0000 -0.0089927752
C   C239      1.0  0.82640  0.67570  0.60150  1.0000 -0.0089927752
C   C240      1.0  0.32640  0.82430  0.39850  1.0000 -0.0089927752
C   C241      1.0  0.90530  0.38390  0.86290  1.0000 -0.1218440402
C   C242      1.0  0.59470  0.61610  0.36290  1.0000 -0.1218440402
C   C243      1.0  0.09470  0.88390  0.63710  1.0000 -0.1218440402
C   C244      1.0  0.40530  0.11610  0.13710  1.0000 -0.1218440402
C   C245      1.0  0.86290  0.90530  0.38390  1.0000 -0.1218440402
C   C246      1.0  0.36290  0.59470  0.61610  1.0000 -0.1218440402
C   C247      1.0  0.63710  0.09470  0.88390  1.0000 -0.1218440402
C   C248      1.0  0.13710  0.40530  0.11610  1.0000 -0.1218440402
C   C249      1.0  0.38390  0.86290  0.90530  1.0000 -0.1218440402
C   C250      1.0  0.61610  0.36290  0.59470  1.0000 -0.1218440402
C   C251      1.0  0.88390  0.63710  0.09470  1.0000 -0.1218440402
C   C252      1.0  0.11610  0.13710  0.40530  1.0000 -0.1218440402
C   C253      1.0  0.63390  0.65530  0.88710  1.0000 -0.1218440402
C   C254      1.0  0.86610  0.34470  0.38710  1.0000 -0.1218440402
C   C255      1.0  0.13390  0.84470  0.11290  1.0000 -0.1218440402
C   C256      1.0  0.36610  0.15530  0.61290  1.0000 -0.1218440402
C   C257      1.0  0.15530  0.61290  0.36610  1.0000 -0.1218440402
C   C258      1.0  0.84470  0.11290  0.13390  1.0000 -0.1218440402
C   C259      1.0  0.34470  0.38710  0.86610  1.0000 -0.1218440402
C   C260      1.0  0.65530  0.88710  0.63390  1.0000 -0.1218440402
C   C261      1.0  0.11290  0.13390  0.84470  1.0000 -0.1218440402
C   C262      1.0  0.61290  0.36610  0.15530  1.0000 -0.1218440402
C   C263      1.0  0.88710  0.63390  0.65530  1.0000 -0.1218440402
C   C264      1.0  0.38710  0.86610  0.34470  1.0000 -0.1218440402
C   C265      1.0  0.01980  0.18430  0.03550  1.0000 0.0925022148
C   C266      1.0  0.48020  0.81570  0.53550  1.0000 0.0925022148
C   C267      1.0  0.98020  0.68430  0.46450  1.0000 0.0925022148
C   C268      1.0  0.51980  0.31570  0.96450  1.0000 0.0925022148
C   C269      1.0  0.03550  0.01980  0.18430  1.0000 0.0925022148
C   C270      1.0  0.53550  0.48020  0.81570  1.0000 0.0925022148
C   C271      1.0  0.46450  0.98020  0.68430  1.0000 0.0925022148
C   C272      1.0  0.96450  0.51980  0.31570  1.0000 0.0925022148
C   C273      1.0  0.18430  0.03550  0.01980  1.0000 0.0925022148
C   C274      1.0  0.81570  0.53550  0.48020  1.0000 0.0925022148
C   C275      1.0  0.68430  0.46450  0.98020  1.0000 0.0925022148
C   C276      1.0  0.31570  0.96450  0.51980  1.0000 0.0925022148
C   C277      1.0  0.43430  0.76980  0.71450  1.0000 0.0925022148
C   C278      1.0  0.06570  0.23020  0.21450  1.0000 0.0925022148
C   C279      1.0  0.93430  0.73020  0.28550  1.0000 0.0925022148
C   C280      1.0  0.56570  0.26980  0.78550  1.0000 0.0925022148
C   C281      1.0  0.26980  0.78550  0.56570  1.0000 0.0925022148
C   C282      1.0  0.73020  0.28550  0.93430  1.0000 0.0925022148
C   C283      1.0  0.23020  0.21450  0.06570  1.0000 0.0925022148
C   C284      1.0  0.76980  0.71450  0.43430  1.0000 0.0925022148
C   C285      1.0  0.28550  0.93430  0.73020  1.0000 0.0925022148
C   C286      1.0  0.78550  0.56570  0.26980  1.0000 0.0925022148
C   C287      1.0  0.71450  0.43430  0.76980  1.0000 0.0925022148
C   C288      1.0  0.21450  0.06570  0.23020  1.0000 0.0925022148
C   C289      1.0  0.86630  0.52850  0.60070  1.0000 0.0148168948
C   C290      1.0  0.63370  0.47150  0.10070  1.0000 0.0148168948
C   C291      1.0  0.13370  0.02850  0.89930  1.0000 0.0148168948
C   C292      1.0  0.36630  0.97150  0.39930  1.0000 0.0148168948
C   C293      1.0  0.60070  0.86630  0.52850  1.0000 0.0148168948
C   C294      1.0  0.10070  0.63370  0.47150  1.0000 0.0148168948
C   C295      1.0  0.89930  0.13370  0.02850  1.0000 0.0148168948
C   C296      1.0  0.39930  0.36630  0.97150  1.0000 0.0148168948
C   C297      1.0  0.52850  0.60070  0.86630  1.0000 0.0148168948
C   C298      1.0  0.47150  0.10070  0.63370  1.0000 0.0148168948
C   C299      1.0  0.02850  0.89930  0.13370  1.0000 0.0148168948
C   C300      1.0  0.97150  0.39930  0.36630  1.0000 0.0148168948
C   C301      1.0  0.77850  0.61630  0.14930  1.0000 0.0148168948
C   C302      1.0  0.72150  0.38370  0.64930  1.0000 0.0148168948
C   C303      1.0  0.27850  0.88370  0.85070  1.0000 0.0148168948
C   C304      1.0  0.22150  0.11630  0.35070  1.0000 0.0148168948
C   C305      1.0  0.11630  0.35070  0.22150  1.0000 0.0148168948
C   C306      1.0  0.88370  0.85070  0.27850  1.0000 0.0148168948
C   C307      1.0  0.38370  0.64930  0.72150  1.0000 0.0148168948
C   C308      1.0  0.61630  0.14930  0.77850  1.0000 0.0148168948
C   C309      1.0  0.85070  0.27850  0.88370  1.0000 0.0148168948
C   C310      1.0  0.35070  0.22150  0.11630  1.0000 0.0148168948
C   C311      1.0  0.14930  0.77850  0.61630  1.0000 0.0148168948
C   C312      1.0  0.64930  0.72150  0.38370  1.0000 0.0148168948
C   C313      1.0  0.88920  0.47520  0.55910  1.0000 0.0721114071
C   C314      1.0  0.61080  0.52480  0.05910  1.0000 0.0721114071
C   C315      1.0  0.11080  0.97520  0.94090  1.0000 0.0721114071
C   C316      1.0  0.38920  0.02480  0.44090  1.0000 0.0721114071
C   C317      1.0  0.55910  0.88920  0.47520  1.0000 0.0721114071
C   C318      1.0  0.05910  0.61080  0.52480  1.0000 0.0721114071
C   C319      1.0  0.94090  0.11080  0.97520  1.0000 0.0721114071
C   C320      1.0  0.44090  0.38920  0.02480  1.0000 0.0721114071
C   C321      1.0  0.47520  0.55910  0.88920  1.0000 0.0721114071
C   C322      1.0  0.52480  0.05910  0.61080  1.0000 0.0721114071
C   C323      1.0  0.97520  0.94090  0.11080  1.0000 0.0721114071
C   C324      1.0  0.02480  0.44090  0.38920  1.0000 0.0721114071
C   C325      1.0  0.72520  0.63920  0.19090  1.0000 0.0721114071
C   C326      1.0  0.77480  0.36080  0.69090  1.0000 0.0721114071
C   C327      1.0  0.22520  0.86080  0.80910  1.0000 0.0721114071
C   C328      1.0  0.27480  0.13920  0.30910  1.0000 0.0721114071
C   C329      1.0  0.13920  0.30910  0.27480  1.0000 0.0721114071
C   C330      1.0  0.86080  0.80910  0.22520  1.0000 0.0721114071
C   C331      1.0  0.36080  0.69090  0.77480  1.0000 0.0721114071
C   C332      1.0  0.63920  0.19090  0.72520  1.0000 0.0721114071
C   C333      1.0  0.80910  0.22520  0.86080  1.0000 0.0721114071
C   C334      1.0  0.30910  0.27480  0.13920  1.0000 0.0721114071
C   C335      1.0  0.19090  0.72520  0.63920  1.0000 0.0721114071
C   C336      1.0  0.69090  0.77480  0.36080  1.0000 0.0721114071
C   C337      1.0  0.88780  0.39880  0.93980  1.0000 -0.112889316
C   C338      1.0  0.61220  0.60120  0.43980  1.0000 -0.112889316
C   C339      1.0  0.11220  0.89880  0.56020  1.0000 -0.112889316
C   C340      1.0  0.38780  0.10120  0.06020  1.0000 -0.112889316
C   C341      1.0  0.93980  0.88780  0.39880  1.0000 -0.112889316
C   C342      1.0  0.43980  0.61220  0.60120  1.0000 -0.112889316
C   C343      1.0  0.56020  0.11220  0.89880  1.0000 -0.112889316
C   C344      1.0  0.06020  0.38780  0.10120  1.0000 -0.112889316
C   C345      1.0  0.39880  0.93980  0.88780  1.0000 -0.112889316
C   C346      1.0  0.60120  0.43980  0.61220  1.0000 -0.112889316
C   C347      1.0  0.89880  0.56020  0.11220  1.0000 -0.112889316
C   C348      1.0  0.10120  0.06020  0.38780  1.0000 -0.112889316
C   C349      1.0  0.64880  0.63780  0.81020  1.0000 -0.112889316
C   C350      1.0  0.85120  0.36220  0.31020  1.0000 -0.112889316
C   C351      1.0  0.14880  0.86220  0.18980  1.0000 -0.112889316
C   C352      1.0  0.35120  0.13780  0.68980  1.0000 -0.112889316
C   C353      1.0  0.13780  0.68980  0.35120  1.0000 -0.112889316
C   C354      1.0  0.86220  0.18980  0.14880  1.0000 -0.112889316
C   C355      1.0  0.36220  0.31020  0.85120  1.0000 -0.112889316
C   C356      1.0  0.63780  0.81020  0.64880  1.0000 -0.112889316
C   C357      1.0  0.18980  0.14880  0.86220  1.0000 -0.112889316
C   C358      1.0  0.68980  0.35120  0.13780  1.0000 -0.112889316
C   C359      1.0  0.81020  0.64880  0.63780  1.0000 -0.112889316
C   C360      1.0  0.31020  0.85120  0.36220  1.0000 -0.112889316
C   C361      1.0  0.87390  0.44620  0.72750  1.0000 -0.0604647644
C   C362      1.0  0.62610  0.55380  0.22750  1.0000 -0.0604647644
C   C363      1.0  0.12610  0.94620  0.77250  1.0000 -0.0604647644
C   C364      1.0  0.37390  0.05380  0.27250  1.0000 -0.0604647644
C   C365      1.0  0.72750  0.87390  0.44620  1.0000 -0.0604647644
C   C366      1.0  0.22750  0.62610  0.55380  1.0000 -0.0604647644
C   C367      1.0  0.77250  0.12610  0.94620  1.0000 -0.0604647644
C   C368      1.0  0.27250  0.37390  0.05380  1.0000 -0.0604647644
C   C369      1.0  0.44620  0.72750  0.87390  1.0000 -0.0604647644
C   C370      1.0  0.55380  0.22750  0.62610  1.0000 -0.0604647644
C   C371      1.0  0.94620  0.77250  0.12610  1.0000 -0.0604647644
C   C372      1.0  0.05380  0.27250  0.37390  1.0000 -0.0604647644
C   C373      1.0  0.69620  0.62390  0.02250  1.0000 -0.0604647644
C   C374      1.0  0.80380  0.37610  0.52250  1.0000 -0.0604647644
C   C375      1.0  0.19620  0.87610  0.97750  1.0000 -0.0604647644
C   C376      1.0  0.30380  0.12390  0.47750  1.0000 -0.0604647644
C   C377      1.0  0.12390  0.47750  0.30380  1.0000 -0.0604647644
C   C378      1.0  0.87610  0.97750  0.19620  1.0000 -0.0604647644
C   C379      1.0  0.37610  0.52250  0.80380  1.0000 -0.0604647644
C   C380      1.0  0.62390  0.02250  0.69620  1.0000 -0.0604647644
C   C381      1.0  0.97750  0.19620  0.87610  1.0000 -0.0604647644
C   C382      1.0  0.47750  0.30380  0.12390  1.0000 -0.0604647644
C   C383      1.0  0.02250  0.69620  0.62390  1.0000 -0.0604647644
C   C384      1.0  0.52250  0.80380  0.37610  1.0000 -0.0604647644
C   C385      1.0  0.92530  0.45930  0.78720  1.0000 -0.1044159494
C   C386      1.0  0.57470  0.54070  0.28720  1.0000 -0.1044159494
C   C387      1.0  0.07470  0.95930  0.71280  1.0000 -0.1044159494
C   C388      1.0  0.42530  0.04070  0.21280  1.0000 -0.1044159494
C   C389      1.0  0.78720  0.92530  0.45930  1.0000 -0.1044159494
C   C390      1.0  0.28720  0.57470  0.54070  1.0000 -0.1044159494
C   C391      1.0  0.71280  0.07470  0.95930  1.0000 -0.1044159494
C   C392      1.0  0.21280  0.42530  0.04070  1.0000 -0.1044159494
C   C393      1.0  0.45930  0.78720  0.92530  1.0000 -0.1044159494
C   C394      1.0  0.54070  0.28720  0.57470  1.0000 -0.1044159494
C   C395      1.0  0.95930  0.71280  0.07470  1.0000 -0.1044159494
C   C396      1.0  0.04070  0.21280  0.42530  1.0000 -0.1044159494
C   C397      1.0  0.70930  0.67530  0.96280  1.0000 -0.1044159494
C   C398      1.0  0.79070  0.32470  0.46280  1.0000 -0.1044159494
C   C399      1.0  0.20930  0.82470  0.03720  1.0000 -0.1044159494
C   C400      1.0  0.29070  0.17530  0.53720  1.0000 -0.1044159494
C   C401      1.0  0.17530  0.53720  0.29070  1.0000 -0.1044159494
C   C402      1.0  0.82470  0.03720  0.20930  1.0000 -0.1044159494
C   C403      1.0  0.32470  0.46280  0.79070  1.0000 -0.1044159494
C   C404      1.0  0.67530  0.96280  0.70930  1.0000 -0.1044159494
C   C405      1.0  0.03720  0.20930  0.82470  1.0000 -0.1044159494
C   C406      1.0  0.53720  0.29070  0.17530  1.0000 -0.1044159494
C   C407      1.0  0.96280  0.70930  0.67530  1.0000 -0.1044159494
C   C408      1.0  0.46280  0.79070  0.32470  1.0000 -0.1044159494
C   C409      1.0  0.83030  0.47140  0.72490  1.0000 0.5488642511
C   C410      1.0  0.66970  0.52860  0.22490  1.0000 0.5488642511
C   C411      1.0  0.16970  0.97140  0.77510  1.0000 0.5488642511
C   C412      1.0  0.33030  0.02860  0.27510  1.0000 0.5488642511
C   C413      1.0  0.72490  0.83030  0.47140  1.0000 0.5488642511
C   C414      1.0  0.22490  0.66970  0.52860  1.0000 0.5488642511
C   C415      1.0  0.77510  0.16970  0.97140  1.0000 0.5488642511
C   C416      1.0  0.27510  0.33030  0.02860  1.0000 0.5488642511
C   C417      1.0  0.47140  0.72490  0.83030  1.0000 0.5488642511
C   C418      1.0  0.52860  0.22490  0.66970  1.0000 0.5488642511
C   C419      1.0  0.97140  0.77510  0.16970  1.0000 0.5488642511
C   C420      1.0  0.02860  0.27510  0.33030  1.0000 0.5488642511
C   C421      1.0  0.72140  0.58030  0.02510  1.0000 0.5488642511
C   C422      1.0  0.77860  0.41970  0.52510  1.0000 0.5488642511
C   C423      1.0  0.22140  0.91970  0.97490  1.0000 0.5488642511
C   C424      1.0  0.27860  0.08030  0.47490  1.0000 0.5488642511
C   C425      1.0  0.08030  0.47490  0.27860  1.0000 0.5488642511
C   C426      1.0  0.91970  0.97490  0.22140  1.0000 0.5488642511
C   C427      1.0  0.41970  0.52510  0.77860  1.0000 0.5488642511
C   C428      1.0  0.58030  0.02510  0.72140  1.0000 0.5488642511
C   C429      1.0  0.97490  0.22140  0.91970  1.0000 0.5488642511
C   C430      1.0  0.47490  0.27860  0.08030  1.0000 0.5488642511
C   C431      1.0  0.02510  0.72140  0.58030  1.0000 0.5488642511
C   C432      1.0  0.52510  0.77860  0.41970  1.0000 0.5488642511
C   C433      1.0  0.86970  0.40640  0.84890  1.0000 -0.0308044962
C   C434      1.0  0.63030  0.59360  0.34890  1.0000 -0.0308044962
C   C435      1.0  0.13030  0.90640  0.65110  1.0000 -0.0308044962
C   C436      1.0  0.36970  0.09360  0.15110  1.0000 -0.0308044962
C   C437      1.0  0.84890  0.86970  0.40640  1.0000 -0.0308044962
C   C438      1.0  0.34890  0.63030  0.59360  1.0000 -0.0308044962
C   C439      1.0  0.65110  0.13030  0.90640  1.0000 -0.0308044962
C   C440      1.0  0.15110  0.36970  0.09360  1.0000 -0.0308044962
C   C441      1.0  0.40640  0.84890  0.86970  1.0000 -0.0308044962
C   C442      1.0  0.59360  0.34890  0.63030  1.0000 -0.0308044962
C   C443      1.0  0.90640  0.65110  0.13030  1.0000 -0.0308044962
C   C444      1.0  0.09360  0.15110  0.36970  1.0000 -0.0308044962
C   C445      1.0  0.65640  0.61970  0.90110  1.0000 -0.0308044962
C   C446      1.0  0.84360  0.38030  0.40110  1.0000 -0.0308044962
C   C447      1.0  0.15640  0.88030  0.09890  1.0000 -0.0308044962
C   C448      1.0  0.34360  0.11970  0.59890  1.0000 -0.0308044962
C   C449      1.0  0.11970  0.59890  0.34360  1.0000 -0.0308044962
C   C450      1.0  0.88030  0.09890  0.15640  1.0000 -0.0308044962
C   C451      1.0  0.38030  0.40110  0.84360  1.0000 -0.0308044962
C   C452      1.0  0.61970  0.90110  0.65640  1.0000 -0.0308044962
C   C453      1.0  0.09890  0.15640  0.88030  1.0000 -0.0308044962
C   C454      1.0  0.59890  0.34360  0.11970  1.0000 -0.0308044962
C   C455      1.0  0.90110  0.65640  0.61970  1.0000 -0.0308044962
C   C456      1.0  0.40110  0.84360  0.38030  1.0000 -0.0308044962
C   C457      1.0  0.95530  0.34990  0.92670  1.0000 0.5488642511
C   C458      1.0  0.54470  0.65010  0.42670  1.0000 0.5488642511
C   C459      1.0  0.04470  0.84990  0.57330  1.0000 0.5488642511
C   C460      1.0  0.45530  0.15010  0.07330  1.0000 0.5488642511
C   C461      1.0  0.92670  0.95530  0.34990  1.0000 0.5488642511
C   C462      1.0  0.42670  0.54470  0.65010  1.0000 0.5488642511
C   C463      1.0  0.57330  0.04470  0.84990  1.0000 0.5488642511
C   C464      1.0  0.07330  0.45530  0.15010  1.0000 0.5488642511
C   C465      1.0  0.34990  0.92670  0.95530  1.0000 0.5488642511
C   C466      1.0  0.65010  0.42670  0.54470  1.0000 0.5488642511
C   C467      1.0  0.84990  0.57330  0.04470  1.0000 0.5488642511
C   C468      1.0  0.15010  0.07330  0.45530  1.0000 0.5488642511
C   C469      1.0  0.59990  0.70530  0.82330  1.0000 0.5488642511
C   C470      1.0  0.90010  0.29470  0.32330  1.0000 0.5488642511
C   C471      1.0  0.09990  0.79470  0.17670  1.0000 0.5488642511
C   C472      1.0  0.40010  0.20530  0.67670  1.0000 0.5488642511
C   C473      1.0  0.20530  0.67670  0.40010  1.0000 0.5488642511
C   C474      1.0  0.79470  0.17670  0.09990  1.0000 0.5488642511
C   C475      1.0  0.29470  0.32330  0.90010  1.0000 0.5488642511
C   C476      1.0  0.70530  0.82330  0.59990  1.0000 0.5488642511
C   C477      1.0  0.17670  0.09990  0.79470  1.0000 0.5488642511
C   C478      1.0  0.67670  0.40010  0.20530  1.0000 0.5488642511
C   C479      1.0  0.82330  0.59990  0.70530  1.0000 0.5488642511
C   C480      1.0  0.32330  0.90010  0.29470  1.0000 0.5488642511
C   C481      1.0  0.99760  0.17570  0.10510  1.0000 -0.1218440402
C   C482      1.0  0.50240  0.82430  0.60510  1.0000 -0.1218440402
C   C483      1.0  0.00240  0.67570  0.39490  1.0000 -0.1218440402
C   C484      1.0  0.49760  0.32430  0.89490  1.0000 -0.1218440402
C   C485      1.0  0.10510  0.99760  0.17570  1.0000 -0.1218440402
C   C486      1.0  0.60510  0.50240  0.82430  1.0000 -0.1218440402
C   C487      1.0  0.39490  0.00240  0.67570  1.0000 -0.1218440402
C   C488      1.0  0.89490  0.49760  0.32430  1.0000 -0.1218440402
C   C489      1.0  0.17570  0.10510  0.99760  1.0000 -0.1218440402
C   C490      1.0  0.82430  0.60510  0.50240  1.0000 -0.1218440402
C   C491      1.0  0.67570  0.39490  0.00240  1.0000 -0.1218440402
C   C492      1.0  0.32430  0.89490  0.49760  1.0000 -0.1218440402
C   C493      1.0  0.42570  0.74760  0.64490  1.0000 -0.1218440402
C   C494      1.0  0.07430  0.25240  0.14490  1.0000 -0.1218440402
C   C495      1.0  0.92570  0.75240  0.35510  1.0000 -0.1218440402
C   C496      1.0  0.57430  0.24760  0.85510  1.0000 -0.1218440402
C   C497      1.0  0.24760  0.85510  0.57430  1.0000 -0.1218440402
C   C498      1.0  0.75240  0.35510  0.92570  1.0000 -0.1218440402
C   C499      1.0  0.25240  0.14490  0.07430  1.0000 -0.1218440402
C   C500      1.0  0.74760  0.64490  0.42570  1.0000 -0.1218440402
C   C501      1.0  0.35510  0.92570  0.75240  1.0000 -0.1218440402
C   C502      1.0  0.85510  0.57430  0.24760  1.0000 -0.1218440402
C   C503      1.0  0.64490  0.42570  0.74760  1.0000 -0.1218440402
C   C504      1.0  0.14490  0.07430  0.25240  1.0000 -0.1218440402
C   C505      1.0  0.91420  0.47210  0.70950  1.0000 -0.2037571264
C   C506      1.0  0.58580  0.52790  0.20950  1.0000 -0.2037571264
C   C507      1.0  0.08580  0.97210  0.79050  1.0000 -0.2037571264
C   C508      1.0  0.41420  0.02790  0.29050  1.0000 -0.2037571264
C   C509      1.0  0.70950  0.91420  0.47210  1.0000 -0.2037571264
C   C510      1.0  0.20950  0.58580  0.52790  1.0000 -0.2037571264
C   C511      1.0  0.79050  0.08580  0.97210  1.0000 -0.2037571264
C   C512      1.0  0.29050  0.41420  0.02790  1.0000 -0.2037571264
C   C513      1.0  0.47210  0.70950  0.91420  1.0000 -0.2037571264
C   C514      1.0  0.52790  0.20950  0.58580  1.0000 -0.2037571264
C   C515      1.0  0.97210  0.79050  0.08580  1.0000 -0.2037571264
C   C516      1.0  0.02790  0.29050  0.41420  1.0000 -0.2037571264
C   C517      1.0  0.72210  0.66420  0.04050  1.0000 -0.2037571264
C   C518      1.0  0.77790  0.33580  0.54050  1.0000 -0.2037571264
C   C519      1.0  0.22210  0.83580  0.95950  1.0000 -0.2037571264
C   C520      1.0  0.27790  0.16420  0.45950  1.0000 -0.2037571264
C   C521      1.0  0.16420  0.45950  0.27790  1.0000 -0.2037571264
C   C522      1.0  0.83580  0.95950  0.22210  1.0000 -0.2037571264
C   C523      1.0  0.33580  0.54050  0.77790  1.0000 -0.2037571264
C   C524      1.0  0.66420  0.04050  0.72210  1.0000 -0.2037571264
C   C525      1.0  0.95950  0.22210  0.83580  1.0000 -0.2037571264
C   C526      1.0  0.45950  0.27790  0.16420  1.0000 -0.2037571264
C   C527      1.0  0.04050  0.72210  0.66420  1.0000 -0.2037571264
C   C528      1.0  0.54050  0.77790  0.33580  1.0000 -0.2037571264
C   C529      1.0  0.93880  0.48600  0.74640  1.0000 -0.161524251
C   C530      1.0  0.56120  0.51400  0.24640  1.0000 -0.161524251
C   C531      1.0  0.06120  0.98600  0.75360  1.0000 -0.161524251
C   C532      1.0  0.43880  0.01400  0.25360  1.0000 -0.161524251
C   C533      1.0  0.74640  0.93880  0.48600  1.0000 -0.161524251
C   C534      1.0  0.24640  0.56120  0.51400  1.0000 -0.161524251
C   C535      1.0  0.75360  0.06120  0.98600  1.0000 -0.161524251
C   C536      1.0  0.25360  0.43880  0.01400  1.0000 -0.161524251
C   C537      1.0  0.48600  0.74640  0.93880  1.0000 -0.161524251
C   C538      1.0  0.51400  0.24640  0.56120  1.0000 -0.161524251
C   C539      1.0  0.98600  0.75360  0.06120  1.0000 -0.161524251
C   C540      1.0  0.01400  0.25360  0.43880  1.0000 -0.161524251
C   C541      1.0  0.73600  0.68880  0.00360  1.0000 -0.161524251
C   C542      1.0  0.76400  0.31120  0.50360  1.0000 -0.161524251
C   C543      1.0  0.23600  0.81120  0.99640  1.0000 -0.161524251
C   C544      1.0  0.26400  0.18880  0.49640  1.0000 -0.161524251
C   C545      1.0  0.18880  0.49640  0.26400  1.0000 -0.161524251
C   C546      1.0  0.81120  0.99640  0.23600  1.0000 -0.161524251
C   C547      1.0  0.31120  0.50360  0.76400  1.0000 -0.161524251
C   C548      1.0  0.68880  0.00360  0.73600  1.0000 -0.161524251
C   C549      1.0  0.99640  0.23600  0.81120  1.0000 -0.161524251
C   C550      1.0  0.49640  0.26400  0.18880  1.0000 -0.161524251
C   C551      1.0  0.00360  0.73600  0.68880  1.0000 -0.161524251
C   C552      1.0  0.50360  0.76400  0.31120  1.0000 -0.161524251
C   C553      1.0  0.97500  0.20570  0.08410  1.0000 0.0194649539
C   C554      1.0  0.52500  0.79430  0.58410  1.0000 0.0194649539
C   C555      1.0  0.02500  0.70570  0.41590  1.0000 0.0194649539
C   C556      1.0  0.47500  0.29430  0.91590  1.0000 0.0194649539
C   C557      1.0  0.08410  0.97500  0.20570  1.0000 0.0194649539
C   C558      1.0  0.58410  0.52500  0.79430  1.0000 0.0194649539
C   C559      1.0  0.41590  0.02500  0.70570  1.0000 0.0194649539
C   C560      1.0  0.91590  0.47500  0.29430  1.0000 0.0194649539
C   C561      1.0  0.20570  0.08410  0.97500  1.0000 0.0194649539
C   C562      1.0  0.79430  0.58410  0.52500  1.0000 0.0194649539
C   C563      1.0  0.70570  0.41590  0.02500  1.0000 0.0194649539
C   C564      1.0  0.29430  0.91590  0.47500  1.0000 0.0194649539
C   C565      1.0  0.45570  0.72500  0.66590  1.0000 0.0194649539
C   C566      1.0  0.04430  0.27500  0.16590  1.0000 0.0194649539
C   C567      1.0  0.95570  0.77500  0.33410  1.0000 0.0194649539
C   C568      1.0  0.54430  0.22500  0.83410  1.0000 0.0194649539
C   C569      1.0  0.22500  0.83410  0.54430  1.0000 0.0194649539
C   C570      1.0  0.77500  0.33410  0.95570  1.0000 0.0194649539
C   C571      1.0  0.27500  0.16590  0.04430  1.0000 0.0194649539
C   C572      1.0  0.72500  0.66590  0.45570  1.0000 0.0194649539
C   C573      1.0  0.33410  0.95570  0.77500  1.0000 0.0194649539
C   C574      1.0  0.83410  0.54430  0.22500  1.0000 0.0194649539
C   C575      1.0  0.66590  0.45570  0.72500  1.0000 0.0194649539
C   C576      1.0  0.16590  0.04430  0.27500  1.0000 0.0194649539
N   N1        1.0  0.86040  0.48620  0.59160  1.0000 -0.2651076708
N   N2        1.0  0.63960  0.51380  0.09160  1.0000 -0.2651076708
N   N3        1.0  0.13960  0.98620  0.90840  1.0000 -0.2651076708
N   N4        1.0  0.36040  0.01380  0.40840  1.0000 -0.2651076708
N   N5        1.0  0.59160  0.86040  0.48620  1.0000 -0.2651076708
N   N6        1.0  0.09160  0.63960  0.51380  1.0000 -0.2651076708
N   N7        1.0  0.90840  0.13960  0.98620  1.0000 -0.2651076708
N   N8        1.0  0.40840  0.36040  0.01380  1.0000 -0.2651076708
N   N9        1.0  0.48620  0.59160  0.86040  1.0000 -0.2651076708
N   N10       1.0  0.51380  0.09160  0.63960  1.0000 -0.2651076708
N   N11       1.0  0.98620  0.90840  0.13960  1.0000 -0.2651076708
N   N12       1.0  0.01380  0.40840  0.36040  1.0000 -0.2651076708
N   N13       1.0  0.73620  0.61040  0.15840  1.0000 -0.2651076708
N   N14       1.0  0.76380  0.38960  0.65840  1.0000 -0.2651076708
N   N15       1.0  0.23620  0.88960  0.84160  1.0000 -0.2651076708
N   N16       1.0  0.26380  0.11040  0.34160  1.0000 -0.2651076708
N   N17       1.0  0.11040  0.34160  0.26380  1.0000 -0.2651076708
N   N18       1.0  0.88960  0.84160  0.23620  1.0000 -0.2651076708
N   N19       1.0  0.38960  0.65840  0.76380  1.0000 -0.2651076708
N   N20       1.0  0.61040  0.15840  0.73620  1.0000 -0.2651076708
N   N21       1.0  0.84160  0.23620  0.88960  1.0000 -0.2651076708
N   N22       1.0  0.34160  0.26380  0.11040  1.0000 -0.2651076708
N   N23       1.0  0.15840  0.73620  0.61040  1.0000 -0.2651076708
N   N24       1.0  0.65840  0.76380  0.38960  1.0000 -0.2651076708
N   N25       1.0  0.88580  0.43690  0.77380  1.0000 -0.0855336226
N   N26       1.0  0.61420  0.56310  0.27380  1.0000 -0.0855336226
N   N27       1.0  0.11420  0.93690  0.72620  1.0000 -0.0855336226
N   N28       1.0  0.38580  0.06310  0.22620  1.0000 -0.0855336226
N   N29       1.0  0.77380  0.88580  0.43690  1.0000 -0.0855336226
N   N30       1.0  0.27380  0.61420  0.56310  1.0000 -0.0855336226
N   N31       1.0  0.72620  0.11420  0.93690  1.0000 -0.0855336226
N   N32       1.0  0.22620  0.38580  0.06310  1.0000 -0.0855336226
N   N33       1.0  0.43690  0.77380  0.88580  1.0000 -0.0855336226
N   N34       1.0  0.56310  0.27380  0.61420  1.0000 -0.0855336226
N   N35       1.0  0.93690  0.72620  0.11420  1.0000 -0.0855336226
N   N36       1.0  0.06310  0.22620  0.38580  1.0000 -0.0855336226
N   N37       1.0  0.68690  0.63580  0.97620  1.0000 -0.0855336226
N   N38       1.0  0.81310  0.36420  0.47620  1.0000 -0.0855336226
N   N39       1.0  0.18690  0.86420  0.02380  1.0000 -0.0855336226
N   N40       1.0  0.31310  0.13580  0.52380  1.0000 -0.0855336226
N   N41       1.0  0.13580  0.52380  0.31310  1.0000 -0.0855336226
N   N42       1.0  0.86420  0.02380  0.18690  1.0000 -0.0855336226
N   N43       1.0  0.36420  0.47620  0.81310  1.0000 -0.0855336226
N   N44       1.0  0.63580  0.97620  0.68690  1.0000 -0.0855336226
N   N45       1.0  0.02380  0.18690  0.86420  1.0000 -0.0855336226
N   N46       1.0  0.52380  0.31310  0.13580  1.0000 -0.0855336226
N   N47       1.0  0.97620  0.68690  0.63580  1.0000 -0.0855336226
N   N48       1.0  0.47620  0.81310  0.36420  1.0000 -0.0855336226
N   N49       1.0  0.02610  0.15690  0.07300  1.0000 -0.0012514471
N   N50       1.0  0.47390  0.84310  0.57300  1.0000 -0.0012514471
N   N51       1.0  0.97390  0.65690  0.42700  1.0000 -0.0012514471
N   N52       1.0  0.52610  0.34310  0.92700  1.0000 -0.0012514471
N   N53       1.0  0.07300  0.02610  0.15690  1.0000 -0.0012514471
N   N54       1.0  0.57300  0.47390  0.84310  1.0000 -0.0012514471
N   N55       1.0  0.42700  0.97390  0.65690  1.0000 -0.0012514471
N   N56       1.0  0.92700  0.52610  0.34310  1.0000 -0.0012514471
N   N57       1.0  0.15690  0.07300  0.02610  1.0000 -0.0012514471
N   N58       1.0  0.84310  0.57300  0.47390  1.0000 -0.0012514471
N   N59       1.0  0.65690  0.42700  0.97390  1.0000 -0.0012514471
N   N60       1.0  0.34310  0.92700  0.52610  1.0000 -0.0012514471
N   N61       1.0  0.40690  0.77610  0.67700  1.0000 -0.0012514471
N   N62       1.0  0.09310  0.22390  0.17700  1.0000 -0.0012514471
N   N63       1.0  0.90690  0.72390  0.32300  1.0000 -0.0012514471
N   N64       1.0  0.59310  0.27610  0.82300  1.0000 -0.0012514471
N   N65       1.0  0.27610  0.82300  0.59310  1.0000 -0.0012514471
N   N66       1.0  0.72390  0.32300  0.90690  1.0000 -0.0012514471
N   N67       1.0  0.22390  0.17700  0.09310  1.0000 -0.0012514471
N   N68       1.0  0.77610  0.67700  0.40690  1.0000 -0.0012514471
N   N69       1.0  0.32300  0.90690  0.72390  1.0000 -0.0012514471
N   N70       1.0  0.82300  0.59310  0.27610  1.0000 -0.0012514471
N   N71       1.0  0.67700  0.40690  0.77610  1.0000 -0.0012514471
N   N72       1.0  0.17700  0.09310  0.22390  1.0000 -0.0012514471
N   N73       1.0  0.91760  0.50960  0.54820  1.0000 0.0194649539
N   N74       1.0  0.58240  0.49040  0.04820  1.0000 0.0194649539
N   N75       1.0  0.08240  0.00960  0.95180  1.0000 0.0194649539
N   N76       1.0  0.41760  0.99040  0.45180  1.0000 0.0194649539
N   N77       1.0  0.54820  0.91760  0.50960  1.0000 0.0194649539
N   N78       1.0  0.04820  0.58240  0.49040  1.0000 0.0194649539
N   N79       1.0  0.95180  0.08240  0.00960  1.0000 0.0194649539
N   N80       1.0  0.45180  0.41760  0.99040  1.0000 0.0194649539
N   N81       1.0  0.50960  0.54820  0.91760  1.0000 0.0194649539
N   N82       1.0  0.49040  0.04820  0.58240  1.0000 0.0194649539
N   N83       1.0  0.00960  0.95180  0.08240  1.0000 0.0194649539
N   N84       1.0  0.99040  0.45180  0.41760  1.0000 0.0194649539
N   N85       1.0  0.75960  0.66760  0.20180  1.0000 0.0194649539
N   N86       1.0  0.74040  0.33240  0.70180  1.0000 0.0194649539
N   N87       1.0  0.25960  0.83240  0.79820  1.0000 0.0194649539
N   N88       1.0  0.24040  0.16760  0.29820  1.0000 0.0194649539
N   N89       1.0  0.16760  0.29820  0.24040  1.0000 0.0194649539
N   N90       1.0  0.83240  0.79820  0.25960  1.0000 0.0194649539
N   N91       1.0  0.33240  0.70180  0.74040  1.0000 0.0194649539
N   N92       1.0  0.66760  0.20180  0.75960  1.0000 0.0194649539
N   N93       1.0  0.79820  0.25960  0.83240  1.0000 0.0194649539
N   N94       1.0  0.29820  0.24040  0.16760  1.0000 0.0194649539
N   N95       1.0  0.20180  0.75960  0.66760  1.0000 0.0194649539
N   N96       1.0  0.70180  0.74040  0.33240  1.0000 0.0194649539
N   N97       1.0  0.98870  0.21570  0.04390  1.0000 -0.2773473281
N   N98       1.0  0.51130  0.78430  0.54390  1.0000 -0.2773473281
N   N99       1.0  0.01130  0.71570  0.45610  1.0000 -0.2773473281
N   N100      1.0  0.48870  0.28430  0.95610  1.0000 -0.2773473281
N   N101      1.0  0.04390  0.98870  0.21570  1.0000 -0.2773473281
N   N102      1.0  0.54390  0.51130  0.78430  1.0000 -0.2773473281
N   N103      1.0  0.45610  0.01130  0.71570  1.0000 -0.2773473281
N   N104      1.0  0.95610  0.48870  0.28430  1.0000 -0.2773473281
N   N105      1.0  0.21570  0.04390  0.98870  1.0000 -0.2773473281
N   N106      1.0  0.78430  0.54390  0.51130  1.0000 -0.2773473281
N   N107      1.0  0.71570  0.45610  0.01130  1.0000 -0.2773473281
N   N108      1.0  0.28430  0.95610  0.48870  1.0000 -0.2773473281
N   N109      1.0  0.46570  0.73870  0.70610  1.0000 -0.2773473281
N   N110      1.0  0.03430  0.26130  0.20610  1.0000 -0.2773473281
N   N111      1.0  0.96570  0.76130  0.29390  1.0000 -0.2773473281
N   N112      1.0  0.53430  0.23870  0.79390  1.0000 -0.2773473281
N   N113      1.0  0.23870  0.79390  0.53430  1.0000 -0.2773473281
N   N114      1.0  0.76130  0.29390  0.96570  1.0000 -0.2773473281
N   N115      1.0  0.26130  0.20610  0.03430  1.0000 -0.2773473281
N   N116      1.0  0.73870  0.70610  0.46570  1.0000 -0.2773473281
N   N117      1.0  0.29390  0.96570  0.76130  1.0000 -0.2773473281
N   N118      1.0  0.79390  0.53430  0.23870  1.0000 -0.2773473281
N   N119      1.0  0.70610  0.46570  0.73870  1.0000 -0.2773473281
N   N120      1.0  0.20610  0.03430  0.26130  1.0000 -0.2773473281
O   O1        1.0  0.81270  0.47720  0.68690  1.0000 -0.5615582658
O   O2        1.0  0.68730  0.52280  0.18690  1.0000 -0.5615582658
O   O3        1.0  0.18730  0.97720  0.81310  1.0000 -0.5615582658
O   O4        1.0  0.31270  0.02280  0.31310  1.0000 -0.5615582658
O   O5        1.0  0.68690  0.81270  0.47720  1.0000 -0.5615582658
O   O6        1.0  0.18690  0.68730  0.52280  1.0000 -0.5615582658
O   O7        1.0  0.81310  0.18730  0.97720  1.0000 -0.5615582658
O   O8        1.0  0.31310  0.31270  0.02280  1.0000 -0.5615582658
O   O9        1.0  0.47720  0.68690  0.81270  1.0000 -0.5615582658
O   O10       1.0  0.52280  0.18690  0.68730  1.0000 -0.5615582658
O   O11       1.0  0.97720  0.81310  0.18730  1.0000 -0.5615582658
O   O12       1.0  0.02280  0.31310  0.31270  1.0000 -0.5615582658
O   O13       1.0  0.72720  0.56270  0.06310  1.0000 -0.5615582658
O   O14       1.0  0.77280  0.43730  0.56310  1.0000 -0.5615582658
O   O15       1.0  0.22720  0.93730  0.93690  1.0000 -0.5615582658
O   O16       1.0  0.27280  0.06270  0.43690  1.0000 -0.5615582658
O   O17       1.0  0.06270  0.43690  0.27280  1.0000 -0.5615582658
O   O18       1.0  0.93730  0.93690  0.22720  1.0000 -0.5615582658
O   O19       1.0  0.43730  0.56310  0.77280  1.0000 -0.5615582658
O   O20       1.0  0.56270  0.06310  0.72720  1.0000 -0.5615582658
O   O21       1.0  0.93690  0.22720  0.93730  1.0000 -0.5615582658
O   O22       1.0  0.43690  0.27280  0.06270  1.0000 -0.5615582658
O   O23       1.0  0.06310  0.72720  0.56270  1.0000 -0.5615582658
O   O24       1.0  0.56310  0.77280  0.43730  1.0000 -0.5615582658
O   O25       1.0  0.82800  0.44240  0.99890  1.0000 -0.5392679068
O   O26       1.0  0.67200  0.55760  0.49890  1.0000 -0.5392679068
O   O27       1.0  0.17200  0.94240  0.50110  1.0000 -0.5392679068
O   O28       1.0  0.32800  0.05760  0.00110  1.0000 -0.5392679068
O   O29       1.0  0.99890  0.82800  0.44240  1.0000 -0.5392679068
O   O30       1.0  0.49890  0.67200  0.55760  1.0000 -0.5392679068
O   O31       1.0  0.50110  0.17200  0.94240  1.0000 -0.5392679068
O   O32       1.0  0.00110  0.32800  0.05760  1.0000 -0.5392679068
O   O33       1.0  0.44240  0.99890  0.82800  1.0000 -0.5392679068
O   O34       1.0  0.55760  0.49890  0.67200  1.0000 -0.5392679068
O   O35       1.0  0.94240  0.50110  0.17200  1.0000 -0.5392679068
O   O36       1.0  0.05760  0.00110  0.32800  1.0000 -0.5392679068
O   O37       1.0  0.69240  0.57800  0.75110  1.0000 -0.5392679068
O   O38       1.0  0.80760  0.42200  0.25110  1.0000 -0.5392679068
O   O39       1.0  0.19240  0.92200  0.24890  1.0000 -0.5392679068
O   O40       1.0  0.30760  0.07800  0.74890  1.0000 -0.5392679068
O   O41       1.0  0.07800  0.74890  0.30760  1.0000 -0.5392679068
O   O42       1.0  0.92200  0.24890  0.19240  1.0000 -0.5392679068
O   O43       1.0  0.42200  0.25110  0.80760  1.0000 -0.5392679068
O   O44       1.0  0.57800  0.75110  0.69240  1.0000 -0.5392679068
O   O45       1.0  0.24890  0.19240  0.92200  1.0000 -0.5392679068
O   O46       1.0  0.74890  0.30760  0.07800  1.0000 -0.5392679068
O   O47       1.0  0.75110  0.69240  0.57800  1.0000 -0.5392679068
O   O48       1.0  0.25110  0.80760  0.42200  1.0000 -0.5392679068
O   O49       1.0  0.79740  0.48350  0.94270  1.0000 -0.5732002202
O   O50       1.0  0.70260  0.51650  0.44270  1.0000 -0.5732002202
O   O51       1.0  0.20260  0.98350  0.55730  1.0000 -0.5732002202
O   O52       1.0  0.29740  0.01650  0.05730  1.0000 -0.5732002202
O   O53       1.0  0.94270  0.79740  0.48350  1.0000 -0.5732002202
O   O54       1.0  0.44270  0.70260  0.51650  1.0000 -0.5732002202
O   O55       1.0  0.55730  0.20260  0.98350  1.0000 -0.5732002202
O   O56       1.0  0.05730  0.29740  0.01650  1.0000 -0.5732002202
O   O57       1.0  0.48350  0.94270  0.79740  1.0000 -0.5732002202
O   O58       1.0  0.51650  0.44270  0.70260  1.0000 -0.5732002202
O   O59       1.0  0.98350  0.55730  0.20260  1.0000 -0.5732002202
O   O60       1.0  0.01650  0.05730  0.29740  1.0000 -0.5732002202
O   O61       1.0  0.73350  0.54740  0.80730  1.0000 -0.5732002202
O   O62       1.0  0.76650  0.45260  0.30730  1.0000 -0.5732002202
O   O63       1.0  0.23350  0.95260  0.19270  1.0000 -0.5732002202
O   O64       1.0  0.26650  0.04740  0.69270  1.0000 -0.5732002202
O   O65       1.0  0.04740  0.69270  0.26650  1.0000 -0.5732002202
O   O66       1.0  0.95260  0.19270  0.23350  1.0000 -0.5732002202
O   O67       1.0  0.45260  0.30730  0.76650  1.0000 -0.5732002202
O   O68       1.0  0.54740  0.80730  0.73350  1.0000 -0.5732002202
O   O69       1.0  0.19270  0.23350  0.95260  1.0000 -0.5732002202
O   O70       1.0  0.69270  0.26650  0.04740  1.0000 -0.5732002202
O   O71       1.0  0.80730  0.73350  0.54740  1.0000 -0.5732002202
O   O72       1.0  0.30730  0.76650  0.45260  1.0000 -0.5732002202
O   O73       1.0  0.82660  0.39050  0.78560  1.0000 -0.5327087733
O   O74       1.0  0.67340  0.60950  0.28560  1.0000 -0.5327087733
O   O75       1.0  0.17340  0.89050  0.71440  1.0000 -0.5327087733
O   O76       1.0  0.32660  0.10950  0.21440  1.0000 -0.5327087733
O   O77       1.0  0.78560  0.82660  0.39050  1.0000 -0.5327087733
O   O78       1.0  0.28560  0.67340  0.60950  1.0000 -0.5327087733
O   O79       1.0  0.71440  0.17340  0.89050  1.0000 -0.5327087733
O   O80       1.0  0.21440  0.32660  0.10950  1.0000 -0.5327087733
O   O81       1.0  0.39050  0.78560  0.82660  1.0000 -0.5327087733
O   O82       1.0  0.60950  0.28560  0.67340  1.0000 -0.5327087733
O   O83       1.0  0.89050  0.71440  0.17340  1.0000 -0.5327087733
O   O84       1.0  0.10950  0.21440  0.32660  1.0000 -0.5327087733
O   O85       1.0  0.64050  0.57660  0.96440  1.0000 -0.5327087733
O   O86       1.0  0.85950  0.42340  0.46440  1.0000 -0.5327087733
O   O87       1.0  0.14050  0.92340  0.03560  1.0000 -0.5327087733
O   O88       1.0  0.35950  0.07660  0.53560  1.0000 -0.5327087733
O   O89       1.0  0.07660  0.53560  0.35950  1.0000 -0.5327087733
O   O90       1.0  0.92340  0.03560  0.14050  1.0000 -0.5327087733
O   O91       1.0  0.42340  0.46440  0.85950  1.0000 -0.5327087733
O   O92       1.0  0.57660  0.96440  0.64050  1.0000 -0.5327087733
O   O93       1.0  0.03560  0.14050  0.92340  1.0000 -0.5327087733
O   O94       1.0  0.53560  0.35950  0.07660  1.0000 -0.5327087733
O   O95       1.0  0.96440  0.64050  0.57660  1.0000 -0.5327087733
O   O96       1.0  0.46440  0.85950  0.42340  1.0000 -0.5327087733
O   O97       1.0  0.81550  0.49080  0.75980  1.0000 -0.482531871
O   O98       1.0  0.68450  0.50920  0.25980  1.0000 -0.482531871
O   O99       1.0  0.18450  0.99080  0.74020  1.0000 -0.482531871
O   O100      1.0  0.31550  0.00920  0.24020  1.0000 -0.482531871
O   O101      1.0  0.75980  0.81550  0.49080  1.0000 -0.482531871
O   O102      1.0  0.25980  0.68450  0.50920  1.0000 -0.482531871
O   O103      1.0  0.74020  0.18450  0.99080  1.0000 -0.482531871
O   O104      1.0  0.24020  0.31550  0.00920  1.0000 -0.482531871
O   O105      1.0  0.49080  0.75980  0.81550  1.0000 -0.482531871
O   O106      1.0  0.50920  0.25980  0.68450  1.0000 -0.482531871
O   O107      1.0  0.99080  0.74020  0.18450  1.0000 -0.482531871
O   O108      1.0  0.00920  0.24020  0.31550  1.0000 -0.482531871
O   O109      1.0  0.74080  0.56550  0.99020  1.0000 -0.482531871
O   O110      1.0  0.75920  0.43450  0.49020  1.0000 -0.482531871
O   O111      1.0  0.24080  0.93450  0.00980  1.0000 -0.482531871
O   O112      1.0  0.25920  0.06550  0.50980  1.0000 -0.482531871
O   O113      1.0  0.06550  0.50980  0.25920  1.0000 -0.482531871
O   O114      1.0  0.93450  0.00980  0.24080  1.0000 -0.482531871
O   O115      1.0  0.43450  0.49020  0.75920  1.0000 -0.482531871
O   O116      1.0  0.56550  0.99020  0.74080  1.0000 -0.482531871
O   O117      1.0  0.00980  0.24080  0.93450  1.0000 -0.482531871
O   O118      1.0  0.50980  0.25920  0.06550  1.0000 -0.482531871
O   O119      1.0  0.99020  0.74080  0.56550  1.0000 -0.482531871
O   O120      1.0  0.49020  0.75920  0.43450  1.0000 -0.482531871
O   O121      1.0  0.95380  0.33700  0.96360  1.0000 -0.4742671157
O   O122      1.0  0.54620  0.66300  0.46360  1.0000 -0.4742671157
O   O123      1.0  0.04620  0.83700  0.53640  1.0000 -0.4742671157
O   O124      1.0  0.45380  0.16300  0.03640  1.0000 -0.4742671157
O   O125      1.0  0.96360  0.95380  0.33700  1.0000 -0.4742671157
O   O126      1.0  0.46360  0.54620  0.66300  1.0000 -0.4742671157
O   O127      1.0  0.53640  0.04620  0.83700  1.0000 -0.4742671157
O   O128      1.0  0.03640  0.45380  0.16300  1.0000 -0.4742671157
O   O129      1.0  0.33700  0.96360  0.95380  1.0000 -0.4742671157
O   O130      1.0  0.66300  0.46360  0.54620  1.0000 -0.4742671157
O   O131      1.0  0.83700  0.53640  0.04620  1.0000 -0.4742671157
O   O132      1.0  0.16300  0.03640  0.45380  1.0000 -0.4742671157
O   O133      1.0  0.58700  0.70380  0.78640  1.0000 -0.4742671157
O   O134      1.0  0.91300  0.29620  0.28640  1.0000 -0.4742671157
O   O135      1.0  0.08700  0.79620  0.21360  1.0000 -0.4742671157
O   O136      1.0  0.41300  0.20380  0.71360  1.0000 -0.4742671157
O   O137      1.0  0.20380  0.71360  0.41300  1.0000 -0.4742671157
O   O138      1.0  0.79620  0.21360  0.08700  1.0000 -0.4742671157
O   O139      1.0  0.29620  0.28640  0.91300  1.0000 -0.4742671157
O   O140      1.0  0.70380  0.78640  0.58700  1.0000 -0.4742671157
O   O141      1.0  0.21360  0.08700  0.79620  1.0000 -0.4742671157
O   O142      1.0  0.71360  0.41300  0.20380  1.0000 -0.4742671157
O   O143      1.0  0.78640  0.58700  0.70380  1.0000 -0.4742671157
O   O144      1.0  0.28640  0.91300  0.29620  1.0000 -0.4742671157
O   O145      1.0  0.98380  0.33900  0.89680  1.0000 -0.5490455372
O   O146      1.0  0.51620  0.66100  0.39680  1.0000 -0.5490455372
O   O147      1.0  0.01620  0.83900  0.60320  1.0000 -0.5490455372
O   O148      1.0  0.48380  0.16100  0.10320  1.0000 -0.5490455372
O   O149      1.0  0.89680  0.98380  0.33900  1.0000 -0.5490455372
O   O150      1.0  0.39680  0.51620  0.66100  1.0000 -0.5490455372
O   O151      1.0  0.60320  0.01620  0.83900  1.0000 -0.5490455372
O   O152      1.0  0.10320  0.48380  0.16100  1.0000 -0.5490455372
O   O153      1.0  0.33900  0.89680  0.98380  1.0000 -0.5490455372
O   O154      1.0  0.66100  0.39680  0.51620  1.0000 -0.5490455372
O   O155      1.0  0.83900  0.60320  0.01620  1.0000 -0.5490455372
O   O156      1.0  0.16100  0.10320  0.48380  1.0000 -0.5490455372
O   O157      1.0  0.58900  0.73380  0.85320  1.0000 -0.5490455372
O   O158      1.0  0.91100  0.26620  0.35320  1.0000 -0.5490455372
O   O159      1.0  0.08900  0.76620  0.14680  1.0000 -0.5490455372
O   O160      1.0  0.41100  0.23380  0.64680  1.0000 -0.5490455372
O   O161      1.0  0.23380  0.64680  0.41100  1.0000 -0.5490455372
O   O162      1.0  0.76620  0.14680  0.08900  1.0000 -0.5490455372
O   O163      1.0  0.26620  0.35320  0.91100  1.0000 -0.5490455372
O   O164      1.0  0.73380  0.85320  0.58900  1.0000 -0.5490455372
O   O165      1.0  0.14680  0.08900  0.76620  1.0000 -0.5490455372
O   O166      1.0  0.64680  0.41100  0.23380  1.0000 -0.5490455372
O   O167      1.0  0.85320  0.58900  0.73380  1.0000 -0.5490455372
O   O168      1.0  0.35320  0.91100  0.26620  1.0000 -0.5490455372
O   O169      1.0  0.90340  0.28540  0.03360  1.0000 -0.2335597928
O   O170      1.0  0.59660  0.71460  0.53360  1.0000 -0.2358023915
O   O171      1.0  0.09660  0.78540  0.46640  1.0000 -0.2358023915
O   O172      1.0  0.40340  0.21460  0.96640  1.0000 -0.2358023915
O   O173      1.0  0.03360  0.90340  0.28540  1.0000 -0.2358023915
O   O174      1.0  0.53360  0.59660  0.71460  1.0000 -0.2358023915
O   O175      1.0  0.46640  0.09660  0.78540  1.0000 -0.2358023915
O   O176      1.0  0.96640  0.40340  0.21460  1.0000 -0.2335597928
O   O177      1.0  0.28540  0.03360  0.90340  1.0000 -0.2358023915
O   O178      1.0  0.71460  0.53360  0.59660  1.0000 -0.2335597928
O   O179      1.0  0.78540  0.46640  0.09660  1.0000 -0.2335597928
O   O180      1.0  0.21460  0.96640  0.40340  1.0000 -0.2358023915
O   O181      1.0  0.53540  0.65340  0.71640  1.0000 -0.2358023915
O   O182      1.0  0.96460  0.34660  0.21640  1.0000 -0.2335597928
O   O183      1.0  0.03540  0.84660  0.28360  1.0000 -0.2358023915
O   O184      1.0  0.46460  0.15340  0.78360  1.0000 -0.2358023915
O   O185      1.0  0.15340  0.78360  0.46460  1.0000 -0.2358023915
O   O186      1.0  0.84660  0.28360  0.03540  1.0000 -0.2335597928
O   O187      1.0  0.34660  0.21640  0.96460  1.0000 -0.2358023915
O   O188      1.0  0.65340  0.71640  0.53540  1.0000 -0.2358023915
O   O189      1.0  0.28360  0.03540  0.84660  1.0000 -0.2358023915
O   O190      1.0  0.78360  0.46460  0.15340  1.0000 -0.2335597928
O   O191      1.0  0.71640  0.53540  0.65340  1.0000 -0.2335597928
O   O192      1.0  0.21640  0.96460  0.34660  1.0000 -0.2358023915
