# DDEC6 charges by PACMAN v1.1 (https://github.com/mtap-research/PACMAN-charge/)
data_2015[Y][fcu]3[ASR]1
_chemical_formula_sum              "Y24 H48 C96 O128"
_cell_length_a       18.5353
_cell_length_b       18.5353
_cell_length_c       18.5353
_cell_angle_alpha    90
_cell_angle_beta     90
_cell_angle_gamma    90

_symmetry_space_group_name_H-M    "P 1"
_symmetry_Int_Tables_number       1

loop_
  _symmetry_equiv_pos_as_xyz
  'x, y, z'

loop_
  _atom_site_type_symbol
  _atom_site_label
  _atom_site_symmetry_multiplicity
  _atom_site_fract_x
  _atom_site_fract_y
  _atom_site_fract_z
  _atom_site_occupancy
  _atom_site_charge
Y   Y1        1.0  0.73683  0.23770  0.60358  1.0000 1.909881164
Y   Y2        1.0  0.26317  0.76230  0.60358  1.0000 1.909881164
Y   Y3        1.0  0.26317  0.23770  0.39642  1.0000 1.909881164
Y   Y4        1.0  0.73683  0.76230  0.39642  1.0000 1.909881164
Y   Y5        1.0  0.60358  0.73683  0.23770  1.0000 1.909881164
Y   Y6        1.0  0.60358  0.26317  0.76230  1.0000 1.909881164
Y   Y7        1.0  0.39642  0.26317  0.23770  1.0000 1.909881164
Y   Y8        1.0  0.39642  0.73683  0.76230  1.0000 1.909881164
Y   Y9        1.0  0.23770  0.60358  0.73683  1.0000 1.909881164
Y   Y10       1.0  0.76230  0.60358  0.26317  1.0000 1.909881164
Y   Y11       1.0  0.23770  0.39642  0.26317  1.0000 1.909881164
Y   Y12       1.0  0.76230  0.39642  0.73683  1.0000 1.909881164
Y   Y13       1.0  0.76317  0.26230  0.89642  1.0000 1.909881164
Y   Y14       1.0  0.23683  0.73770  0.89642  1.0000 1.909881164
Y   Y15       1.0  0.23683  0.26230  0.10358  1.0000 1.909881164
Y   Y16       1.0  0.76317  0.73770  0.10358  1.0000 1.909881164
Y   Y17       1.0  0.89642  0.76317  0.26230  1.0000 1.909881164
Y   Y18       1.0  0.89642  0.23683  0.73770  1.0000 1.909881164
Y   Y19       1.0  0.10358  0.23683  0.26230  1.0000 1.909881164
Y   Y20       1.0  0.10358  0.76317  0.73770  1.0000 1.909881164
Y   Y21       1.0  0.26230  0.89642  0.76317  1.0000 1.909881164
Y   Y22       1.0  0.73770  0.89642  0.23683  1.0000 1.909881164
Y   Y23       1.0  0.26230  0.10358  0.23683  1.0000 1.909881164
Y   Y24       1.0  0.73770  0.10358  0.76317  1.0000 1.909881164
H   H1        1.0  0.44760  0.25140  0.55290  1.0000 0.1640810464
H   H2        1.0  0.55240  0.74860  0.55290  1.0000 0.1640810464
H   H3        1.0  0.55240  0.25140  0.44710  1.0000 0.1640810464
H   H4        1.0  0.44760  0.74860  0.44710  1.0000 0.1640810464
H   H5        1.0  0.55290  0.44760  0.25140  1.0000 0.1640810464
H   H6        1.0  0.55290  0.55240  0.74860  1.0000 0.1640810464
H   H7        1.0  0.44710  0.55240  0.25140  1.0000 0.1640810464
H   H8        1.0  0.44710  0.44760  0.74860  1.0000 0.1640810464
H   H9        1.0  0.25140  0.55290  0.44760  1.0000 0.1640810464
H   H10       1.0  0.74860  0.55290  0.55240  1.0000 0.1640810464
H   H11       1.0  0.25140  0.44710  0.55240  1.0000 0.1640810464
H   H12       1.0  0.74860  0.44710  0.44760  1.0000 0.1640810464
H   H13       1.0  0.05240  0.24860  0.94710  1.0000 0.1640810464
H   H14       1.0  0.94760  0.75140  0.94710  1.0000 0.1640810464
H   H15       1.0  0.94760  0.24860  0.05290  1.0000 0.1640810464
H   H16       1.0  0.05240  0.75140  0.05290  1.0000 0.1640810464
H   H17       1.0  0.94710  0.05240  0.24860  1.0000 0.1640810464
H   H18       1.0  0.94710  0.94760  0.75140  1.0000 0.1640810464
H   H19       1.0  0.05290  0.94760  0.24860  1.0000 0.1640810464
H   H20       1.0  0.05290  0.05240  0.75140  1.0000 0.1640810464
H   H21       1.0  0.24860  0.94710  0.05240  1.0000 0.1640810464
H   H22       1.0  0.75140  0.94710  0.94760  1.0000 0.1640810464
H   H23       1.0  0.24860  0.05290  0.94760  1.0000 0.1640810464
H   H24       1.0  0.75140  0.05290  0.05240  1.0000 0.1640810464
H   H25       1.0  0.72390  0.94910  0.55380  1.0000 0.1685520305
H   H26       1.0  0.27610  0.05090  0.55380  1.0000 0.1685520305
H   H27       1.0  0.27610  0.94910  0.44620  1.0000 0.1685520305
H   H28       1.0  0.72390  0.05090  0.44620  1.0000 0.1685520305
H   H29       1.0  0.55380  0.72390  0.94910  1.0000 0.1685520305
H   H30       1.0  0.55380  0.27610  0.05090  1.0000 0.1685520305
H   H31       1.0  0.44620  0.27610  0.94910  1.0000 0.1685520305
H   H32       1.0  0.44620  0.72390  0.05090  1.0000 0.1685520305
H   H33       1.0  0.94910  0.55380  0.72390  1.0000 0.1685520305
H   H34       1.0  0.05090  0.55380  0.27610  1.0000 0.1685520305
H   H35       1.0  0.94910  0.44620  0.27610  1.0000 0.1685520305
H   H36       1.0  0.05090  0.44620  0.72390  1.0000 0.1685520305
H   H37       1.0  0.77610  0.55090  0.94620  1.0000 0.1685520305
H   H38       1.0  0.22390  0.44910  0.94620  1.0000 0.1685520305
H   H39       1.0  0.22390  0.55090  0.05380  1.0000 0.1685520305
H   H40       1.0  0.77610  0.44910  0.05380  1.0000 0.1685520305
H   H41       1.0  0.94620  0.77610  0.55090  1.0000 0.1685520305
H   H42       1.0  0.94620  0.22390  0.44910  1.0000 0.1685520305
H   H43       1.0  0.05380  0.22390  0.55090  1.0000 0.1685520305
H   H44       1.0  0.05380  0.77610  0.44910  1.0000 0.1685520305
H   H45       1.0  0.55090  0.94620  0.77610  1.0000 0.1685520305
H   H46       1.0  0.44910  0.94620  0.22390  1.0000 0.1685520305
H   H47       1.0  0.55090  0.05380  0.22390  1.0000 0.1685520305
H   H48       1.0  0.44910  0.05380  0.77610  1.0000 0.1685520305
C   C1        1.0  0.72660  0.05900  0.58800  1.0000 0.6724761557
C   C2        1.0  0.27340  0.94100  0.58800  1.0000 0.6724761557
C   C3        1.0  0.27340  0.05900  0.41200  1.0000 0.6724761557
C   C4        1.0  0.72660  0.94100  0.41200  1.0000 0.6724761557
C   C5        1.0  0.58800  0.72660  0.05900  1.0000 0.6724761557
C   C6        1.0  0.58800  0.27340  0.94100  1.0000 0.6724761557
C   C7        1.0  0.41200  0.27340  0.05900  1.0000 0.6724761557
C   C8        1.0  0.41200  0.72660  0.94100  1.0000 0.6724761557
C   C9        1.0  0.05900  0.58800  0.72660  1.0000 0.6724761557
C   C10       1.0  0.94100  0.58800  0.27340  1.0000 0.6724761557
C   C11       1.0  0.05900  0.41200  0.27340  1.0000 0.6724761557
C   C12       1.0  0.94100  0.41200  0.72660  1.0000 0.6724761557
C   C13       1.0  0.77340  0.44100  0.91200  1.0000 0.6724761557
C   C14       1.0  0.22660  0.55900  0.91200  1.0000 0.6724761557
C   C15       1.0  0.22660  0.44100  0.08800  1.0000 0.6724761557
C   C16       1.0  0.77340  0.55900  0.08800  1.0000 0.6724761557
C   C17       1.0  0.91200  0.77340  0.44100  1.0000 0.6724761557
C   C18       1.0  0.91200  0.22660  0.55900  1.0000 0.6724761557
C   C19       1.0  0.08800  0.22660  0.44100  1.0000 0.6724761557
C   C20       1.0  0.08800  0.77340  0.55900  1.0000 0.6724761557
C   C21       1.0  0.44100  0.91200  0.77340  1.0000 0.6724761557
C   C22       1.0  0.55900  0.91200  0.22660  1.0000 0.6724761557
C   C23       1.0  0.44100  0.08800  0.22660  1.0000 0.6724761557
C   C24       1.0  0.55900  0.08800  0.77340  1.0000 0.6724761557
C   C25       1.0  0.49460  0.25140  0.53550  1.0000 -0.1636911562
C   C26       1.0  0.50540  0.74860  0.53550  1.0000 -0.1636911562
C   C27       1.0  0.50540  0.25140  0.46450  1.0000 -0.1636911562
C   C28       1.0  0.49460  0.74860  0.46450  1.0000 -0.1636911562
C   C29       1.0  0.53550  0.49460  0.25140  1.0000 -0.1636911562
C   C30       1.0  0.53550  0.50540  0.74860  1.0000 -0.1636911562
C   C31       1.0  0.46450  0.50540  0.25140  1.0000 -0.1636911562
C   C32       1.0  0.46450  0.49460  0.74860  1.0000 -0.1636911562
C   C33       1.0  0.25140  0.53550  0.49460  1.0000 -0.1636911562
C   C34       1.0  0.74860  0.53550  0.50540  1.0000 -0.1636911562
C   C35       1.0  0.25140  0.46450  0.50540  1.0000 -0.1636911562
C   C36       1.0  0.74860  0.46450  0.49460  1.0000 -0.1636911562
C   C37       1.0  0.00540  0.24860  0.96450  1.0000 -0.1636911562
C   C38       1.0  0.99460  0.75140  0.96450  1.0000 -0.1636911562
C   C39       1.0  0.99460  0.24860  0.03550  1.0000 -0.1636911562
C   C40       1.0  0.00540  0.75140  0.03550  1.0000 -0.1636911562
C   C41       1.0  0.96450  0.00540  0.24860  1.0000 -0.1636911562
C   C42       1.0  0.96450  0.99460  0.75140  1.0000 -0.1636911562
C   C43       1.0  0.03550  0.99460  0.24860  1.0000 -0.1636911562
C   C44       1.0  0.03550  0.00540  0.75140  1.0000 -0.1636911562
C   C45       1.0  0.24860  0.96450  0.00540  1.0000 -0.1636911562
C   C46       1.0  0.75140  0.96450  0.99460  1.0000 -0.1636911562
C   C47       1.0  0.24860  0.03550  0.99460  1.0000 -0.1636911562
C   C48       1.0  0.75140  0.03550  0.00540  1.0000 -0.1636911562
C   C49       1.0  0.72500  0.99570  0.53530  1.0000 -0.1542638106
C   C50       1.0  0.27500  0.00430  0.53530  1.0000 -0.1542638106
C   C51       1.0  0.27500  0.99570  0.46470  1.0000 -0.1542638106
C   C52       1.0  0.72500  0.00430  0.46470  1.0000 -0.1542638106
C   C53       1.0  0.53530  0.72500  0.99570  1.0000 -0.1542638106
C   C54       1.0  0.53530  0.27500  0.00430  1.0000 -0.1542638106
C   C55       1.0  0.46470  0.27500  0.99570  1.0000 -0.1542638106
C   C56       1.0  0.46470  0.72500  0.00430  1.0000 -0.1542638106
C   C57       1.0  0.99570  0.53530  0.72500  1.0000 -0.1542638106
C   C58       1.0  0.00430  0.53530  0.27500  1.0000 -0.1542638106
C   C59       1.0  0.99570  0.46470  0.27500  1.0000 -0.1542638106
C   C60       1.0  0.00430  0.46470  0.72500  1.0000 -0.1542638106
C   C61       1.0  0.77500  0.50430  0.96470  1.0000 -0.1542638106
C   C62       1.0  0.22500  0.49570  0.96470  1.0000 -0.1542638106
C   C63       1.0  0.22500  0.50430  0.03530  1.0000 -0.1542638106
C   C64       1.0  0.77500  0.49570  0.03530  1.0000 -0.1542638106
C   C65       1.0  0.96470  0.77500  0.50430  1.0000 -0.1542638106
C   C66       1.0  0.96470  0.22500  0.49570  1.0000 -0.1542638106
C   C67       1.0  0.03530  0.22500  0.50430  1.0000 -0.1542638106
C   C68       1.0  0.03530  0.77500  0.49570  1.0000 -0.1542638106
C   C69       1.0  0.50430  0.96470  0.77500  1.0000 -0.1542638106
C   C70       1.0  0.49570  0.96470  0.22500  1.0000 -0.1542638106
C   C71       1.0  0.50430  0.03530  0.22500  1.0000 -0.1542638106
C   C72       1.0  0.49570  0.03530  0.77500  1.0000 -0.1542638106
C   C73       1.0  0.55620  0.25130  0.58870  1.0000 0.6724761557
C   C74       1.0  0.44380  0.74870  0.58870  1.0000 0.6724761557
C   C75       1.0  0.44380  0.25130  0.41130  1.0000 0.6724761557
C   C76       1.0  0.55620  0.74870  0.41130  1.0000 0.6724761557
C   C77       1.0  0.58870  0.55620  0.25130  1.0000 0.6724761557
C   C78       1.0  0.58870  0.44380  0.74870  1.0000 0.6724761557
C   C79       1.0  0.41130  0.44380  0.25130  1.0000 0.6724761557
C   C80       1.0  0.41130  0.55620  0.74870  1.0000 0.6724761557
C   C81       1.0  0.25130  0.58870  0.55620  1.0000 0.6724761557
C   C82       1.0  0.74870  0.58870  0.44380  1.0000 0.6724761557
C   C83       1.0  0.25130  0.41130  0.44380  1.0000 0.6724761557
C   C84       1.0  0.74870  0.41130  0.55620  1.0000 0.6724761557
C   C85       1.0  0.94380  0.24870  0.91130  1.0000 0.6724761557
C   C86       1.0  0.05620  0.75130  0.91130  1.0000 0.6724761557
C   C87       1.0  0.05620  0.24870  0.08870  1.0000 0.6724761557
C   C88       1.0  0.94380  0.75130  0.08870  1.0000 0.6724761557
C   C89       1.0  0.91130  0.94380  0.24870  1.0000 0.6724761557
C   C90       1.0  0.91130  0.05620  0.75130  1.0000 0.6724761557
C   C91       1.0  0.08870  0.05620  0.24870  1.0000 0.6724761557
C   C92       1.0  0.08870  0.94380  0.75130  1.0000 0.6724761557
C   C93       1.0  0.24870  0.91130  0.94380  1.0000 0.6724761557
C   C94       1.0  0.75130  0.91130  0.05620  1.0000 0.6724761557
C   C95       1.0  0.24870  0.08870  0.05620  1.0000 0.6724761557
C   C96       1.0  0.75130  0.08870  0.94380  1.0000 0.6724761557
O   O1        1.0  0.68290  0.31710  0.68290  1.0000 -0.8102017511
O   O2        1.0  0.31710  0.68290  0.68290  1.0000 -0.8102017511
O   O3        1.0  0.31710  0.31710  0.31710  1.0000 -0.8102017511
O   O4        1.0  0.68290  0.68290  0.31710  1.0000 -0.8102017511
O   O5        1.0  0.81710  0.18290  0.81710  1.0000 -0.8102017511
O   O6        1.0  0.18290  0.81710  0.81710  1.0000 -0.8102017511
O   O7        1.0  0.18290  0.18290  0.18290  1.0000 -0.8102017511
O   O8        1.0  0.81710  0.81710  0.18290  1.0000 -0.8102017511
O   O9        1.0  0.81740  0.30550  0.67040  1.0000 -0.8102017511
O   O10       1.0  0.18260  0.69450  0.67040  1.0000 -0.8102017511
O   O11       1.0  0.18260  0.30550  0.32960  1.0000 -0.8102017511
O   O12       1.0  0.81740  0.69450  0.32960  1.0000 -0.8102017511
O   O13       1.0  0.67040  0.81740  0.30550  1.0000 -0.8102017511
O   O14       1.0  0.67040  0.18260  0.69450  1.0000 -0.8102017511
O   O15       1.0  0.32960  0.18260  0.30550  1.0000 -0.8102017511
O   O16       1.0  0.32960  0.81740  0.69450  1.0000 -0.8102017511
O   O17       1.0  0.30550  0.67040  0.81740  1.0000 -0.8102017511
O   O18       1.0  0.69450  0.67040  0.18260  1.0000 -0.8102017511
O   O19       1.0  0.30550  0.32960  0.18260  1.0000 -0.8102017511
O   O20       1.0  0.69450  0.32960  0.81740  1.0000 -0.8102017511
O   O21       1.0  0.68260  0.19450  0.82960  1.0000 -0.8102017511
O   O22       1.0  0.31740  0.80550  0.82960  1.0000 -0.8102017511
O   O23       1.0  0.31740  0.19450  0.17040  1.0000 -0.8102017511
O   O24       1.0  0.68260  0.80550  0.17040  1.0000 -0.8102017511
O   O25       1.0  0.82960  0.68260  0.19450  1.0000 -0.8102017511
O   O26       1.0  0.82960  0.31740  0.80550  1.0000 -0.8102017511
O   O27       1.0  0.17040  0.31740  0.19450  1.0000 -0.8102017511
O   O28       1.0  0.17040  0.68260  0.80550  1.0000 -0.8102017511
O   O29       1.0  0.19450  0.82960  0.68260  1.0000 -0.8102017511
O   O30       1.0  0.80550  0.82960  0.31740  1.0000 -0.8102017511
O   O31       1.0  0.19450  0.17040  0.31740  1.0000 -0.8102017511
O   O32       1.0  0.80550  0.17040  0.68260  1.0000 -0.8102017511
O   O33       1.0  0.72610  0.04110  0.65560  1.0000 -0.5595131075
O   O34       1.0  0.27390  0.95890  0.65560  1.0000 -0.5595131075
O   O35       1.0  0.27390  0.04110  0.34440  1.0000 -0.5595131075
O   O36       1.0  0.72610  0.95890  0.34440  1.0000 -0.5595131075
O   O37       1.0  0.65560  0.72610  0.04110  1.0000 -0.5595131075
O   O38       1.0  0.65560  0.27390  0.95890  1.0000 -0.5595131075
O   O39       1.0  0.34440  0.27390  0.04110  1.0000 -0.5595131075
O   O40       1.0  0.34440  0.72610  0.95890  1.0000 -0.5595131075
O   O41       1.0  0.04110  0.65560  0.72610  1.0000 -0.5595131075
O   O42       1.0  0.95890  0.65560  0.27390  1.0000 -0.5595131075
O   O43       1.0  0.04110  0.34440  0.27390  1.0000 -0.5595131075
O   O44       1.0  0.95890  0.34440  0.72610  1.0000 -0.5595131075
O   O45       1.0  0.77390  0.45890  0.84440  1.0000 -0.5595131075
O   O46       1.0  0.22610  0.54110  0.84440  1.0000 -0.5595131075
O   O47       1.0  0.22610  0.45890  0.15560  1.0000 -0.5595131075
O   O48       1.0  0.77390  0.54110  0.15560  1.0000 -0.5595131075
O   O49       1.0  0.84440  0.77390  0.45890  1.0000 -0.5595131075
O   O50       1.0  0.84440  0.22610  0.54110  1.0000 -0.5595131075
O   O51       1.0  0.15560  0.22610  0.45890  1.0000 -0.5595131075
O   O52       1.0  0.15560  0.77390  0.54110  1.0000 -0.5595131075
O   O53       1.0  0.45890  0.84440  0.77390  1.0000 -0.5595131075
O   O54       1.0  0.54110  0.84440  0.22610  1.0000 -0.5595131075
O   O55       1.0  0.45890  0.15560  0.22610  1.0000 -0.5595131075
O   O56       1.0  0.54110  0.15560  0.77390  1.0000 -0.5595131075
O   O57       1.0  0.53970  0.26000  0.65440  1.0000 -0.5470099207
O   O58       1.0  0.46030  0.74000  0.65440  1.0000 -0.5470099207
O   O59       1.0  0.46030  0.26000  0.34560  1.0000 -0.5470099207
O   O60       1.0  0.53970  0.74000  0.34560  1.0000 -0.5470099207
O   O61       1.0  0.65440  0.53970  0.26000  1.0000 -0.5470099207
O   O62       1.0  0.65440  0.46030  0.74000  1.0000 -0.5470099207
O   O63       1.0  0.34560  0.46030  0.26000  1.0000 -0.5470099207
O   O64       1.0  0.34560  0.53970  0.74000  1.0000 -0.5470099207
O   O65       1.0  0.26000  0.65440  0.53970  1.0000 -0.5470099207
O   O66       1.0  0.74000  0.65440  0.46030  1.0000 -0.5470099207
O   O67       1.0  0.26000  0.34560  0.46030  1.0000 -0.5470099207
O   O68       1.0  0.74000  0.34560  0.53970  1.0000 -0.5470099207
O   O69       1.0  0.96030  0.24000  0.84560  1.0000 -0.5470099207
O   O70       1.0  0.03970  0.76000  0.84560  1.0000 -0.5470099207
O   O71       1.0  0.03970  0.24000  0.15440  1.0000 -0.5470099207
O   O72       1.0  0.96030  0.76000  0.15440  1.0000 -0.5470099207
O   O73       1.0  0.84560  0.96030  0.24000  1.0000 -0.5470099207
O   O74       1.0  0.84560  0.03970  0.76000  1.0000 -0.5470099207
O   O75       1.0  0.15440  0.03970  0.24000  1.0000 -0.5470099207
O   O76       1.0  0.15440  0.96030  0.76000  1.0000 -0.5470099207
O   O77       1.0  0.24000  0.84560  0.96030  1.0000 -0.5470099207
O   O78       1.0  0.76000  0.84560  0.03970  1.0000 -0.5470099207
O   O79       1.0  0.24000  0.15440  0.03970  1.0000 -0.5470099207
O   O80       1.0  0.76000  0.15440  0.96030  1.0000 -0.5470099207
O   O81       1.0  0.61910  0.24320  0.56140  1.0000 -0.5595131075
O   O82       1.0  0.38090  0.75680  0.56140  1.0000 -0.5595131075
O   O83       1.0  0.38090  0.24320  0.43860  1.0000 -0.5595131075
O   O84       1.0  0.61910  0.75680  0.43860  1.0000 -0.5595131075
O   O85       1.0  0.56140  0.61910  0.24320  1.0000 -0.5595131075
O   O86       1.0  0.56140  0.38090  0.75680  1.0000 -0.5595131075
O   O87       1.0  0.43860  0.38090  0.24320  1.0000 -0.5595131075
O   O88       1.0  0.43860  0.61910  0.75680  1.0000 -0.5595131075
O   O89       1.0  0.24320  0.56140  0.61910  1.0000 -0.5595131075
O   O90       1.0  0.75680  0.56140  0.38090  1.0000 -0.5595131075
O   O91       1.0  0.24320  0.43860  0.38090  1.0000 -0.5595131075
O   O92       1.0  0.75680  0.43860  0.61910  1.0000 -0.5595131075
O   O93       1.0  0.88090  0.25680  0.93860  1.0000 -0.5595131075
O   O94       1.0  0.11910  0.74320  0.93860  1.0000 -0.5595131075
O   O95       1.0  0.11910  0.25680  0.06140  1.0000 -0.5595131075
O   O96       1.0  0.88090  0.74320  0.06140  1.0000 -0.5595131075
O   O97       1.0  0.93860  0.88090  0.25680  1.0000 -0.5595131075
O   O98       1.0  0.93860  0.11910  0.74320  1.0000 -0.5595131075
O   O99       1.0  0.06140  0.11910  0.25680  1.0000 -0.5595131075
O   O100      1.0  0.06140  0.88090  0.74320  1.0000 -0.5595131075
O   O101      1.0  0.25680  0.93860  0.88090  1.0000 -0.5595131075
O   O102      1.0  0.74320  0.93860  0.11910  1.0000 -0.5595131075
O   O103      1.0  0.25680  0.06140  0.11910  1.0000 -0.5595131075
O   O104      1.0  0.74320  0.06140  0.88090  1.0000 -0.5595131075
O   O105      1.0  0.72580  0.12000  0.56120  1.0000 -0.5232064482
O   O106      1.0  0.27420  0.88000  0.56120  1.0000 -0.5232064482
O   O107      1.0  0.27420  0.12000  0.43880  1.0000 -0.5232064482
O   O108      1.0  0.72580  0.88000  0.43880  1.0000 -0.5232064482
O   O109      1.0  0.56120  0.72580  0.12000  1.0000 -0.5232064482
O   O110      1.0  0.56120  0.27420  0.88000  1.0000 -0.5232064482
O   O111      1.0  0.43880  0.27420  0.12000  1.0000 -0.5232064482
O   O112      1.0  0.43880  0.72580  0.88000  1.0000 -0.5232064482
O   O113      1.0  0.12000  0.56120  0.72580  1.0000 -0.5232064482
O   O114      1.0  0.88000  0.56120  0.27420  1.0000 -0.5232064482
O   O115      1.0  0.12000  0.43880  0.27420  1.0000 -0.5232064482
O   O116      1.0  0.88000  0.43880  0.72580  1.0000 -0.5232064482
O   O117      1.0  0.77420  0.38000  0.93880  1.0000 -0.5232064482
O   O118      1.0  0.22580  0.62000  0.93880  1.0000 -0.5232064482
O   O119      1.0  0.22580  0.38000  0.06120  1.0000 -0.5232064482
O   O120      1.0  0.77420  0.62000  0.06120  1.0000 -0.5232064482
O   O121      1.0  0.93880  0.77420  0.38000  1.0000 -0.5232064482
O   O122      1.0  0.93880  0.22580  0.62000  1.0000 -0.5232064482
O   O123      1.0  0.06120  0.22580  0.38000  1.0000 -0.5232064482
O   O124      1.0  0.06120  0.77420  0.62000  1.0000 -0.5232064482
O   O125      1.0  0.38000  0.93880  0.77420  1.0000 -0.5232064482
O   O126      1.0  0.62000  0.93880  0.22580  1.0000 -0.5232064482
O   O127      1.0  0.38000  0.06120  0.22580  1.0000 -0.5232064482
O   O128      1.0  0.62000  0.06120  0.77420  1.0000 -0.5232064482
