# DDEC6 charges by PACMAN v1.1 (https://github.com/mtap-research/PACMAN-charge/)
data_2015[CrMn][nod]3[ASR]2
_chemical_formula_sum              "Mn16 Cr16 C96 O192"
_cell_length_a       24.3802
_cell_length_b       22.8378
_cell_length_c       24.8834
_cell_angle_alpha    90
_cell_angle_beta     105.497
_cell_angle_gamma    90

_symmetry_space_group_name_H-M    "P 1"
_symmetry_Int_Tables_number       1

loop_
  _symmetry_equiv_pos_as_xyz
  'x, y, z'

loop_
  _atom_site_type_symbol
  _atom_site_label
  _atom_site_symmetry_multiplicity
  _atom_site_fract_x
  _atom_site_fract_y
  _atom_site_fract_z
  _atom_site_occupancy
  _atom_site_charge
Mn  Mn1       1.0  0.75000  0.93716  0.00000  1.0000 0.9797897824
Mn  Mn2       1.0  0.25000  0.06284  0.00000  1.0000 0.9797897824
Mn  Mn3       1.0  0.55965  0.29722  0.91608  1.0000 0.9797897824
Mn  Mn4       1.0  0.94035  0.29722  0.08392  1.0000 0.9797897824
Mn  Mn5       1.0  0.44035  0.70278  0.08392  1.0000 0.9797897824
Mn  Mn6       1.0  0.05965  0.70278  0.91608  1.0000 0.9738995643
Mn  Mn7       1.0  0.25000  0.94211  0.50000  1.0000 0.9869886251
Mn  Mn8       1.0  0.75000  0.05789  0.50000  1.0000 0.9869886251
Mn  Mn9       1.0  0.49716  0.68456  0.75768  1.0000 0.9797897824
Mn  Mn10      1.0  0.00284  0.68456  0.24232  1.0000 0.9797897824
Mn  Mn11      1.0  0.50284  0.31544  0.24232  1.0000 0.9797897824
Mn  Mn12      1.0  0.99716  0.31544  0.75768  1.0000 0.9797897824
Mn  Mn13      1.0  0.44591  0.29702  0.57006  1.0000 0.9797897824
Mn  Mn14      1.0  0.05409  0.29702  0.42994  1.0000 0.9797897824
Mn  Mn15      1.0  0.55409  0.70298  0.42994  1.0000 0.9797897824
Mn  Mn16      1.0  0.94591  0.70298  0.57006  1.0000 0.9797897824
Cr  Cr1       1.0  0.25000  0.17892  0.50000  1.0000 1.2020202887
Cr  Cr2       1.0  0.75000  0.82108  0.50000  1.0000 1.2020202887
Cr  Cr3       1.0  0.92842  0.78806  0.04086  1.0000 1.2020202887
Cr  Cr4       1.0  0.57158  0.78806  0.95914  1.0000 1.2020202887
Cr  Cr5       1.0  0.07158  0.21194  0.95914  1.0000 1.2069959255
Cr  Cr6       1.0  0.42842  0.21194  0.04086  1.0000 1.2069959255
Cr  Cr7       1.0  0.42936  0.79446  0.55974  1.0000 1.2239555927
Cr  Cr8       1.0  0.07064  0.79446  0.44026  1.0000 1.2239555927
Cr  Cr9       1.0  0.57064  0.20554  0.44026  1.0000 1.2239555927
Cr  Cr10      1.0  0.92936  0.20554  0.55974  1.0000 1.2239555927
Cr  Cr11      1.0  0.49981  0.44812  0.74373  1.0000 1.1637738558
Cr  Cr12      1.0  0.00019  0.44812  0.25627  1.0000 1.1656869264
Cr  Cr13      1.0  0.50019  0.55188  0.25627  1.0000 1.1637738558
Cr  Cr14      1.0  0.99981  0.55188  0.74373  1.0000 1.1637738558
Cr  Cr15      1.0  0.75000  0.17299  0.00000  1.0000 1.2020202887
Cr  Cr16      1.0  0.25000  0.82701  0.00000  1.0000 1.2020202887
C   C1        1.0  0.47460  0.56120  0.76520  1.0000 0.5408070179
C   C2        1.0  0.02540  0.56120  0.23480  1.0000 0.5408070179
C   C3        1.0  0.52540  0.43880  0.23480  1.0000 0.5516599493
C   C4        1.0  0.97460  0.43880  0.76520  1.0000 0.5408070179
C   C5        1.0  0.52230  0.56490  0.73490  1.0000 0.5408070179
C   C6        1.0  0.97770  0.56490  0.26510  1.0000 0.5408070179
C   C7        1.0  0.47770  0.43510  0.26510  1.0000 0.5516599493
C   C8        1.0  0.02230  0.43510  0.73490  1.0000 0.5408070179
C   C9        1.0  0.82980  0.84660  0.99100  1.0000 0.5585803987
C   C10       1.0  0.67020  0.84660  0.00900  1.0000 0.5585803987
C   C11       1.0  0.17020  0.15340  0.00900  1.0000 0.5516599493
C   C12       1.0  0.32980  0.15340  0.99100  1.0000 0.5516599493
C   C13       1.0  0.23170  0.06360  0.52100  1.0000 0.5516599493
C   C14       1.0  0.26830  0.06360  0.47900  1.0000 0.5516599493
C   C15       1.0  0.76830  0.93640  0.47900  1.0000 0.5516599493
C   C16       1.0  0.73170  0.93640  0.52100  1.0000 0.5516599493
C   C17       1.0  0.55300  0.39700  0.84250  1.0000 0.5585803987
C   C18       1.0  0.94700  0.39700  0.15750  1.0000 0.5585803987
C   C19       1.0  0.44700  0.60300  0.15750  1.0000 0.5585803987
C   C20       1.0  0.05300  0.60300  0.84250  1.0000 0.5516599493
C   C21       1.0  0.65600  0.22140  0.92930  1.0000 0.5516599493
C   C22       1.0  0.84400  0.22140  0.07070  1.0000 0.5516599493
C   C23       1.0  0.34400  0.77860  0.07070  1.0000 0.5516599493
C   C24       1.0  0.15600  0.77860  0.92930  1.0000 0.5408070179
C   C25       1.0  0.86060  0.88260  0.04330  1.0000 0.5585803987
C   C26       1.0  0.63940  0.88260  0.95670  1.0000 0.5585803987
C   C27       1.0  0.13940  0.11740  0.95670  1.0000 0.5516599493
C   C28       1.0  0.36060  0.11740  0.04330  1.0000 0.5516599493
C   C29       1.0  0.97790  0.71670  0.98040  1.0000 0.5408070179
C   C30       1.0  0.52210  0.71670  0.01960  1.0000 0.5408070179
C   C31       1.0  0.02210  0.28330  0.01960  1.0000 0.5408070179
C   C32       1.0  0.47790  0.28330  0.98040  1.0000 0.5408070179
C   C33       1.0  0.49850  0.36200  0.81810  1.0000 0.5516599493
C   C34       1.0  0.00150  0.36200  0.18190  1.0000 0.5516599493
C   C35       1.0  0.50150  0.63800  0.18190  1.0000 0.5516599493
C   C36       1.0  0.99850  0.63800  0.81810  1.0000 0.5516599493
C   C37       1.0  0.66270  0.25080  0.98700  1.0000 0.5516599493
C   C38       1.0  0.83730  0.25080  0.01300  1.0000 0.5516599493
C   C39       1.0  0.33730  0.74920  0.01300  1.0000 0.5516599493
C   C40       1.0  0.16270  0.74920  0.98700  1.0000 0.5408070179
C   C41       1.0  0.99460  0.75140  0.14140  1.0000 0.5516599493
C   C42       1.0  0.50540  0.75140  0.85860  1.0000 0.5408070179
C   C43       1.0  0.00540  0.24860  0.85860  1.0000 0.5408070179
C   C44       1.0  0.49460  0.24860  0.14140  1.0000 0.5516599493
C   C45       1.0  0.99220  0.77980  0.96680  1.0000 0.5331859352
C   C46       1.0  0.50780  0.77980  0.03320  1.0000 0.5408070179
C   C47       1.0  0.00780  0.22020  0.03320  1.0000 0.5331859352
C   C48       1.0  0.49220  0.22020  0.96680  1.0000 0.5331859352
C   C49       1.0  0.35870  0.88900  0.55350  1.0000 0.5585803987
C   C50       1.0  0.14130  0.88900  0.44650  1.0000 0.5516599493
C   C51       1.0  0.64130  0.11100  0.44650  1.0000 0.5585803987
C   C52       1.0  0.85870  0.11100  0.55350  1.0000 0.5585803987
C   C53       1.0  0.49130  0.75930  0.66200  1.0000 0.5516599493
C   C54       1.0  0.00870  0.75930  0.33800  1.0000 0.5516599493
C   C55       1.0  0.50870  0.24070  0.33800  1.0000 0.5516599493
C   C56       1.0  0.99130  0.24070  0.66200  1.0000 0.5516599493
C   C57       1.0  0.42870  0.73770  0.65560  1.0000 0.5585803987
C   C58       1.0  0.07130  0.73770  0.34440  1.0000 0.5516599493
C   C59       1.0  0.57130  0.26230  0.34440  1.0000 0.5585803987
C   C60       1.0  0.92870  0.26230  0.65560  1.0000 0.5585803987
C   C61       1.0  0.33360  0.85080  0.50120  1.0000 0.5516599493
C   C62       1.0  0.16640  0.85080  0.49880  1.0000 0.5516599493
C   C63       1.0  0.66640  0.14920  0.49880  1.0000 0.5516599493
C   C64       1.0  0.83360  0.14920  0.50120  1.0000 0.5516599493
C   C65       1.0  0.44980  0.39780  0.64280  1.0000 0.5585803987
C   C66       1.0  0.05020  0.39780  0.35720  1.0000 0.5516599493
C   C67       1.0  0.55020  0.60220  0.35720  1.0000 0.5585803987
C   C68       1.0  0.94980  0.60220  0.64280  1.0000 0.5585803987
C   C69       1.0  0.93260  0.73150  0.13890  1.0000 0.5516599493
C   C70       1.0  0.56740  0.73150  0.86110  1.0000 0.5408070179
C   C71       1.0  0.06740  0.26850  0.86110  1.0000 0.5408070179
C   C72       1.0  0.43260  0.26850  0.13890  1.0000 0.5408070179
C   C73       1.0  0.15080  0.22490  0.43630  1.0000 0.5408070179
C   C74       1.0  0.34920  0.22490  0.56370  1.0000 0.5516599493
C   C75       1.0  0.84920  0.77510  0.56370  1.0000 0.5516599493
C   C76       1.0  0.65080  0.77510  0.43630  1.0000 0.5516599493
C   C77       1.0  0.16270  0.25540  0.49460  1.0000 0.5408070179
C   C78       1.0  0.33730  0.25540  0.50540  1.0000 0.5408070179
C   C79       1.0  0.83730  0.74460  0.50540  1.0000 0.5408070179
C   C80       1.0  0.66270  0.74460  0.49460  1.0000 0.5408070179
C   C81       1.0  0.50610  0.36500  0.66667  1.0000 0.5585803987
C   C82       1.0  0.99390  0.36500  0.33340  1.0000 0.5516599493
C   C83       1.0  0.49390  0.63500  0.33340  1.0000 0.5585803987
C   C84       1.0  0.00610  0.63500  0.66667  1.0000 0.5516599493
C   C85       1.0  0.48060  0.72010  0.50180  1.0000 0.5408070179
C   C86       1.0  0.01940  0.72010  0.49820  1.0000 0.5408070179
C   C87       1.0  0.51940  0.27990  0.49820  1.0000 0.5408070179
C   C88       1.0  0.98060  0.27990  0.50180  1.0000 0.5408070179
C   C89       1.0  0.49440  0.78340  0.48700  1.0000 0.5408070179
C   C90       1.0  0.00560  0.78340  0.51300  1.0000 0.5331859352
C   C91       1.0  0.50560  0.21660  0.51300  1.0000 0.5408070179
C   C92       1.0  0.99440  0.21660  0.48700  1.0000 0.5408070179
C   C93       1.0  0.76980  0.05820  0.98020  1.0000 0.5585803987
C   C94       1.0  0.73020  0.05820  0.01980  1.0000 0.5657972904
C   C95       1.0  0.23020  0.94180  0.01980  1.0000 0.5657972904
C   C96       1.0  0.26980  0.94180  0.98020  1.0000 0.5585803987
O   O1        1.0  0.78160  0.01050  0.96228  1.0000 -0.4098474081
O   O2        1.0  0.71840  0.01050  0.03772  1.0000 -0.4098474081
O   O3        1.0  0.21840  0.98950  0.03772  1.0000 -0.4098474081
O   O4        1.0  0.28160  0.98950  0.96228  1.0000 -0.4098474081
O   O5        1.0  0.45900  0.50910  0.77280  1.0000 -0.5304207544
O   O6        1.0  0.04100  0.50910  0.22720  1.0000 -0.5194461103
O   O7        1.0  0.54100  0.49090  0.22720  1.0000 -0.5304207544
O   O8        1.0  0.95900  0.49090  0.77280  1.0000 -0.5304207544
O   O9        1.0  0.53760  0.51550  0.72020  1.0000 -0.5304207544
O   O10       1.0  0.96240  0.51550  0.27980  1.0000 -0.5304207544
O   O11       1.0  0.46240  0.48450  0.27980  1.0000 -0.5304207544
O   O12       1.0  0.03760  0.48450  0.72020  1.0000 -0.5194461103
O   O13       1.0  0.78623  0.10810  0.96940  1.0000 -0.5194461103
O   O14       1.0  0.71377  0.10810  0.03060  1.0000 -0.5194461103
O   O15       1.0  0.21377  0.89190  0.03060  1.0000 -0.5194461103
O   O16       1.0  0.28623  0.89190  0.96940  1.0000 -0.5194461103
O   O17       1.0  0.78520  0.86580  0.95990  1.0000 -0.3979949752
O   O18       1.0  0.71480  0.86580  0.04010  1.0000 -0.3914336713
O   O19       1.0  0.21480  0.13420  0.04010  1.0000 -0.3914336713
O   O20       1.0  0.28520  0.13420  0.95990  1.0000 -0.3914336713
O   O21       1.0  0.21940  0.01630  0.53820  1.0000 -0.3979949752
O   O22       1.0  0.28060  0.01630  0.46180  1.0000 -0.3979949752
O   O23       1.0  0.78060  0.98370  0.46180  1.0000 -0.3979949752
O   O24       1.0  0.71940  0.98370  0.53820  1.0000 -0.3979949752
O   O25       1.0  0.46414  0.38310  0.77470  1.0000 -0.5304207544
O   O26       1.0  0.03586  0.38310  0.22530  1.0000 -0.5304207544
O   O27       1.0  0.53586  0.61690  0.22530  1.0000 -0.5368731407
O   O28       1.0  0.96414  0.61690  0.77470  1.0000 -0.5304207544
O   O29       1.0  0.54050  0.61320  0.72770  1.0000 -0.3794488199
O   O30       1.0  0.95950  0.61320  0.27230  1.0000 -0.3794488199
O   O31       1.0  0.45950  0.38680  0.27230  1.0000 -0.3794488199
O   O32       1.0  0.04050  0.38680  0.72770  1.0000 -0.3794488199
O   O33       1.0  0.45530  0.60630  0.77850  1.0000 -0.3701574716
O   O34       1.0  0.04470  0.60630  0.22150  1.0000 -0.3701574716
O   O35       1.0  0.54470  0.39370  0.22150  1.0000 -0.3701574716
O   O36       1.0  0.95530  0.39370  0.77850  1.0000 -0.3701574716
O   O37       1.0  0.55953  0.44120  0.81490  1.0000 -0.5304207544
O   O38       1.0  0.94047  0.44120  0.18510  1.0000 -0.5304207544
O   O39       1.0  0.44047  0.55880  0.18510  1.0000 -0.5304207544
O   O40       1.0  0.05953  0.55880  0.81490  1.0000 -0.5194461103
O   O41       1.0  0.69080  0.18070  0.92840  1.0000 -0.5194461103
O   O42       1.0  0.80920  0.18070  0.07160  1.0000 -0.5194461103
O   O43       1.0  0.30920  0.81930  0.07160  1.0000 -0.5194461103
O   O44       1.0  0.19080  0.81930  0.92840  1.0000 -0.5110088008
O   O45       1.0  0.29040  0.86950  0.46640  1.0000 -0.4098474081
O   O46       1.0  0.20960  0.86950  0.53360  1.0000 -0.3979949752
O   O47       1.0  0.70960  0.13050  0.53360  1.0000 -0.4098474081
O   O48       1.0  0.79040  0.13050  0.46640  1.0000 -0.4098474081
O   O49       1.0  0.85520  0.79990  0.98420  1.0000 -0.5194461103
O   O50       1.0  0.64480  0.79990  0.01580  1.0000 -0.5194461103
O   O51       1.0  0.14480  0.20010  0.01580  1.0000 -0.5194461103
O   O52       1.0  0.35520  0.20010  0.98420  1.0000 -0.5110088008
O   O53       1.0  0.53880  0.38820  0.70960  1.0000 -0.5368731407
O   O54       1.0  0.96120  0.38820  0.29040  1.0000 -0.5368731407
O   O55       1.0  0.46120  0.61180  0.29040  1.0000 -0.5304207544
O   O56       1.0  0.03880  0.61180  0.70960  1.0000 -0.5304207544
O   O57       1.0  0.21650  0.11430  0.53350  1.0000 -0.5194461103
O   O58       1.0  0.28350  0.11430  0.46650  1.0000 -0.5194461103
O   O59       1.0  0.78350  0.88570  0.46650  1.0000 -0.5194461103
O   O60       1.0  0.71650  0.88570  0.53350  1.0000 -0.5194461103
O   O61       1.0  0.92460  0.70290  0.17720  1.0000 -0.3701574716
O   O62       1.0  0.57540  0.70290  0.82280  1.0000 -0.3701574716
O   O63       1.0  0.07540  0.29710  0.82280  1.0000 -0.3701574716
O   O64       1.0  0.42460  0.29710  0.17720  1.0000 -0.3701574716
O   O65       1.0  0.90972  0.86540  0.06820  1.0000 -0.5304207544
O   O66       1.0  0.59028  0.86540  0.93180  1.0000 -0.5194461103
O   O67       1.0  0.09028  0.13460  0.93180  1.0000 -0.5194461103
O   O68       1.0  0.40972  0.13460  0.06820  1.0000 -0.5194461103
O   O69       1.0  0.83520  0.92520  0.05620  1.0000 -0.4098474081
O   O70       1.0  0.66480  0.92520  0.94380  1.0000 -0.4098474081
O   O71       1.0  0.16480  0.07480  0.94380  1.0000 -0.3979949752
O   O72       1.0  0.33520  0.07480  0.05620  1.0000 -0.3979949752
O   O73       1.0  0.44100  0.44130  0.67130  1.0000 -0.5368731407
O   O74       1.0  0.05900  0.44130  0.32870  1.0000 -0.5304207544
O   O75       1.0  0.55900  0.55870  0.32870  1.0000 -0.5368731407
O   O76       1.0  0.94100  0.55870  0.67130  1.0000 -0.5368731407
O   O77       1.0  0.70410  0.23270  0.02490  1.0000 -0.5110088008
O   O78       1.0  0.79590  0.23270  0.97510  1.0000 -0.5110088008
O   O79       1.0  0.29590  0.76730  0.97510  1.0000 -0.5110088008
O   O80       1.0  0.20410  0.76730  0.02490  1.0000 -0.5110088008
O   O81       1.0  0.00030  0.77990  0.09990  1.0000 -0.5194461103
O   O82       1.0  0.49970  0.77990  0.90010  1.0000 -0.5194461103
O   O83       1.0  0.99970  0.22010  0.90010  1.0000 -0.5194461103
O   O84       1.0  0.50030  0.22010  0.09990  1.0000 -0.5194461103
O   O85       1.0  0.58540  0.38060  0.88740  1.0000 -0.4098474081
O   O86       1.0  0.91460  0.38060  0.11260  1.0000 -0.4098474081
O   O87       1.0  0.41460  0.61940  0.11260  1.0000 -0.4098474081
O   O88       1.0  0.08540  0.61940  0.88740  1.0000 -0.4098474081
O   O89       1.0  0.96990  0.81990  0.98950  1.0000 -0.5110088008
O   O90       1.0  0.53010  0.81990  0.01050  1.0000 -0.5110088008
O   O91       1.0  0.03010  0.18010  0.01050  1.0000 -0.5110088008
O   O92       1.0  0.46990  0.18010  0.98950  1.0000 -0.5005756406
O   O93       1.0  0.41960  0.70650  0.69270  1.0000 -0.3914336713
O   O94       1.0  0.08040  0.70650  0.30730  1.0000 -0.3914336713
O   O95       1.0  0.58040  0.29350  0.30730  1.0000 -0.3914336713
O   O96       1.0  0.91960  0.29350  0.69270  1.0000 -0.3914336713
O   O97       1.0  0.20760  0.23870  0.52960  1.0000 -0.5110088008
O   O98       1.0  0.29240  0.23870  0.47040  1.0000 -0.5110088008
O   O99       1.0  0.79240  0.76130  0.47040  1.0000 -0.5194461103
O   O100      1.0  0.70760  0.76130  0.52960  1.0000 -0.5194461103
O   O101      1.0  0.49120  0.31580  0.84140  1.0000 -0.3979949752
O   O102      1.0  0.00880  0.31580  0.15860  1.0000 -0.3979949752
O   O103      1.0  0.50880  0.68420  0.15860  1.0000 -0.3979949752
O   O104      1.0  0.99120  0.68420  0.84140  1.0000 -0.3979949752
O   O105      1.0  0.18590  0.18460  0.43280  1.0000 -0.5194461103
O   O106      1.0  0.31410  0.18460  0.56720  1.0000 -0.5194461103
O   O107      1.0  0.81410  0.81540  0.56720  1.0000 -0.5194461103
O   O108      1.0  0.68590  0.81540  0.43280  1.0000 -0.5194461103
O   O109      1.0  0.94320  0.71210  0.00980  1.0000 -0.5194461103
O   O110      1.0  0.55680  0.71210  0.99020  1.0000 -0.5110088008
O   O111      1.0  0.05680  0.28790  0.99020  1.0000 -0.5110088008
O   O112      1.0  0.44320  0.28790  0.00980  1.0000 -0.5194461103
O   O113      1.0  0.62810  0.28880  0.99110  1.0000 -0.3914336713
O   O114      1.0  0.87190  0.28880  0.00890  1.0000 -0.3979949752
O   O115      1.0  0.37190  0.71120  0.00890  1.0000 -0.3914336713
O   O116      1.0  0.12810  0.71120  0.99110  1.0000 -0.3914336713
O   O117      1.0  0.52760  0.74550  0.70450  1.0000 -0.3914336713
O   O118      1.0  0.97240  0.74550  0.29550  1.0000 -0.3914336713
O   O119      1.0  0.47240  0.25450  0.29550  1.0000 -0.3914336713
O   O120      1.0  0.02760  0.25450  0.70450  1.0000 -0.3914336713
O   O121      1.0  0.03250  0.73710  0.18270  1.0000 -0.3914336713
O   O122      1.0  0.46750  0.73710  0.81730  1.0000 -0.3914336713
O   O123      1.0  0.96750  0.26290  0.81730  1.0000 -0.3914336713
O   O124      1.0  0.53250  0.26290  0.18270  1.0000 -0.3914336713
O   O125      1.0  0.33130  0.93110  0.56310  1.0000 -0.3914336713
O   O126      1.0  0.16870  0.93110  0.43690  1.0000 -0.3979949752
O   O127      1.0  0.66870  0.06890  0.43690  1.0000 -0.3979949752
O   O128      1.0  0.83130  0.06890  0.56310  1.0000 -0.3914336713
O   O129      1.0  0.89510  0.74800  0.09470  1.0000 -0.5304207544
O   O130      1.0  0.60490  0.74800  0.90530  1.0000 -0.5304207544
O   O131      1.0  0.10490  0.25200  0.90530  1.0000 -0.5304207544
O   O132      1.0  0.39510  0.25200  0.09470  1.0000 -0.5304207544
O   O133      1.0  0.00110  0.67490  0.96290  1.0000 -0.3914336713
O   O134      1.0  0.49890  0.67490  0.03710  1.0000 -0.3979949752
O   O135      1.0  0.99890  0.32510  0.03710  1.0000 -0.3979949752
O   O136      1.0  0.50110  0.32510  0.96290  1.0000 -0.3979949752
O   O137      1.0  0.49770  0.79000  0.62280  1.0000 -0.5005756406
O   O138      1.0  0.00230  0.79000  0.37720  1.0000 -0.4936734824
O   O139      1.0  0.50230  0.21000  0.37720  1.0000 -0.5005756406
O   O140      1.0  0.99770  0.21000  0.62280  1.0000 -0.5005756406
O   O141      1.0  0.39280  0.75530  0.61200  1.0000 -0.5194461103
O   O142      1.0  0.10720  0.75530  0.38800  1.0000 -0.5194461103
O   O143      1.0  0.60720  0.24470  0.38800  1.0000 -0.5194461103
O   O144      1.0  0.89280  0.24470  0.61200  1.0000 -0.5194461103
O   O145      1.0  0.02270  0.78730  0.93500  1.0000 -0.3794488199
O   O146      1.0  0.47730  0.78730  0.06500  1.0000 -0.3794488199
O   O147      1.0  0.97730  0.21270  0.06500  1.0000 -0.3794488199
O   O148      1.0  0.52270  0.21270  0.93500  1.0000 -0.3794488199
O   O149      1.0  0.35950  0.80370  0.49860  1.0000 -0.5110088008
O   O150      1.0  0.14050  0.80370  0.50140  1.0000 -0.5110088008
O   O151      1.0  0.64050  0.19630  0.50140  1.0000 -0.5110088008
O   O152      1.0  0.85950  0.19630  0.49860  1.0000 -0.5110088008
O   O153      1.0  0.61840  0.23980  0.88880  1.0000 -0.3914336713
O   O154      1.0  0.88160  0.23980  0.11120  1.0000 -0.3914336713
O   O155      1.0  0.38160  0.76020  0.11120  1.0000 -0.3979949752
O   O156      1.0  0.11840  0.76020  0.88880  1.0000 -0.3914336713
O   O157      1.0  0.40680  0.87200  0.58290  1.0000 -0.5304207544
O   O158      1.0  0.09320  0.87200  0.41710  1.0000 -0.5194461103
O   O159      1.0  0.59320  0.12800  0.41710  1.0000 -0.5304207544
O   O160      1.0  0.90680  0.12800  0.58290  1.0000 -0.5304207544
O   O161      1.0  0.47390  0.82400  0.51020  1.0000 -0.5110088008
O   O162      1.0  0.02610  0.82400  0.48980  1.0000 -0.5110088008
O   O163      1.0  0.52610  0.17600  0.48980  1.0000 -0.5110088008
O   O164      1.0  0.97390  0.17600  0.51020  1.0000 -0.5110088008
O   O165      1.0  0.12900  0.29210  0.50160  1.0000 -0.3701574716
O   O166      1.0  0.37100  0.29210  0.49840  1.0000 -0.3701574716
O   O167      1.0  0.87100  0.70790  0.49840  1.0000 -0.3701574716
O   O168      1.0  0.62900  0.70790  0.50160  1.0000 -0.3701574716
O   O169      1.0  0.52420  0.78870  0.45420  1.0000 -0.3914336713
O   O170      1.0  0.97580  0.78870  0.54580  1.0000 -0.3914336713
O   O171      1.0  0.47580  0.21130  0.54580  1.0000 -0.3914336713
O   O172      1.0  0.02420  0.21130  0.45420  1.0000 -0.3979949752
O   O173      1.0  0.44730  0.71710  0.53400  1.0000 -0.5304207544
O   O174      1.0  0.05270  0.71710  0.46600  1.0000 -0.5304207544
O   O175      1.0  0.55270  0.28290  0.46600  1.0000 -0.5368731407
O   O176      1.0  0.94730  0.28290  0.53400  1.0000 -0.5368731407
O   O177      1.0  0.41760  0.38140  0.59800  1.0000 -0.3979949752
O   O178      1.0  0.08240  0.38140  0.40200  1.0000 -0.3914336713
O   O179      1.0  0.58240  0.61860  0.40200  1.0000 -0.3979949752
O   O180      1.0  0.91760  0.61860  0.59800  1.0000 -0.3979949752
O   O181      1.0  0.50050  0.67800  0.48290  1.0000 -0.3794488199
O   O182      1.0  0.99950  0.67800  0.51710  1.0000 -0.3794488199
O   O183      1.0  0.49950  0.32200  0.51710  1.0000 -0.3794488199
O   O184      1.0  0.00050  0.32200  0.48290  1.0000 -0.3794488199
O   O185      1.0  0.51520  0.32090  0.64210  1.0000 -0.3979949752
O   O186      1.0  0.98480  0.32090  0.35790  1.0000 -0.3914336713
O   O187      1.0  0.48480  0.67910  0.35790  1.0000 -0.3979949752
O   O188      1.0  0.01520  0.67910  0.64210  1.0000 -0.3979949752
O   O189      1.0  0.10950  0.24130  0.39880  1.0000 -0.3914336713
O   O190      1.0  0.39050  0.24130  0.60120  1.0000 -0.3914336713
O   O191      1.0  0.89050  0.75870  0.60120  1.0000 -0.3914336713
O   O192      1.0  0.60950  0.75870  0.39880  1.0000 -0.3914336713
