# DDEC6 charges by PACMAN v1.1 (https://github.com/mtap-research/PACMAN-charge/)
data_2015[EuTb][nan]3[ASR]1
_chemical_formula_sum              "Tb2 Eu6 H56 C120 O48"
_cell_length_a       13.013
_cell_length_b       13.846
_cell_length_c       28.029
_cell_angle_alpha    75.71
_cell_angle_beta     79.28
_cell_angle_gamma    85.59

_symmetry_space_group_name_H-M    "P 1"
_symmetry_Int_Tables_number       1

loop_
  _symmetry_equiv_pos_as_xyz
  'x, y, z'

loop_
  _atom_site_type_symbol
  _atom_site_label
  _atom_site_symmetry_multiplicity
  _atom_site_fract_x
  _atom_site_fract_y
  _atom_site_fract_z
  _atom_site_occupancy
  _atom_site_charge
Tb  Tb1       1.0  0.88045  0.02113  0.55412  1.0000 2.062133871
Tb  Tb2       1.0  0.11955  0.97887  0.44588  1.0000 2.062133871
Eu  Eu1       1.0  0.47158  0.53808  0.41513  1.0000 2.0779101476
Eu  Eu2       1.0  0.52842  0.46192  0.58487  1.0000 2.0779101476
Eu  Eu3       1.0  0.03064  0.87534  0.06060  1.0000 2.0959754809
Eu  Eu4       1.0  0.96936  0.12466  0.93940  1.0000 2.0959754809
Eu  Eu5       1.0  0.51721  0.48092  0.91410  1.0000 2.0865451917
Eu  Eu6       1.0  0.48279  0.51908  0.08590  1.0000 2.0865451917
H   H1        1.0  0.72520  0.74430  0.51570  1.0000 0.130370419
H   H2        1.0  0.27480  0.25570  0.48430  1.0000 0.130370419
H   H3        1.0  0.72790  0.66610  0.38690  1.0000 0.1186846325
H   H4        1.0  0.27210  0.33390  0.61310  1.0000 0.1186846325
H   H5        1.0  0.91670  0.87930  0.39150  1.0000 0.130370419
H   H6        1.0  0.08330  0.12070  0.60850  1.0000 0.130370419
H   H7        1.0  0.00310  0.85340  0.32070  1.0000 0.1110188862
H   H8        1.0  0.99690  0.14660  0.67930  1.0000 0.1110188862
H   H9        1.0  0.05920  0.87290  0.23590  1.0000 0.1186846325
H   H10       1.0  0.94080  0.12710  0.76410  1.0000 0.1186846325
H   H11       1.0  0.80870  0.73830  0.22580  1.0000 0.1186846325
H   H12       1.0  0.19130  0.26170  0.77420  1.0000 0.1186846325
H   H13       1.0  0.75360  0.71630  0.31050  1.0000 0.1186846325
H   H14       1.0  0.24640  0.28370  0.68950  1.0000 0.1186846325
H   H15       1.0  0.75040  0.27400  0.43780  1.0000 0.130370419
H   H16       1.0  0.24960  0.72600  0.56220  1.0000 0.130370419
H   H17       1.0  0.02570  0.26240  0.34650  1.0000 0.1186846325
H   H18       1.0  0.97430  0.73760  0.65350  1.0000 0.1186846325
H   H19       1.0  0.81610  0.48070  0.30930  1.0000 0.1110188862
H   H20       1.0  0.18390  0.51930  0.69070  1.0000 0.1110188862
H   H21       1.0  0.96790  0.56950  0.27580  1.0000 0.1110188862
H   H22       1.0  0.03210  0.43050  0.72420  1.0000 0.1110188862
H   H23       1.0  0.09630  0.64470  0.21200  1.0000 0.1110188862
H   H24       1.0  0.90370  0.35530  0.78800  1.0000 0.1110188862
H   H25       1.0  0.20710  0.37660  0.19460  1.0000 0.1110188862
H   H26       1.0  0.79290  0.62340  0.80540  1.0000 0.1110188862
H   H27       1.0  0.07800  0.30160  0.25860  1.0000 0.1045930758
H   H28       1.0  0.92200  0.69840  0.74140  1.0000 0.1045930758
H   H29       1.0  0.73820  0.24060  0.05730  1.0000 0.1352038905
H   H30       1.0  0.26180  0.75940  0.94270  1.0000 0.130370419
H   H31       1.0  0.54170  0.18130  0.18790  1.0000 0.1110188862
H   H32       1.0  0.45830  0.81870  0.81210  1.0000 0.1110188862
H   H33       1.0  0.75910  0.97560  0.15410  1.0000 0.1186846325
H   H34       1.0  0.24090  0.02440  0.84590  1.0000 0.1186846325
H   H35       1.0  0.62400  0.87260  0.20110  1.0000 0.1110188862
H   H36       1.0  0.37600  0.12740  0.79890  1.0000 0.1110188862
H   H37       1.0  0.55880  0.76090  0.27450  1.0000 0.1186846325
H   H38       1.0  0.44120  0.23910  0.72550  1.0000 0.1186846325
H   H39       1.0  0.49270  0.98290  0.34380  1.0000 0.1186846325
H   H40       1.0  0.50730  0.01710  0.65620  1.0000 0.1186846325
H   H41       1.0  0.56270  0.09420  0.27040  1.0000 0.1110188862
H   H42       1.0  0.43730  0.90580  0.72960  1.0000 0.1110188862
H   H43       1.0  0.74720  0.72830  0.01370  1.0000 0.130370419
H   H44       1.0  0.25280  0.27170  0.98630  1.0000 0.130370419
H   H45       1.0  0.86290  0.92510  0.88820  1.0000 0.1186846325
H   H46       1.0  0.13710  0.07490  0.11180  1.0000 0.1186846325
H   H47       1.0  0.68030  0.71030  0.88150  1.0000 0.1186846325
H   H48       1.0  0.31970  0.28970  0.11850  1.0000 0.1186846325
H   H49       1.0  0.65020  0.82380  0.81050  1.0000 0.1110188862
H   H50       1.0  0.34980  0.17620  0.18950  1.0000 0.1110188862
H   H51       1.0  0.67610  0.87570  0.72480  1.0000 0.1186846325
H   H52       1.0  0.32390  0.12430  0.27520  1.0000 0.1186846325
H   H53       1.0  0.96350  0.95790  0.72410  1.0000 0.1110188862
H   H54       1.0  0.03650  0.04210  0.27590  1.0000 0.1110188862
H   H55       1.0  0.93850  0.90440  0.81000  1.0000 0.1110188862
H   H56       1.0  0.06150  0.09560  0.19000  1.0000 0.1110188862
C   C1        1.0  0.82450  0.82280  0.45760  1.0000 -0.0198290969
C   C2        1.0  0.17550  0.17720  0.54240  1.0000 -0.0198290969
C   C3        1.0  0.75080  0.75220  0.48170  1.0000 -0.0995104008
C   C4        1.0  0.24920  0.24780  0.51830  1.0000 -0.0995104008
C   C5        1.0  0.71480  0.69310  0.45530  1.0000 -0.0198290969
C   C6        1.0  0.28520  0.30690  0.54470  1.0000 -0.0198290969
C   C7        1.0  0.75300  0.70520  0.40460  1.0000 -0.140826542
C   C8        1.0  0.24700  0.29480  0.59540  1.0000 -0.140826542
C   C9        1.0  0.82940  0.77640  0.37930  1.0000 0.0711103864
C   C10       1.0  0.17060  0.22360  0.62070  1.0000 0.0711103864
C   C11       1.0  0.86510  0.83340  0.40690  1.0000 -0.1553436592
C   C12       1.0  0.13490  0.16660  0.59310  1.0000 -0.1553436592
C   C13       1.0  0.86720  0.78840  0.32440  1.0000 0.0711103864
C   C14       1.0  0.13280  0.21160  0.67560  1.0000 0.0711103864
C   C15       1.0  0.96200  0.83210  0.30170  1.0000 -0.149277281
C   C16       1.0  0.03800  0.16790  0.69830  1.0000 -0.149277281
C   C17       1.0  0.99530  0.84400  0.25060  1.0000 -0.0995104008
C   C18       1.0  0.00470  0.15600  0.74940  1.0000 -0.0995104008
C   C19       1.0  0.93670  0.81450  0.22130  1.0000 -0.0198290969
C   C20       1.0  0.06330  0.18550  0.77870  1.0000 -0.0198290969
C   C21       1.0  0.84710  0.76400  0.24450  1.0000 -0.0995104008
C   C22       1.0  0.15290  0.23600  0.75550  1.0000 -0.0995104008
C   C23       1.0  0.81400  0.75120  0.29540  1.0000 -0.140826542
C   C24       1.0  0.18600  0.24880  0.70460  1.0000 -0.140826542
C   C25       1.0  0.85920  0.88830  0.48670  1.0000 0.628590785
C   C26       1.0  0.14080  0.11170  0.51330  1.0000 0.628590785
C   C27       1.0  0.63950  0.61180  0.48230  1.0000 0.6678885444
C   C28       1.0  0.36050  0.38820  0.51770  1.0000 0.6678885444
C   C29       1.0  0.97320  0.83090  0.16560  1.0000 0.5591197833
C   C30       1.0  0.02680  0.16910  0.83440  1.0000 0.5591197833
C   C31       1.0  0.76620  0.38380  0.37480  1.0000 -0.0198290969
C   C32       1.0  0.23380  0.61620  0.62520  1.0000 -0.0198290969
C   C33       1.0  0.79560  0.29990  0.40820  1.0000 -0.0995104008
C   C34       1.0  0.20440  0.70010  0.59180  1.0000 -0.0995104008
C   C35       1.0  0.89390  0.25370  0.39740  1.0000 -0.0198290969
C   C36       1.0  0.10610  0.74630  0.60260  1.0000 -0.0198290969
C   C37       1.0  0.96090  0.29380  0.35360  1.0000 -0.140826542
C   C38       1.0  0.03910  0.70620  0.64640  1.0000 -0.140826542
C   C39       1.0  0.93410  0.37950  0.31990  1.0000 0.054336153
C   C40       1.0  0.06590  0.62050  0.68010  1.0000 0.054336153
C   C41       1.0  0.83590  0.42330  0.33130  1.0000 -0.149277281
C   C42       1.0  0.16410  0.57670  0.66870  1.0000 -0.149277281
C   C43       1.0  0.01030  0.42740  0.27590  1.0000 0.0711103864
C   C44       1.0  0.98970  0.57260  0.72410  1.0000 0.0711103864
C   C45       1.0  0.01680  0.52970  0.26000  1.0000 -0.1553436592
C   C46       1.0  0.98320  0.47030  0.74000  1.0000 -0.1553436592
C   C47       1.0  0.09360  0.57550  0.22150  1.0000 -0.0995104008
C   C48       1.0  0.90640  0.42450  0.77850  1.0000 -0.0995104008
C   C49       1.0  0.16650  0.51680  0.19720  1.0000 -0.0113573921
C   C50       1.0  0.83350  0.48320  0.80280  1.0000 -0.0113573921
C   C51       1.0  0.15940  0.41600  0.21120  1.0000 -0.0995104008
C   C52       1.0  0.84060  0.58400  0.78880  1.0000 -0.0995104008
C   C53       1.0  0.08180  0.37070  0.25000  1.0000 -0.149277281
C   C54       1.0  0.91820  0.62930  0.75000  1.0000 -0.149277281
C   C55       1.0  0.66090  0.43280  0.38580  1.0000 0.5695265755
C   C56       1.0  0.33910  0.56720  0.61420  1.0000 0.5695265755
C   C57       1.0  0.92950  0.16440  0.43540  1.0000 0.6486161475
C   C58       1.0  0.07050  0.83560  0.56460  1.0000 0.6486161475
C   C59       1.0  0.25570  0.56560  0.15880  1.0000 0.6054231748
C   C60       1.0  0.74430  0.43440  0.84120  1.0000 0.6054231748
C   C61       1.0  0.76100  0.10300  0.10020  1.0000 -0.0266844497
C   C62       1.0  0.23900  0.89700  0.89980  1.0000 -0.0266844497
C   C63       1.0  0.71450  0.19720  0.08780  1.0000 -0.0995104008
C   C64       1.0  0.28550  0.80280  0.91220  1.0000 -0.0995104008
C   C65       1.0  0.63250  0.22650  0.12110  1.0000 -0.0113573921
C   C66       1.0  0.36750  0.77350  0.87890  1.0000 -0.0113573921
C   C67       1.0  0.59740  0.16140  0.16600  1.0000 -0.149277281
C   C68       1.0  0.40260  0.83860  0.83400  1.0000 -0.149277281
C   C69       1.0  0.64270  0.06700  0.17940  1.0000 0.0600122524
C   C70       1.0  0.35730  0.93300  0.82060  1.0000 0.0600122524
C   C71       1.0  0.72660  0.03820  0.14570  1.0000 -0.149277281
C   C72       1.0  0.27340  0.96180  0.85430  1.0000 -0.149277281
C   C73       1.0  0.60090  0.99550  0.22750  1.0000 0.0600122524
C   C74       1.0  0.39910  0.00450  0.77250  1.0000 0.0600122524
C   C75       1.0  0.59860  0.89570  0.22960  1.0000 -0.149277281
C   C76       1.0  0.40140  0.10430  0.77040  1.0000 -0.149277281
C   C77       1.0  0.55890  0.82840  0.27390  1.0000 -0.0946067348
C   C78       1.0  0.44110  0.17160  0.72610  1.0000 -0.0946067348
C   C79       1.0  0.52000  0.85980  0.31660  1.0000 -0.0266844497
C   C80       1.0  0.48000  0.14020  0.68340  1.0000 -0.0266844497
C   C81       1.0  0.52000  0.95990  0.31530  1.0000 -0.0995104008
C   C82       1.0  0.48000  0.04010  0.68470  1.0000 -0.0995104008
C   C83       1.0  0.56150  0.02690  0.27090  1.0000 -0.1553436592
C   C84       1.0  0.43850  0.97310  0.72910  1.0000 -0.1553436592
C   C85       1.0  0.84820  0.06830  0.06360  1.0000 0.6486161475
C   C86       1.0  0.15180  0.93170  0.93640  1.0000 0.6486161475
C   C87       1.0  0.57970  0.32790  0.10800  1.0000 0.5695265755
C   C88       1.0  0.42030  0.67210  0.89200  1.0000 0.5695265755
C   C89       1.0  0.48040  0.78480  0.36490  1.0000 0.599843584
C   C90       1.0  0.51960  0.21520  0.63510  1.0000 0.599843584
C   C91       1.0  0.69950  0.70820  0.95220  1.0000 -0.0363189988
C   C92       1.0  0.30050  0.29180  0.04780  1.0000 -0.0363189988
C   C93       1.0  0.75290  0.75290  0.97930  1.0000 -0.0995104008
C   C94       1.0  0.24710  0.24710  0.02070  1.0000 -0.0995104008
C   C95       1.0  0.81470  0.83440  0.95510  1.0000 -0.0266844497
C   C96       1.0  0.18530  0.16560  0.04490  1.0000 -0.0266844497
C   C97       1.0  0.82360  0.86920  0.90410  1.0000 -0.149277281
C   C98       1.0  0.17640  0.13080  0.09590  1.0000 -0.149277281
C   C99       1.0  0.77540  0.82290  0.87580  1.0000 0.0600122524
C   C100      1.0  0.22460  0.17710  0.12420  1.0000 0.0600122524
C   C101      1.0  0.71310  0.74200  0.89990  1.0000 -0.140826542
C   C102      1.0  0.28690  0.25800  0.10010  1.0000 -0.140826542
C   C103      1.0  0.79100  0.85830  0.82040  1.0000 0.0711103864
C   C104      1.0  0.20900  0.14170  0.17960  1.0000 0.0711103864
C   C105      1.0  0.71380  0.85080  0.79350  1.0000 -0.149277281
C   C106      1.0  0.28620  0.14920  0.20650  1.0000 -0.149277281
C   C107      1.0  0.72900  0.88230  0.74190  1.0000 -0.0995104008
C   C108      1.0  0.27100  0.11770  0.25810  1.0000 -0.0995104008
C   C109      1.0  0.82210  0.92350  0.71560  1.0000 -0.0113573921
C   C110      1.0  0.17790  0.07650  0.28440  1.0000 -0.0113573921
C   C111      1.0  0.90000  0.93100  0.74140  1.0000 -0.1053935737
C   C112      1.0  0.10000  0.06900  0.25860  1.0000 -0.0995104008
C   C113      1.0  0.88480  0.89880  0.79320  1.0000 -0.1553436592
C   C114      1.0  0.11520  0.10120  0.20680  1.0000 -0.1553436592
C   C115      1.0  0.63080  0.62390  0.97920  1.0000 0.6678885444
C   C116      1.0  0.36920  0.37610  0.02080  1.0000 0.6678885444
C   C117      1.0  0.87310  0.88000  0.98510  1.0000 0.6486161475
C   C118      1.0  0.12690  0.12000  0.01490  1.0000 0.6486161475
C   C119      1.0  0.83920  0.96140  0.65960  1.0000 0.5591197833
C   C120      1.0  0.16080  0.03860  0.34040  1.0000 0.5591197833
O   O1        1.0  0.94470  0.93210  0.47240  1.0000 -0.7300447599
O   O2        1.0  0.05530  0.06790  0.52760  1.0000 -0.7300447599
O   O3        1.0  0.79890  0.89890  0.52615  1.0000 -0.6183318868
O   O4        1.0  0.20110  0.10110  0.47385  1.0000 -0.6183318868
O   O5        1.0  0.60000  0.56710  0.45682  1.0000 -0.7098989412
O   O6        1.0  0.40000  0.43290  0.54318  1.0000 -0.7098989412
O   O7        1.0  0.62460  0.59060  0.52898  1.0000 -0.6786483899
O   O8        1.0  0.37540  0.40940  0.47102  1.0000 -0.6786483899
O   O9        1.0  0.04470  0.88890  0.14483  1.0000 -0.6183318868
O   O10       1.0  0.95530  0.11110  0.85517  1.0000 -0.6183318868
O   O11       1.0  0.93050  0.78590  0.14101  1.0000 -0.6297855899
O   O12       1.0  0.06950  0.21410  0.85899  1.0000 -0.6297855899
O   O13       1.0  0.63980  0.51700  0.35810  1.0000 -0.6530345157
O   O14       1.0  0.36020  0.48300  0.64190  1.0000 -0.6530345157
O   O15       1.0  0.59570  0.39190  0.42349  1.0000 -0.6183318868
O   O16       1.0  0.40430  0.60810  0.57651  1.0000 -0.6183318868
O   O17       1.0  0.86880  0.13530  0.47613  1.0000 -0.6717757956
O   O18       1.0  0.13120  0.86470  0.52387  1.0000 -0.6717757956
O   O19       1.0  0.01880  0.12690  0.42219  1.0000 -0.6628455893
O   O20       1.0  0.98120  0.87310  0.57781  1.0000 -0.6628455893
O   O21       1.0  0.25940  0.65960  0.14720  1.0000 -0.561000742
O   O22       1.0  0.74060  0.34040  0.85280  1.0000 -0.561000742
O   O23       1.0  0.32460  0.50820  0.14131  1.0000 -0.7098989412
O   O24       1.0  0.67540  0.49180  0.85869  1.0000 -0.7098989412
O   O25       1.0  0.88920  0.98420  0.07753  1.0000 -0.6530345157
O   O26       1.0  0.11080  0.01580  0.92247  1.0000 -0.6530345157
O   O27       1.0  0.87640  0.12750  0.02166  1.0000 -0.6913354273
O   O28       1.0  0.12360  0.87250  0.97834  1.0000 -0.6913354273
O   O29       1.0  0.50400  0.35080  0.13824  1.0000 -0.6381296292
O   O30       1.0  0.49600  0.64920  0.86176  1.0000 -0.6381296292
O   O31       1.0  0.61290  0.38670  0.06686  1.0000 -0.6297855899
O   O32       1.0  0.38710  0.61330  0.93314  1.0000 -0.6297855899
O   O33       1.0  0.49080  0.69450  0.36314  1.0000 -0.7098989412
O   O34       1.0  0.50920  0.30550  0.63686  1.0000 -0.7098989412
O   O35       1.0  0.44330  0.81500  0.40310  1.0000 -0.5440589562
O   O36       1.0  0.55670  0.18500  0.59690  1.0000 -0.5440589562
O   O37       1.0  0.59820  0.57200  0.95505  1.0000 -0.6913354273
O   O38       1.0  0.40180  0.42800  0.04495  1.0000 -0.6913354273
O   O39       1.0  0.61130  0.60710  0.02570  1.0000 -0.6913354273
O   O40       1.0  0.38870  0.39290  0.97430  1.0000 -0.6913354273
O   O41       1.0  0.90160  0.96760  0.96699  1.0000 -0.7098989412
O   O42       1.0  0.09840  0.03240  0.03301  1.0000 -0.7098989412
O   O43       1.0  0.89260  0.82690  0.02565  1.0000 -0.6297855899
O   O44       1.0  0.10740  0.17310  0.97435  1.0000 -0.6297855899
O   O45       1.0  0.77960  0.93550  0.63574  1.0000 -0.5987908021
O   O46       1.0  0.22040  0.06450  0.36426  1.0000 -0.5987908021
O   O47       1.0  0.91290  0.01790  0.63864  1.0000 -0.6297855899
O   O48       1.0  0.08710  0.98210  0.36136  1.0000 -0.6297855899
