# DDEC6 charges by PACMAN v1.1 (https://github.com/mtap-research/PACMAN-charge/)
data_2015[Gd][nan]3[ASR]1
_chemical_formula_sum              "Gd4 H24 C24 O24"
_cell_length_a       7.705
_cell_length_b       11.9893
_cell_length_c       12.1828
_cell_angle_alpha    112.143
_cell_angle_beta     89.979
_cell_angle_gamma    99.58

_symmetry_space_group_name_H-M    "P 1"
_symmetry_Int_Tables_number       1

loop_
  _symmetry_equiv_pos_as_xyz
  'x, y, z'

loop_
  _atom_site_type_symbol
  _atom_site_label
  _atom_site_symmetry_multiplicity
  _atom_site_fract_x
  _atom_site_fract_y
  _atom_site_fract_z
  _atom_site_occupancy
  _atom_site_charge
Gd  Gd1       1.0  0.99240  0.14628  0.85478  1.0000 2.0169163626
Gd  Gd2       1.0  0.00760  0.85372  0.14522  1.0000 2.0169163626
Gd  Gd3       1.0  0.49230  0.14571  0.75328  1.0000 2.0107289237
Gd  Gd4       1.0  0.50770  0.85429  0.24672  1.0000 2.0107289237
H   H1        1.0  0.74280  0.21360  0.30560  1.0000 0.1330366365
H   H2        1.0  0.25720  0.78640  0.69440  1.0000 0.1330366365
H   H3        1.0  0.85990  0.24630  0.21350  1.0000 0.1330366365
H   H4        1.0  0.14010  0.75370  0.78650  1.0000 0.1330366365
H   H5        1.0  0.63310  0.74840  0.53380  1.0000 0.1330366365
H   H6        1.0  0.36690  0.25160  0.46620  1.0000 0.1330366365
H   H7        1.0  0.74850  0.78360  0.65200  1.0000 0.1330366365
H   H8        1.0  0.25150  0.21640  0.34800  1.0000 0.1330366365
H   H9        1.0  0.88570  0.54970  0.15030  1.0000 0.1459679884
H   H10       1.0  0.11430  0.45030  0.84970  1.0000 0.1459679884
H   H11       1.0  0.71570  0.48140  0.18480  1.0000 0.1429175344
H   H12       1.0  0.28430  0.51860  0.81520  1.0000 0.1429175344
H   H13       1.0  0.97770  0.90840  0.57840  1.0000 0.1429175344
H   H14       1.0  0.02230  0.09160  0.42160  1.0000 0.1429175344
H   H15       1.0  0.95670  0.76760  0.50230  1.0000 0.1429175344
H   H16       1.0  0.04330  0.23240  0.49770  1.0000 0.1429175344
H   H17       1.0  0.58290  0.41200  0.99550  1.0000 0.1330366365
H   H18       1.0  0.41710  0.58800  0.00450  1.0000 0.1330366365
H   H19       1.0  0.71750  0.50450  0.96070  1.0000 0.156306034
H   H20       1.0  0.28250  0.49550  0.03930  1.0000 0.156306034
H   H21       1.0  0.51800  0.10170  0.15180  1.0000 0.1429175344
H   H22       1.0  0.48200  0.89830  0.84820  1.0000 0.1429175344
H   H23       1.0  0.55720  0.24160  0.17500  1.0000 0.1330366365
H   H24       1.0  0.44280  0.75840  0.82500  1.0000 0.1330366365
C   C1        1.0  0.64100  0.13700  0.01800  1.0000 0.6483870429
C   C2        1.0  0.35900  0.86300  0.98200  1.0000 0.6483870429
C   C3        1.0  0.77200  0.18300  0.22300  1.0000 -0.3189408201
C   C4        1.0  0.22800  0.81700  0.77700  1.0000 -0.3189408201
C   C5        1.0  0.85200  0.07400  0.20100  1.0000 0.6753977221
C   C6        1.0  0.14800  0.92600  0.79900  1.0000 0.6753977221
C   C7        1.0  0.64100  0.92600  0.64600  1.0000 0.6483870429
C   C8        1.0  0.35900  0.07400  0.35400  1.0000 0.6483870429
C   C9        1.0  0.71900  0.81200  0.59100  1.0000 -0.2763181347
C   C10       1.0  0.28100  0.18800  0.40900  1.0000 -0.2763181347
C   C11       1.0  0.75800  0.52900  0.13800  1.0000 -0.3097636717
C   C12       1.0  0.24200  0.47100  0.86200  1.0000 -0.3097636717
C   C13       1.0  0.68400  0.64200  0.17900  1.0000 0.6413035077
C   C14       1.0  0.31600  0.35800  0.82100  1.0000 0.6413035077
C   C15       1.0  0.85600  0.85900  0.41900  1.0000 0.6565757227
C   C16       1.0  0.14400  0.14100  0.58100  1.0000 0.6565757227
C   C17       1.0  0.89800  0.83800  0.52400  1.0000 -0.3189408201
C   C18       1.0  0.10200  0.16200  0.47600  1.0000 -0.3189408201
C   C19       1.0  0.70600  0.45100  0.00400  1.0000 -0.3097636717
C   C20       1.0  0.29400  0.54900  0.99600  1.0000 -0.3097636717
C   C21       1.0  0.81600  0.35600  0.95300  1.0000 0.6565757227
C   C22       1.0  0.18400  0.64400  0.04700  1.0000 0.6565757227
C   C23       1.0  0.60600  0.16700  0.14500  1.0000 -0.2763181347
C   C24       1.0  0.39400  0.83300  0.85500  1.0000 -0.2763181347
O   O1        1.0  0.77600  0.27350  0.84620  1.0000 -0.7710136491
O   O2        1.0  0.22400  0.72650  0.15380  1.0000 -0.7710136491
O   O3        1.0  0.95600  0.35200  0.00400  1.0000 -0.6029848176
O   O4        1.0  0.04400  0.64800  0.99600  1.0000 -0.6029848176
O   O5        1.0  0.75900  0.97700  0.20900  1.0000 -0.7775668221
O   O6        1.0  0.24100  0.02300  0.79100  1.0000 -0.7775668221
O   O7        1.0  0.01200  0.06600  0.17100  1.0000 -0.6493281084
O   O8        1.0  0.98800  0.93400  0.82900  1.0000 -0.6493281084
O   O9        1.0  0.54000  0.64600  0.24100  1.0000 -0.6493281084
O   O10       1.0  0.46000  0.35400  0.75900  1.0000 -0.6552661973
O   O11       1.0  0.72200  0.72500  0.14430  1.0000 -0.6493281084
O   O12       1.0  0.27800  0.27500  0.85570  1.0000 -0.6493281084
O   O13       1.0  0.50900  0.14900  0.97300  1.0000 -0.5696235257
O   O14       1.0  0.49100  0.85100  0.02700  1.0000 -0.5696235257
O   O15       1.0  0.77500  0.09900  0.97600  1.0000 -0.6180482226
O   O16       1.0  0.22500  0.90100  0.02400  1.0000 -0.6180482226
O   O17       1.0  0.98800  0.84500  0.35100  1.0000 -0.6843881327
O   O18       1.0  0.01200  0.15500  0.64900  1.0000 -0.685013445
O   O19       1.0  0.72400  0.89000  0.39900  1.0000 -0.5647888499
O   O20       1.0  0.27600  0.11000  0.60100  1.0000 -0.5696235257
O   O21       1.0  0.73300  0.01900  0.72500  1.0000 -0.7046698648
O   O22       1.0  0.26700  0.98100  0.27500  1.0000 -0.7046698648
O   O23       1.0  0.48900  0.93000  0.62100  1.0000 -0.5696235257
O   O24       1.0  0.51100  0.07000  0.37900  1.0000 -0.5696235257
