# DDEC6 charges by PACMAN v1.1 (https://github.com/mtap-research/PACMAN-charge/)
data_2015[Er][tcs]3[ASR]1
_chemical_formula_sum              "Er4 H12 C24 O24"
_cell_length_a       8.438
_cell_length_b       17.081
_cell_length_c       9.585
_cell_angle_alpha    90
_cell_angle_beta     111.72
_cell_angle_gamma    90

_symmetry_space_group_name_H-M    "P 1"
_symmetry_Int_Tables_number       1

loop_
  _symmetry_equiv_pos_as_xyz
  'x, y, z'

loop_
  _atom_site_type_symbol
  _atom_site_label
  _atom_site_symmetry_multiplicity
  _atom_site_fract_x
  _atom_site_fract_y
  _atom_site_fract_z
  _atom_site_occupancy
  _atom_site_charge
Er  Er1       1.0  0.33691  0.24200  0.02177  1.0000 2.0561653643
Er  Er2       1.0  0.66309  0.74200  0.47823  1.0000 2.0561653643
Er  Er3       1.0  0.66309  0.75800  0.97823  1.0000 2.0561653643
Er  Er4       1.0  0.33691  0.25800  0.52177  1.0000 2.0561653643
H   H1        1.0  0.88530  0.26740  0.41710  1.0000 0.1343739785
H   H2        1.0  0.11470  0.76740  0.08290  1.0000 0.1343739785
H   H3        1.0  0.11470  0.73260  0.58290  1.0000 0.1343739785
H   H4        1.0  0.88530  0.23260  0.91710  1.0000 0.1343739785
H   H5        1.0  0.79690  0.32470  0.64630  1.0000 0.148328942
H   H6        1.0  0.20310  0.82470  0.85370  1.0000 0.148328942
H   H7        1.0  0.20310  0.67530  0.35370  1.0000 0.148328942
H   H8        1.0  0.79690  0.17530  0.14630  1.0000 0.148328942
H   H9        1.0  0.39900  0.51990  0.07920  1.0000 0.1445594102
H   H10       1.0  0.60100  0.01990  0.42080  1.0000 0.1445594102
H   H11       1.0  0.60100  0.48010  0.92080  1.0000 0.1445594102
H   H12       1.0  0.39900  0.98010  0.57920  1.0000 0.1445594102
C   C1        1.0  0.62250  0.28660  0.36400  1.0000 0.7107045844
C   C2        1.0  0.37750  0.78660  0.13600  1.0000 0.7107045844
C   C3        1.0  0.37750  0.71340  0.63600  1.0000 0.7107045844
C   C4        1.0  0.62250  0.21340  0.86400  1.0000 0.7107045844
C   C5        1.0  0.80900  0.28370  0.46060  1.0000 -0.1602571339
C   C6        1.0  0.19100  0.78370  0.03940  1.0000 -0.1602571339
C   C7        1.0  0.19100  0.71630  0.53940  1.0000 -0.1602571339
C   C8        1.0  0.80900  0.21630  0.96060  1.0000 -0.1602571339
C   C9        1.0  0.87020  0.30320  0.60410  1.0000 -0.1761271835
C   C10       1.0  0.12980  0.80320  0.89590  1.0000 -0.1761271835
C   C11       1.0  0.12980  0.69680  0.39590  1.0000 -0.1761271835
C   C12       1.0  0.87020  0.19680  0.10410  1.0000 -0.1761271835
C   C13       1.0  0.05370  0.29180  0.70070  1.0000 0.7107045844
C   C14       1.0  0.94630  0.79180  0.79930  1.0000 0.7107045844
C   C15       1.0  0.94630  0.70820  0.29930  1.0000 0.7107045844
C   C16       1.0  0.05370  0.20820  0.20070  1.0000 0.7107045844
C   C17       1.0  0.40230  0.40140  0.02510  1.0000 0.6074911773
C   C18       1.0  0.59770  0.90140  0.47490  1.0000 0.6074911773
C   C19       1.0  0.59770  0.59860  0.97490  1.0000 0.6074911773
C   C20       1.0  0.40230  0.09860  0.52510  1.0000 0.6074911773
C   C21       1.0  0.44710  0.48560  0.03060  1.0000 -0.1542527706
C   C22       1.0  0.55290  0.98560  0.46940  1.0000 -0.1542527706
C   C23       1.0  0.55290  0.51440  0.96940  1.0000 -0.1542527706
C   C24       1.0  0.44710  0.01440  0.53060  1.0000 -0.1542527706
O   O1        1.0  0.58510  0.26740  0.22810  1.0000 -0.6697911129
O   O2        1.0  0.41490  0.76740  0.27190  1.0000 -0.6697911129
O   O3        1.0  0.41490  0.73260  0.77190  1.0000 -0.6697911129
O   O4        1.0  0.58510  0.23260  0.72810  1.0000 -0.6697911129
O   O5        1.0  0.51850  0.30780  0.42160  1.0000 -0.699227798
O   O6        1.0  0.48150  0.80780  0.07840  1.0000 -0.699227798
O   O7        1.0  0.48150  0.69220  0.57840  1.0000 -0.699227798
O   O8        1.0  0.51850  0.19220  0.92160  1.0000 -0.699227798
O   O9        1.0  0.15770  0.27220  0.64060  1.0000 -0.7387843759
O   O10       1.0  0.84230  0.77220  0.85940  1.0000 -0.7387843759
O   O11       1.0  0.84230  0.72780  0.35940  1.0000 -0.7387843759
O   O12       1.0  0.15770  0.22780  0.14060  1.0000 -0.7387843759
O   O13       1.0  0.09420  0.29970  0.84070  1.0000 -0.6565903754
O   O14       1.0  0.90580  0.79970  0.65930  1.0000 -0.6565903754
O   O15       1.0  0.90580  0.70030  0.15930  1.0000 -0.6565903754
O   O16       1.0  0.09420  0.20030  0.34070  1.0000 -0.6565903754
O   O17       1.0  0.31120  0.37750  0.09520  1.0000 -0.5875061781
O   O18       1.0  0.68880  0.87750  0.40480  1.0000 -0.5875061781
O   O19       1.0  0.68880  0.62250  0.90480  1.0000 -0.5875061781
O   O20       1.0  0.31120  0.12250  0.59520  1.0000 -0.5875061781
O   O21       1.0  0.45830  0.35370  0.95090  1.0000 -0.6697911129
O   O22       1.0  0.54170  0.85370  0.54910  1.0000 -0.6697911129
O   O23       1.0  0.54170  0.64630  0.04910  1.0000 -0.6697911129
O   O24       1.0  0.45830  0.14630  0.45090  1.0000 -0.6697911129
