# DDEC6 charges by PACMAN v1.1 (https://github.com/mtap-research/PACMAN-charge/)
data_2015[Zr][spn]3[ASR]1
_chemical_formula_sum              "Zr24 H96 C192 N24 O80"
_cell_length_a       39.2929
_cell_length_b       39.2929
_cell_length_c       39.2929
_cell_angle_alpha    60
_cell_angle_beta     60
_cell_angle_gamma    60

_symmetry_space_group_name_H-M    "P 1"
_symmetry_Int_Tables_number       1

loop_
  _symmetry_equiv_pos_as_xyz
  'x, y, z'

loop_
  _atom_site_type_symbol
  _atom_site_label
  _atom_site_symmetry_multiplicity
  _atom_site_fract_x
  _atom_site_fract_y
  _atom_site_fract_z
  _atom_site_occupancy
  _atom_site_charge
Zr  Zr1       1.0  0.80010  0.89100  0.41790  1.0000 2.3910361869
Zr  Zr2       1.0  0.89100  0.41790  0.80010  1.0000 2.398823388
Zr  Zr3       1.0  0.89100  0.80010  0.89100  1.0000 2.3910361869
Zr  Zr4       1.0  0.41790  0.89100  0.89100  1.0000 2.3910361869
Zr  Zr5       1.0  0.89100  0.89100  0.80010  1.0000 2.398823388
Zr  Zr6       1.0  0.89100  0.41790  0.89100  1.0000 2.3910361869
Zr  Zr7       1.0  0.41790  0.80010  0.89100  1.0000 2.3910361869
Zr  Zr8       1.0  0.41790  0.89100  0.80010  1.0000 2.398823388
Zr  Zr9       1.0  0.80010  0.89100  0.89100  1.0000 2.3910361869
Zr  Zr10      1.0  0.80010  0.41790  0.89100  1.0000 2.3910361869
Zr  Zr11      1.0  0.89100  0.89100  0.41790  1.0000 2.3910361869
Zr  Zr12      1.0  0.89100  0.80010  0.41790  1.0000 2.3910361869
Zr  Zr13      1.0  0.85948  0.95016  0.33088  1.0000 2.3479443228
Zr  Zr14      1.0  0.85948  0.33088  0.85948  1.0000 2.3551005995
Zr  Zr15      1.0  0.95016  0.85948  0.85948  1.0000 2.3479443228
Zr  Zr16      1.0  0.33088  0.85948  0.95016  1.0000 2.3479443228
Zr  Zr17      1.0  0.85948  0.33088  0.95016  1.0000 2.3479443228
Zr  Zr18      1.0  0.33088  0.85948  0.85948  1.0000 2.3551005995
Zr  Zr19      1.0  0.95016  0.33088  0.85948  1.0000 2.3479443228
Zr  Zr20      1.0  0.85948  0.85948  0.95016  1.0000 2.3479443228
Zr  Zr21      1.0  0.33088  0.95016  0.85948  1.0000 2.3479443228
Zr  Zr22      1.0  0.85948  0.95016  0.85948  1.0000 2.3479443228
Zr  Zr23      1.0  0.95016  0.85948  0.33088  1.0000 2.3479443228
Zr  Zr24      1.0  0.85948  0.85948  0.33088  1.0000 2.3479443228
H   H1        1.0  0.71902  0.82948  0.53518  1.0000 0.0909874347
H   H2        1.0  0.91632  0.53518  0.71902  1.0000 0.0909874347
H   H3        1.0  0.82948  0.71902  0.91632  1.0000 0.0909874347
H   H4        1.0  0.53518  0.91632  0.82948  1.0000 0.0909874347
H   H5        1.0  0.82948  0.91632  0.71902  1.0000 0.0909874347
H   H6        1.0  0.91632  0.53518  0.82948  1.0000 0.0909874347
H   H7        1.0  0.53518  0.71902  0.91632  1.0000 0.0909874347
H   H8        1.0  0.82948  0.53518  0.91632  1.0000 0.0909874347
H   H9        1.0  0.53518  0.91632  0.71902  1.0000 0.0909874347
H   H10       1.0  0.91632  0.71902  0.82948  1.0000 0.0909874347
H   H11       1.0  0.53518  0.71902  0.82948  1.0000 0.0909874347
H   H12       1.0  0.82948  0.53518  0.71902  1.0000 0.0909874347
H   H13       1.0  0.53518  0.82948  0.91632  1.0000 0.0909874347
H   H14       1.0  0.91632  0.82948  0.71902  1.0000 0.0909874347
H   H15       1.0  0.71902  0.91632  0.82948  1.0000 0.0909874347
H   H16       1.0  0.71902  0.53518  0.91632  1.0000 0.0909874347
H   H17       1.0  0.82948  0.91632  0.53518  1.0000 0.0909874347
H   H18       1.0  0.91632  0.71902  0.53518  1.0000 0.0909874347
H   H19       1.0  0.71902  0.82948  0.91632  1.0000 0.0909874347
H   H20       1.0  0.82948  0.71902  0.53518  1.0000 0.0909874347
H   H21       1.0  0.91632  0.82948  0.53518  1.0000 0.0909874347
H   H22       1.0  0.71902  0.53518  0.82948  1.0000 0.0909874347
H   H23       1.0  0.71902  0.91632  0.53518  1.0000 0.0909874347
H   H24       1.0  0.53518  0.82948  0.71902  1.0000 0.0909874347
H   H25       1.0  0.68021  0.79067  0.60317  1.0000 0.0909874347
H   H26       1.0  0.92595  0.60317  0.68021  1.0000 0.0909874347
H   H27       1.0  0.79067  0.68021  0.92595  1.0000 0.0909874347
H   H28       1.0  0.60317  0.92595  0.79067  1.0000 0.0909874347
H   H29       1.0  0.79067  0.92595  0.68021  1.0000 0.0909874347
H   H30       1.0  0.92595  0.60317  0.79067  1.0000 0.0909874347
H   H31       1.0  0.60317  0.68021  0.92595  1.0000 0.0909874347
H   H32       1.0  0.79067  0.60317  0.92595  1.0000 0.0909874347
H   H33       1.0  0.60317  0.92595  0.68021  1.0000 0.0909874347
H   H34       1.0  0.92595  0.68021  0.79067  1.0000 0.0909874347
H   H35       1.0  0.60317  0.68021  0.79067  1.0000 0.0909874347
H   H36       1.0  0.79067  0.60317  0.68021  1.0000 0.0909874347
H   H37       1.0  0.60317  0.79067  0.92595  1.0000 0.0909874347
H   H38       1.0  0.92595  0.79067  0.68021  1.0000 0.0909874347
H   H39       1.0  0.68021  0.92595  0.79067  1.0000 0.0909874347
H   H40       1.0  0.68021  0.60317  0.92595  1.0000 0.0909874347
H   H41       1.0  0.79067  0.92595  0.60317  1.0000 0.0909874347
H   H42       1.0  0.92595  0.68021  0.60317  1.0000 0.0909874347
H   H43       1.0  0.68021  0.79067  0.92595  1.0000 0.0909874347
H   H44       1.0  0.79067  0.68021  0.60317  1.0000 0.0909874347
H   H45       1.0  0.92595  0.79067  0.60317  1.0000 0.0909874347
H   H46       1.0  0.68021  0.60317  0.79067  1.0000 0.0909874347
H   H47       1.0  0.68021  0.92595  0.60317  1.0000 0.0909874347
H   H48       1.0  0.60317  0.79067  0.68021  1.0000 0.0909874347
H   H49       1.0  0.91937  0.02983  0.21273  1.0000 0.0909874347
H   H50       1.0  0.83807  0.21273  0.91937  1.0000 0.0909874347
H   H51       1.0  0.02983  0.91937  0.83807  1.0000 0.0909874347
H   H52       1.0  0.21273  0.83807  0.02983  1.0000 0.0909874347
H   H53       1.0  0.02983  0.83807  0.91937  1.0000 0.0909874347
H   H54       1.0  0.83807  0.21273  0.02983  1.0000 0.0909874347
H   H55       1.0  0.21273  0.91937  0.83807  1.0000 0.0909874347
H   H56       1.0  0.02983  0.21273  0.83807  1.0000 0.0909874347
H   H57       1.0  0.21273  0.83807  0.91937  1.0000 0.0909874347
H   H58       1.0  0.83807  0.91937  0.02983  1.0000 0.0909874347
H   H59       1.0  0.21273  0.91937  0.02983  1.0000 0.0909874347
H   H60       1.0  0.02983  0.21273  0.91937  1.0000 0.0909874347
H   H61       1.0  0.21273  0.02983  0.83807  1.0000 0.0909874347
H   H62       1.0  0.83807  0.02983  0.91937  1.0000 0.0909874347
H   H63       1.0  0.91937  0.83807  0.02983  1.0000 0.0909874347
H   H64       1.0  0.91937  0.21273  0.83807  1.0000 0.0909874347
H   H65       1.0  0.02983  0.83807  0.21273  1.0000 0.0909874347
H   H66       1.0  0.83807  0.91937  0.21273  1.0000 0.0909874347
H   H67       1.0  0.91937  0.02983  0.83807  1.0000 0.0909874347
H   H68       1.0  0.02983  0.91937  0.21273  1.0000 0.0909874347
H   H69       1.0  0.83807  0.02983  0.21273  1.0000 0.0909874347
H   H70       1.0  0.91937  0.21273  0.02983  1.0000 0.0909874347
H   H71       1.0  0.91937  0.83807  0.21273  1.0000 0.0909874347
H   H72       1.0  0.21273  0.02983  0.91937  1.0000 0.0909874347
H   H73       1.0  0.95818  0.06864  0.14474  1.0000 0.0950744352
H   H74       1.0  0.82844  0.14474  0.95818  1.0000 0.0950744352
H   H75       1.0  0.06864  0.95818  0.82844  1.0000 0.0950744352
H   H76       1.0  0.14474  0.82844  0.06864  1.0000 0.0909874347
H   H77       1.0  0.06864  0.82844  0.95818  1.0000 0.0950744352
H   H78       1.0  0.82844  0.14474  0.06864  1.0000 0.0950744352
H   H79       1.0  0.14474  0.95818  0.82844  1.0000 0.0950744352
H   H80       1.0  0.06864  0.14474  0.82844  1.0000 0.0950744352
H   H81       1.0  0.14474  0.82844  0.95818  1.0000 0.0950744352
H   H82       1.0  0.82844  0.95818  0.06864  1.0000 0.0950744352
H   H83       1.0  0.14474  0.95818  0.06864  1.0000 0.0950744352
H   H84       1.0  0.06864  0.14474  0.95818  1.0000 0.0950744352
H   H85       1.0  0.14474  0.06864  0.82844  1.0000 0.0950744352
H   H86       1.0  0.82844  0.06864  0.95818  1.0000 0.0950744352
H   H87       1.0  0.95818  0.82844  0.06864  1.0000 0.0950744352
H   H88       1.0  0.95818  0.14474  0.82844  1.0000 0.0950744352
H   H89       1.0  0.06864  0.82844  0.14474  1.0000 0.0950744352
H   H90       1.0  0.82844  0.95818  0.14474  1.0000 0.0950744352
H   H91       1.0  0.95818  0.06864  0.82844  1.0000 0.0950744352
H   H92       1.0  0.06864  0.95818  0.14474  1.0000 0.0909874347
H   H93       1.0  0.82844  0.06864  0.14474  1.0000 0.0950744352
H   H94       1.0  0.95818  0.14474  0.06864  1.0000 0.0950744352
H   H95       1.0  0.95818  0.82844  0.14474  1.0000 0.0950744352
H   H96       1.0  0.14474  0.06864  0.95818  1.0000 0.0950744352
C   C1        1.0  0.80209  0.80209  0.49005  1.0000 0.6275762196
C   C2        1.0  0.90577  0.49005  0.80209  1.0000 0.6275762196
C   C3        1.0  0.80209  0.80209  0.90577  1.0000 0.6275762196
C   C4        1.0  0.49005  0.90577  0.80209  1.0000 0.6275762196
C   C5        1.0  0.80209  0.90577  0.80209  1.0000 0.6275762196
C   C6        1.0  0.49005  0.80209  0.90577  1.0000 0.6275762196
C   C7        1.0  0.80209  0.49005  0.90577  1.0000 0.6275762196
C   C8        1.0  0.90577  0.80209  0.80209  1.0000 0.6275762196
C   C9        1.0  0.49005  0.80209  0.80209  1.0000 0.6275762196
C   C10       1.0  0.80209  0.49005  0.80209  1.0000 0.6275762196
C   C11       1.0  0.80209  0.90577  0.49005  1.0000 0.6275762196
C   C12       1.0  0.90577  0.80209  0.49005  1.0000 0.6275762196
C   C13       1.0  0.77746  0.77746  0.52968  1.0000 -0.0731146065
C   C14       1.0  0.91540  0.52968  0.77746  1.0000 -0.0731146065
C   C15       1.0  0.77746  0.77746  0.91540  1.0000 -0.0731146065
C   C16       1.0  0.52968  0.91540  0.77746  1.0000 -0.0731146065
C   C17       1.0  0.77746  0.91540  0.77746  1.0000 -0.0731146065
C   C18       1.0  0.52968  0.77746  0.91540  1.0000 -0.0731146065
C   C19       1.0  0.77746  0.52968  0.91540  1.0000 -0.0731146065
C   C20       1.0  0.91540  0.77746  0.77746  1.0000 -0.0731146065
C   C21       1.0  0.52968  0.77746  0.77746  1.0000 -0.0731146065
C   C22       1.0  0.77746  0.52968  0.77746  1.0000 -0.0731146065
C   C23       1.0  0.77746  0.91540  0.52968  1.0000 -0.0731146065
C   C24       1.0  0.91540  0.77746  0.52968  1.0000 -0.0731146065
C   C25       1.0  0.73494  0.79680  0.54944  1.0000 -0.102165377
C   C26       1.0  0.91882  0.54944  0.73494  1.0000 -0.102165377
C   C27       1.0  0.79680  0.73494  0.91882  1.0000 -0.102165377
C   C28       1.0  0.54944  0.91882  0.79680  1.0000 -0.102165377
C   C29       1.0  0.79680  0.91882  0.73494  1.0000 -0.102165377
C   C30       1.0  0.91882  0.54944  0.79680  1.0000 -0.102165377
C   C31       1.0  0.54944  0.73494  0.91882  1.0000 -0.102165377
C   C32       1.0  0.79680  0.54944  0.91882  1.0000 -0.102165377
C   C33       1.0  0.54944  0.91882  0.73494  1.0000 -0.102165377
C   C34       1.0  0.91882  0.73494  0.79680  1.0000 -0.102165377
C   C35       1.0  0.54944  0.73494  0.79680  1.0000 -0.102165377
C   C36       1.0  0.79680  0.54944  0.73494  1.0000 -0.102165377
C   C37       1.0  0.54944  0.79680  0.91882  1.0000 -0.102165377
C   C38       1.0  0.91882  0.79680  0.73494  1.0000 -0.102165377
C   C39       1.0  0.73494  0.91882  0.79680  1.0000 -0.102165377
C   C40       1.0  0.73494  0.54944  0.91882  1.0000 -0.102165377
C   C41       1.0  0.79680  0.91882  0.54944  1.0000 -0.102165377
C   C42       1.0  0.91882  0.73494  0.54944  1.0000 -0.102165377
C   C43       1.0  0.73494  0.79680  0.91882  1.0000 -0.102165377
C   C44       1.0  0.79680  0.73494  0.54944  1.0000 -0.102165377
C   C45       1.0  0.91882  0.79680  0.54944  1.0000 -0.102165377
C   C46       1.0  0.73494  0.54944  0.79680  1.0000 -0.102165377
C   C47       1.0  0.73494  0.91882  0.54944  1.0000 -0.102165377
C   C48       1.0  0.54944  0.79680  0.73494  1.0000 -0.102165377
C   C49       1.0  0.71267  0.77451  0.58853  1.0000 -0.1229150826
C   C50       1.0  0.92429  0.58853  0.71267  1.0000 -0.1229150826
C   C51       1.0  0.77451  0.71267  0.92429  1.0000 -0.1229150826
C   C52       1.0  0.58853  0.92429  0.77451  1.0000 -0.1229150826
C   C53       1.0  0.77451  0.92429  0.71267  1.0000 -0.1229150826
C   C54       1.0  0.92429  0.58853  0.77451  1.0000 -0.1229150826
C   C55       1.0  0.58853  0.71267  0.92429  1.0000 -0.1229150826
C   C56       1.0  0.77451  0.58853  0.92429  1.0000 -0.1229150826
C   C57       1.0  0.58853  0.92429  0.71267  1.0000 -0.1229150826
C   C58       1.0  0.92429  0.71267  0.77451  1.0000 -0.1229150826
C   C59       1.0  0.58853  0.71267  0.77451  1.0000 -0.1229150826
C   C60       1.0  0.77451  0.58853  0.71267  1.0000 -0.1229150826
C   C61       1.0  0.58853  0.77451  0.92429  1.0000 -0.1229150826
C   C62       1.0  0.92429  0.77451  0.71267  1.0000 -0.1229150826
C   C63       1.0  0.71267  0.92429  0.77451  1.0000 -0.1229150826
C   C64       1.0  0.71267  0.58853  0.92429  1.0000 -0.1229150826
C   C65       1.0  0.77451  0.92429  0.58853  1.0000 -0.1229150826
C   C66       1.0  0.92429  0.71267  0.58853  1.0000 -0.1229150826
C   C67       1.0  0.71267  0.77451  0.92429  1.0000 -0.1229150826
C   C68       1.0  0.77451  0.71267  0.58853  1.0000 -0.1229150826
C   C69       1.0  0.92429  0.77451  0.58853  1.0000 -0.1229150826
C   C70       1.0  0.71267  0.58853  0.77451  1.0000 -0.1229150826
C   C71       1.0  0.71267  0.92429  0.58853  1.0000 -0.1229150826
C   C72       1.0  0.58853  0.77451  0.71267  1.0000 -0.1229150826
C   C73       1.0  0.73235  0.73235  0.60885  1.0000 -0.0032767946
C   C74       1.0  0.92645  0.60885  0.73235  1.0000 -0.0032767946
C   C75       1.0  0.73235  0.73235  0.92645  1.0000 -0.0032767946
C   C76       1.0  0.60885  0.92645  0.73235  1.0000 -0.0032767946
C   C77       1.0  0.73235  0.92645  0.73235  1.0000 -0.0032767946
C   C78       1.0  0.60885  0.73235  0.92645  1.0000 -0.0032767946
C   C79       1.0  0.73235  0.60885  0.92645  1.0000 -0.0032767946
C   C80       1.0  0.92645  0.73235  0.73235  1.0000 -0.0032767946
C   C81       1.0  0.60885  0.73235  0.73235  1.0000 -0.0032767946
C   C82       1.0  0.73235  0.60885  0.73235  1.0000 -0.0032767946
C   C83       1.0  0.73235  0.92645  0.60885  1.0000 -0.0032767946
C   C84       1.0  0.92645  0.73235  0.60885  1.0000 -0.0032767946
C   C85       1.0  0.70965  0.70965  0.65171  1.0000 0.376642334
C   C86       1.0  0.92899  0.65171  0.70965  1.0000 0.376642334
C   C87       1.0  0.70965  0.70965  0.92899  1.0000 0.376642334
C   C88       1.0  0.65171  0.92899  0.70965  1.0000 0.376642334
C   C89       1.0  0.70965  0.92899  0.70965  1.0000 0.376642334
C   C90       1.0  0.65171  0.70965  0.92899  1.0000 0.376642334
C   C91       1.0  0.70965  0.65171  0.92899  1.0000 0.376642334
C   C92       1.0  0.92899  0.70965  0.70965  1.0000 0.376642334
C   C93       1.0  0.65171  0.70965  0.70965  1.0000 0.376642334
C   C94       1.0  0.70965  0.65171  0.70965  1.0000 0.376642334
C   C95       1.0  0.70965  0.92899  0.65171  1.0000 0.376642334
C   C96       1.0  0.92899  0.70965  0.65171  1.0000 0.376642334
C   C97       1.0  0.94676  0.94676  0.25786  1.0000 0.6012677675
C   C98       1.0  0.84862  0.25786  0.94676  1.0000 0.6012677675
C   C99       1.0  0.94676  0.94676  0.84862  1.0000 0.6012677675
C   C100      1.0  0.25786  0.84862  0.94676  1.0000 0.6012677675
C   C101      1.0  0.94676  0.84862  0.94676  1.0000 0.6012677675
C   C102      1.0  0.25786  0.94676  0.84862  1.0000 0.6012677675
C   C103      1.0  0.94676  0.25786  0.84862  1.0000 0.6012677675
C   C104      1.0  0.84862  0.94676  0.94676  1.0000 0.6012677675
C   C105      1.0  0.25786  0.94676  0.94676  1.0000 0.6012677675
C   C106      1.0  0.94676  0.25786  0.94676  1.0000 0.6012677675
C   C107      1.0  0.94676  0.84862  0.25786  1.0000 0.6012677675
C   C108      1.0  0.84862  0.94676  0.25786  1.0000 0.6012677675
C   C109      1.0  0.97139  0.97139  0.21823  1.0000 -0.0776702084
C   C110      1.0  0.83899  0.21823  0.97139  1.0000 -0.0776702084
C   C111      1.0  0.97139  0.97139  0.83899  1.0000 -0.0776702084
C   C112      1.0  0.21823  0.83899  0.97139  1.0000 -0.0776702084
C   C113      1.0  0.97139  0.83899  0.97139  1.0000 -0.0776702084
C   C114      1.0  0.21823  0.97139  0.83899  1.0000 -0.0776702084
C   C115      1.0  0.97139  0.21823  0.83899  1.0000 -0.0776702084
C   C116      1.0  0.83899  0.97139  0.97139  1.0000 -0.0776702084
C   C117      1.0  0.21823  0.97139  0.97139  1.0000 -0.0776702084
C   C118      1.0  0.97139  0.21823  0.97139  1.0000 -0.0776702084
C   C119      1.0  0.97139  0.83899  0.21823  1.0000 -0.0776702084
C   C120      1.0  0.83899  0.97139  0.21823  1.0000 -0.0776702084
C   C121      1.0  0.95205  0.01391  0.19847  1.0000 -0.102165377
C   C122      1.0  0.83557  0.19847  0.95205  1.0000 -0.102165377
C   C123      1.0  0.01391  0.95205  0.83557  1.0000 -0.102165377
C   C124      1.0  0.19847  0.83557  0.01391  1.0000 -0.102165377
C   C125      1.0  0.01391  0.83557  0.95205  1.0000 -0.102165377
C   C126      1.0  0.83557  0.19847  0.01391  1.0000 -0.102165377
C   C127      1.0  0.19847  0.95205  0.83557  1.0000 -0.102165377
C   C128      1.0  0.01391  0.19847  0.83557  1.0000 -0.102165377
C   C129      1.0  0.19847  0.83557  0.95205  1.0000 -0.102165377
C   C130      1.0  0.83557  0.95205  0.01391  1.0000 -0.102165377
C   C131      1.0  0.19847  0.95205  0.01391  1.0000 -0.102165377
C   C132      1.0  0.01391  0.19847  0.95205  1.0000 -0.102165377
C   C133      1.0  0.19847  0.01391  0.83557  1.0000 -0.102165377
C   C134      1.0  0.83557  0.01391  0.95205  1.0000 -0.102165377
C   C135      1.0  0.95205  0.83557  0.01391  1.0000 -0.102165377
C   C136      1.0  0.95205  0.19847  0.83557  1.0000 -0.102165377
C   C137      1.0  0.01391  0.83557  0.19847  1.0000 -0.102165377
C   C138      1.0  0.83557  0.95205  0.19847  1.0000 -0.102165377
C   C139      1.0  0.95205  0.01391  0.83557  1.0000 -0.102165377
C   C140      1.0  0.01391  0.95205  0.19847  1.0000 -0.102165377
C   C141      1.0  0.83557  0.01391  0.19847  1.0000 -0.102165377
C   C142      1.0  0.95205  0.19847  0.01391  1.0000 -0.102165377
C   C143      1.0  0.95205  0.83557  0.19847  1.0000 -0.102165377
C   C144      1.0  0.19847  0.01391  0.95205  1.0000 -0.102165377
C   C145      1.0  0.97434  0.03618  0.15938  1.0000 -0.1229150826
C   C146      1.0  0.83010  0.15938  0.97434  1.0000 -0.1229150826
C   C147      1.0  0.03618  0.97434  0.83010  1.0000 -0.1229150826
C   C148      1.0  0.15938  0.83010  0.03618  1.0000 -0.1255694354
C   C149      1.0  0.03618  0.83010  0.97434  1.0000 -0.1255694354
C   C150      1.0  0.83010  0.15938  0.03618  1.0000 -0.1255694354
C   C151      1.0  0.15938  0.97434  0.83010  1.0000 -0.1229150826
C   C152      1.0  0.03618  0.15938  0.83010  1.0000 -0.1229150826
C   C153      1.0  0.15938  0.83010  0.97434  1.0000 -0.1255694354
C   C154      1.0  0.83010  0.97434  0.03618  1.0000 -0.1255694354
C   C155      1.0  0.15938  0.97434  0.03618  1.0000 -0.1229150826
C   C156      1.0  0.03618  0.15938  0.97434  1.0000 -0.1229150826
C   C157      1.0  0.15938  0.03618  0.83010  1.0000 -0.1255694354
C   C158      1.0  0.83010  0.03618  0.97434  1.0000 -0.1229150826
C   C159      1.0  0.97434  0.83010  0.03618  1.0000 -0.1255694354
C   C160      1.0  0.97434  0.15938  0.83010  1.0000 -0.1229150826
C   C161      1.0  0.03618  0.83010  0.15938  1.0000 -0.1229150826
C   C162      1.0  0.83010  0.97434  0.15938  1.0000 -0.1229150826
C   C163      1.0  0.97434  0.03618  0.83010  1.0000 -0.1229150826
C   C164      1.0  0.03618  0.97434  0.15938  1.0000 -0.1229150826
C   C165      1.0  0.83010  0.03618  0.15938  1.0000 -0.1255694354
C   C166      1.0  0.97434  0.15938  0.03618  1.0000 -0.1229150826
C   C167      1.0  0.97434  0.83010  0.15938  1.0000 -0.1229150826
C   C168      1.0  0.15938  0.03618  0.97434  1.0000 -0.1229150826
C   C169      1.0  0.01650  0.01650  0.13906  1.0000 -0.0032767946
C   C170      1.0  0.82794  0.13906  0.01650  1.0000 0.0009692504
C   C171      1.0  0.01650  0.01650  0.82794  1.0000 0.0009692504
C   C172      1.0  0.13906  0.82794  0.01650  1.0000 0.0009692504
C   C173      1.0  0.01650  0.82794  0.01650  1.0000 0.0009692504
C   C174      1.0  0.13906  0.01650  0.82794  1.0000 0.0009692504
C   C175      1.0  0.01650  0.13906  0.82794  1.0000 0.0009692504
C   C176      1.0  0.82794  0.01650  0.01650  1.0000 0.0009692504
C   C177      1.0  0.13906  0.01650  0.01650  1.0000 0.0009692504
C   C178      1.0  0.01650  0.13906  0.01650  1.0000 0.0009692504
C   C179      1.0  0.01650  0.82794  0.13906  1.0000 0.0009692504
C   C180      1.0  0.82794  0.01650  0.13906  1.0000 0.0009692504
C   C181      1.0  0.03920  0.03920  0.09620  1.0000 0.3661267137
C   C182      1.0  0.82540  0.09620  0.03920  1.0000 0.362482897
C   C183      1.0  0.03920  0.03920  0.82540  1.0000 0.362482897
C   C184      1.0  0.09620  0.82540  0.03920  1.0000 0.362482897
C   C185      1.0  0.03920  0.82540  0.03920  1.0000 0.362482897
C   C186      1.0  0.09620  0.03920  0.82540  1.0000 0.362482897
C   C187      1.0  0.03920  0.09620  0.82540  1.0000 0.3661267137
C   C188      1.0  0.82540  0.03920  0.03920  1.0000 0.362482897
C   C189      1.0  0.09620  0.03920  0.03920  1.0000 0.362482897
C   C190      1.0  0.03920  0.09620  0.03920  1.0000 0.362482897
C   C191      1.0  0.03920  0.82540  0.09620  1.0000 0.362482897
C   C192      1.0  0.82540  0.03920  0.09620  1.0000 0.362482897
N   N1        1.0  0.72825  0.67081  0.67081  1.0000 -0.4182946673
N   N2        1.0  0.93013  0.67081  0.72825  1.0000 -0.4182946673
N   N3        1.0  0.67081  0.72825  0.93013  1.0000 -0.4182946673
N   N4        1.0  0.67081  0.93013  0.67081  1.0000 -0.4182946673
N   N5        1.0  0.67081  0.93013  0.72825  1.0000 -0.4182946673
N   N6        1.0  0.93013  0.67081  0.67081  1.0000 -0.4182946673
N   N7        1.0  0.67081  0.67081  0.93013  1.0000 -0.4182946673
N   N8        1.0  0.93013  0.72825  0.67081  1.0000 -0.4182946673
N   N9        1.0  0.67081  0.72825  0.67081  1.0000 -0.4182946673
N   N10       1.0  0.67081  0.67081  0.72825  1.0000 -0.4182946673
N   N11       1.0  0.72825  0.93013  0.67081  1.0000 -0.4182946673
N   N12       1.0  0.72825  0.67081  0.93013  1.0000 -0.4182946673
N   N13       1.0  0.07757  0.02107  0.07757  1.0000 -0.4182946673
N   N14       1.0  0.82379  0.07757  0.07757  1.0000 -0.4137644742
N   N15       1.0  0.02107  0.07757  0.82379  1.0000 -0.4182946673
N   N16       1.0  0.07757  0.82379  0.02107  1.0000 -0.4137644742
N   N17       1.0  0.02107  0.82379  0.07757  1.0000 -0.4137644742
N   N18       1.0  0.82379  0.07757  0.02107  1.0000 -0.4137644742
N   N19       1.0  0.07757  0.07757  0.82379  1.0000 -0.4182946673
N   N20       1.0  0.07757  0.82379  0.07757  1.0000 -0.4137644742
N   N21       1.0  0.07757  0.07757  0.02107  1.0000 -0.4182946673
N   N22       1.0  0.02107  0.07757  0.07757  1.0000 -0.4182946673
N   N23       1.0  0.07757  0.02107  0.82379  1.0000 -0.4182946673
N   N24       1.0  0.82379  0.02107  0.07757  1.0000 -0.4137644742
O   O1        1.0  0.82316  0.91316  0.35052  1.0000 -1.2516106424
O   O2        1.0  0.91316  0.35052  0.82316  1.0000 -1.2516106424
O   O3        1.0  0.91316  0.82316  0.91316  1.0000 -1.2605188811
O   O4        1.0  0.35052  0.91316  0.91316  1.0000 -1.2516106424
O   O5        1.0  0.91316  0.91316  0.82316  1.0000 -1.2516106424
O   O6        1.0  0.91316  0.35052  0.91316  1.0000 -1.2605188811
O   O7        1.0  0.35052  0.82316  0.91316  1.0000 -1.2605188811
O   O8        1.0  0.35052  0.91316  0.82316  1.0000 -1.2516106424
O   O9        1.0  0.82316  0.91316  0.91316  1.0000 -1.2516106424
O   O10       1.0  0.82316  0.35052  0.91316  1.0000 -1.2605188811
O   O11       1.0  0.91316  0.91316  0.35052  1.0000 -1.2516106424
O   O12       1.0  0.91316  0.82316  0.35052  1.0000 -1.2516106424
O   O13       1.0  0.83727  0.92769  0.39777  1.0000 -1.2605188811
O   O14       1.0  0.83727  0.39777  0.83727  1.0000 -1.2605188811
O   O15       1.0  0.92769  0.83727  0.83727  1.0000 -1.2605188811
O   O16       1.0  0.39777  0.83727  0.92769  1.0000 -1.2605188811
O   O17       1.0  0.83727  0.39777  0.92769  1.0000 -1.2516106424
O   O18       1.0  0.39777  0.83727  0.83727  1.0000 -1.2605188811
O   O19       1.0  0.92769  0.39777  0.83727  1.0000 -1.2605188811
O   O20       1.0  0.83727  0.83727  0.92769  1.0000 -1.2605188811
O   O21       1.0  0.39777  0.92769  0.83727  1.0000 -1.2655353868
O   O22       1.0  0.83727  0.92769  0.83727  1.0000 -1.2605188811
O   O23       1.0  0.92769  0.83727  0.39777  1.0000 -1.2605188811
O   O24       1.0  0.83727  0.83727  0.39777  1.0000 -1.2605188811
O   O25       1.0  0.85355  0.85355  0.43935  1.0000 -1.1004733567
O   O26       1.0  0.85355  0.43935  0.85355  1.0000 -1.1052016342
O   O27       1.0  0.85355  0.85355  0.85355  1.0000 -1.1004733567
O   O28       1.0  0.43935  0.85355  0.85355  1.0000 -1.1004733567
O   O29       1.0  0.89682  0.89682  0.30954  1.0000 -1.0369521701
O   O30       1.0  0.89682  0.30954  0.89682  1.0000 -1.0292452101
O   O31       1.0  0.89682  0.89682  0.89682  1.0000 -1.0292452101
O   O32       1.0  0.30954  0.89682  0.89682  1.0000 -1.0292452101
O   O33       1.0  0.78315  0.84129  0.47435  1.0000 -0.5977532589
O   O34       1.0  0.90121  0.47435  0.78315  1.0000 -0.5977532589
O   O35       1.0  0.84129  0.78315  0.90121  1.0000 -0.5977532589
O   O36       1.0  0.47435  0.90121  0.84129  1.0000 -0.5977532589
O   O37       1.0  0.84129  0.90121  0.78315  1.0000 -0.5977532589
O   O38       1.0  0.90121  0.47435  0.84129  1.0000 -0.5977532589
O   O39       1.0  0.47435  0.78315  0.90121  1.0000 -0.5977532589
O   O40       1.0  0.84129  0.47435  0.90121  1.0000 -0.5977532589
O   O41       1.0  0.47435  0.90121  0.78315  1.0000 -0.5977532589
O   O42       1.0  0.90121  0.78315  0.84129  1.0000 -0.5977532589
O   O43       1.0  0.47435  0.78315  0.84129  1.0000 -0.5977532589
O   O44       1.0  0.84129  0.47435  0.78315  1.0000 -0.5977532589
O   O45       1.0  0.47435  0.84129  0.90121  1.0000 -0.5977532589
O   O46       1.0  0.90121  0.84129  0.78315  1.0000 -0.5977532589
O   O47       1.0  0.78315  0.90121  0.84129  1.0000 -0.5977532589
O   O48       1.0  0.78315  0.47435  0.90121  1.0000 -0.5977532589
O   O49       1.0  0.84129  0.90121  0.47435  1.0000 -0.5977532589
O   O50       1.0  0.90121  0.78315  0.47435  1.0000 -0.5977532589
O   O51       1.0  0.78315  0.84129  0.90121  1.0000 -0.5977532589
O   O52       1.0  0.84129  0.78315  0.47435  1.0000 -0.5977532589
O   O53       1.0  0.90121  0.84129  0.47435  1.0000 -0.5977532589
O   O54       1.0  0.78315  0.47435  0.84129  1.0000 -0.5977532589
O   O55       1.0  0.78315  0.90121  0.47435  1.0000 -0.5977532589
O   O56       1.0  0.47435  0.84129  0.78315  1.0000 -0.5977532589
O   O57       1.0  0.90756  0.96570  0.27356  1.0000 -0.5675017063
O   O58       1.0  0.85318  0.27356  0.90756  1.0000 -0.5675017063
O   O59       1.0  0.96570  0.90756  0.85318  1.0000 -0.5675017063
O   O60       1.0  0.27356  0.85318  0.96570  1.0000 -0.5675017063
O   O61       1.0  0.96570  0.85318  0.90756  1.0000 -0.5675017063
O   O62       1.0  0.85318  0.27356  0.96570  1.0000 -0.5675017063
O   O63       1.0  0.27356  0.90756  0.85318  1.0000 -0.5675017063
O   O64       1.0  0.96570  0.27356  0.85318  1.0000 -0.5675017063
O   O65       1.0  0.27356  0.85318  0.90756  1.0000 -0.5675017063
O   O66       1.0  0.85318  0.90756  0.96570  1.0000 -0.5675017063
O   O67       1.0  0.27356  0.90756  0.96570  1.0000 -0.5675017063
O   O68       1.0  0.96570  0.27356  0.90756  1.0000 -0.5675017063
O   O69       1.0  0.27356  0.96570  0.85318  1.0000 -0.5675017063
O   O70       1.0  0.85318  0.96570  0.90756  1.0000 -0.5675017063
O   O71       1.0  0.90756  0.85318  0.96570  1.0000 -0.5675017063
O   O72       1.0  0.90756  0.27356  0.85318  1.0000 -0.5675017063
O   O73       1.0  0.96570  0.85318  0.27356  1.0000 -0.5675017063
O   O74       1.0  0.85318  0.90756  0.27356  1.0000 -0.5675017063
O   O75       1.0  0.90756  0.96570  0.85318  1.0000 -0.5675017063
O   O76       1.0  0.96570  0.90756  0.27356  1.0000 -0.5675017063
O   O77       1.0  0.85318  0.96570  0.27356  1.0000 -0.5675017063
O   O78       1.0  0.90756  0.27356  0.96570  1.0000 -0.5675017063
O   O79       1.0  0.90756  0.85318  0.27356  1.0000 -0.5675017063
O   O80       1.0  0.27356  0.96570  0.90756  1.0000 -0.5675017063
