# DDEC6 charges by PACMAN v1.1 (https://github.com/mtap-research/PACMAN-charge/)
data_2015[Co][nan]3[ASR]19
_chemical_formula_sum              "Co8 H112 C148 N36 O44"
_cell_length_a       14.7883
_cell_length_b       19.4401
_cell_length_c       19.3386
_cell_angle_alpha    90
_cell_angle_beta     99.722
_cell_angle_gamma    90

_symmetry_space_group_name_H-M    "P 1"
_symmetry_Int_Tables_number       1

loop_
  _symmetry_equiv_pos_as_xyz
  'x, y, z'

loop_
  _atom_site_type_symbol
  _atom_site_label
  _atom_site_symmetry_multiplicity
  _atom_site_fract_x
  _atom_site_fract_y
  _atom_site_fract_z
  _atom_site_occupancy
  _atom_site_charge
Co  Co1       1.0  0.05865  0.45576  0.61247  1.0000 0.8843668415
Co  Co2       1.0  0.94135  0.95576  0.88753  1.0000 0.8855322315
Co  Co3       1.0  0.94135  0.54424  0.38753  1.0000 0.8855322315
Co  Co4       1.0  0.05865  0.04424  0.11247  1.0000 0.8855322315
Co  Co5       1.0  0.83440  0.46511  0.65660  1.0000 0.9024146064
Co  Co6       1.0  0.16560  0.96511  0.84340  1.0000 0.9024146064
Co  Co7       1.0  0.16560  0.53489  0.34340  1.0000 0.9024146064
Co  Co8       1.0  0.83440  0.03489  0.15660  1.0000 0.9024146064
H   H1        1.0  0.87630  0.65140  0.75280  1.0000 0.1175619657
H   H2        1.0  0.12370  0.15140  0.74720  1.0000 0.1175619657
H   H3        1.0  0.12370  0.34860  0.24720  1.0000 0.1175619657
H   H4        1.0  0.87630  0.84860  0.25280  1.0000 0.1175619657
H   H5        1.0  0.60700  0.58540  0.50610  1.0000 0.1103276759
H   H6        1.0  0.39300  0.08540  0.99390  1.0000 0.1103276759
H   H7        1.0  0.39300  0.41460  0.49390  1.0000 0.1103276759
H   H8        1.0  0.60700  0.91460  0.00610  1.0000 0.1103276759
H   H9        1.0  0.62570  0.81970  0.62810  1.0000 0.1283982559
H   H10       1.0  0.37430  0.31970  0.87190  1.0000 0.1283982559
H   H11       1.0  0.37430  0.18030  0.37190  1.0000 0.1283982559
H   H12       1.0  0.62570  0.68030  0.12810  1.0000 0.1283982559
H   H13       1.0  0.89240  0.76380  0.78970  1.0000 0.1175619657
H   H14       1.0  0.10760  0.26380  0.71030  1.0000 0.1175619657
H   H15       1.0  0.10760  0.23620  0.21030  1.0000 0.1175619657
H   H16       1.0  0.89240  0.73620  0.28970  1.0000 0.1175619657
H   H17       1.0  0.41830  0.71060  0.67820  1.0000 0.1103276759
H   H18       1.0  0.58170  0.21060  0.82180  1.0000 0.1103276759
H   H19       1.0  0.58170  0.28940  0.32180  1.0000 0.1103276759
H   H20       1.0  0.41830  0.78940  0.17820  1.0000 0.1103276759
H   H21       1.0  0.81370  0.59550  0.49190  1.0000 0.1103276759
H   H22       1.0  0.18630  0.09550  0.00810  1.0000 0.1103276759
H   H23       1.0  0.18630  0.40450  0.50810  1.0000 0.1103276759
H   H24       1.0  0.81370  0.90450  0.99190  1.0000 0.1103276759
H   H25       1.0  0.65120  0.61500  0.64780  1.0000 0.1283982559
H   H26       1.0  0.34880  0.11500  0.85220  1.0000 0.1283982559
H   H27       1.0  0.34880  0.38500  0.35220  1.0000 0.1283982559
H   H28       1.0  0.65120  0.88500  0.14780  1.0000 0.1283982559
H   H29       1.0  0.04420  0.67100  0.45380  1.0000 0.1103276759
H   H30       1.0  0.95580  0.17100  0.04620  1.0000 0.1103276759
H   H31       1.0  0.95580  0.32900  0.54620  1.0000 0.1103276759
H   H32       1.0  0.04420  0.82900  0.95380  1.0000 0.1103276759
H   H33       1.0  0.23110  0.54830  0.62880  1.0000 0.102689044
H   H34       1.0  0.76890  0.04830  0.87120  1.0000 0.102689044
H   H35       1.0  0.76890  0.45170  0.37120  1.0000 0.102689044
H   H36       1.0  0.23110  0.95170  0.12880  1.0000 0.102689044
H   H37       1.0  0.25580  0.04280  0.61610  1.0000 0.1374109948
H   H38       1.0  0.74420  0.54280  0.88390  1.0000 0.1374109948
H   H39       1.0  0.74420  0.95720  0.38390  1.0000 0.1374109948
H   H40       1.0  0.25580  0.45720  0.11610  1.0000 0.1374109948
H   H41       1.0  0.18530  0.04660  0.71090  1.0000 0.1103276759
H   H42       1.0  0.81470  0.54660  0.78910  1.0000 0.1103276759
H   H43       1.0  0.81470  0.95340  0.28910  1.0000 0.1103276759
H   H44       1.0  0.18530  0.45340  0.21090  1.0000 0.1103276759
H   H45       1.0  0.30860  0.88020  0.78430  1.0000 0.1103276759
H   H46       1.0  0.69140  0.38020  0.71570  1.0000 0.1103276759
H   H47       1.0  0.69140  0.11980  0.21570  1.0000 0.1103276759
H   H48       1.0  0.30860  0.61980  0.28430  1.0000 0.1103276759
H   H49       1.0  0.35320  0.95210  0.60190  1.0000 0.1374109948
H   H50       1.0  0.64680  0.45210  0.89810  1.0000 0.1374109948
H   H51       1.0  0.64680  0.04790  0.39810  1.0000 0.1374109948
H   H52       1.0  0.35320  0.54790  0.10190  1.0000 0.1374109948
H   H53       1.0  0.21050  0.35570  0.67720  1.0000 0.1103276759
H   H54       1.0  0.78950  0.85570  0.82280  1.0000 0.1103276759
H   H55       1.0  0.78950  0.64430  0.32280  1.0000 0.1103276759
H   H56       1.0  0.21050  0.14430  0.17720  1.0000 0.1103276759
H   H57       1.0  0.45790  0.44420  0.70320  1.0000 0.1374109948
H   H58       1.0  0.54210  0.94420  0.79680  1.0000 0.1374109948
H   H59       1.0  0.54210  0.55580  0.29680  1.0000 0.1374109948
H   H60       1.0  0.45790  0.05580  0.20320  1.0000 0.1374109948
H   H61       1.0  0.36750  0.34850  0.71160  1.0000 0.1283982559
H   H62       1.0  0.63250  0.84850  0.78840  1.0000 0.1283982559
H   H63       1.0  0.63250  0.65150  0.28840  1.0000 0.1283982559
H   H64       1.0  0.36750  0.15150  0.21160  1.0000 0.1283982559
H   H65       1.0  0.93260  0.75110  0.60900  1.0000 0.1283982559
H   H66       1.0  0.06740  0.25110  0.89100  1.0000 0.1283982559
H   H67       1.0  0.06740  0.24890  0.39100  1.0000 0.1283982559
H   H68       1.0  0.93260  0.74890  0.10900  1.0000 0.1283982559
H   H69       1.0  0.04900  0.74880  0.54170  1.0000 0.1283982559
H   H70       1.0  0.95100  0.24880  0.95830  1.0000 0.1283982559
H   H71       1.0  0.95100  0.25120  0.45830  1.0000 0.1283982559
H   H72       1.0  0.04900  0.75120  0.04170  1.0000 0.1283982559
H   H73       1.0  0.80400  0.46300  0.50100  1.0000 0.0118026123
H   H74       1.0  0.19600  0.96300  0.99900  1.0000 0.0118026123
H   H75       1.0  0.19600  0.53700  0.49900  1.0000 0.0118026123
H   H76       1.0  0.80400  0.03700  0.00100  1.0000 0.0118026123
H   H77       1.0  0.75840  0.63300  0.59550  1.0000 0.2977486589
H   H78       1.0  0.24160  0.13300  0.90450  1.0000 0.2977486589
H   H79       1.0  0.24160  0.36700  0.40450  1.0000 0.2977486589
H   H80       1.0  0.75840  0.86700  0.09550  1.0000 0.2977486589
H   H81       1.0  0.36680  0.60320  0.64230  1.0000 0.2799962102
H   H82       1.0  0.63320  0.10320  0.85770  1.0000 0.2799962102
H   H83       1.0  0.63320  0.39680  0.35770  1.0000 0.2799962102
H   H84       1.0  0.36680  0.89680  0.14230  1.0000 0.2799962102
H   H85       1.0  0.39110  0.81590  0.71830  1.0000 0.2665691985
H   H86       1.0  0.60890  0.31590  0.78170  1.0000 0.2665691985
H   H87       1.0  0.60890  0.18410  0.28170  1.0000 0.2665691985
H   H88       1.0  0.39110  0.68410  0.21830  1.0000 0.2665691985
H   H89       1.0  0.50010  0.33940  0.55380  1.0000 0.2977486589
H   H90       1.0  0.49990  0.83940  0.94620  1.0000 0.2977486589
H   H91       1.0  0.49990  0.66060  0.44620  1.0000 0.2977486589
H   H92       1.0  0.50010  0.16060  0.05380  1.0000 0.2977486589
H   H93       1.0  0.59530  0.36150  0.58290  1.0000 0.2977486589
H   H94       1.0  0.40470  0.86150  0.91710  1.0000 0.2977486589
H   H95       1.0  0.40470  0.63850  0.41710  1.0000 0.2977486589
H   H96       1.0  0.59530  0.13850  0.08290  1.0000 0.2977486589
H   H97       1.0  0.15380  0.60720  0.68790  1.0000 0.2907617143
H   H98       1.0  0.84620  0.10720  0.81210  1.0000 0.2907617143
H   H99       1.0  0.84620  0.39280  0.31210  1.0000 0.2907617143
H   H100      1.0  0.15380  0.89280  0.18790  1.0000 0.2907617143
H   H101      1.0  0.20360  0.67370  0.70190  1.0000 0.2390437475
H   H102      1.0  0.79640  0.17370  0.79810  1.0000 0.2390437475
H   H103      1.0  0.79640  0.32630  0.29810  1.0000 0.2390437475
H   H104      1.0  0.20360  0.82630  0.20190  1.0000 0.2390437475
H   H105      1.0  0.18720  0.81380  0.74420  1.0000 0.2907617143
H   H106      1.0  0.81280  0.31380  0.75580  1.0000 0.2907617143
H   H107      1.0  0.81280  0.18620  0.25580  1.0000 0.2907617143
H   H108      1.0  0.18720  0.68620  0.24420  1.0000 0.2907617143
H   H109      1.0  0.21290  0.74520  0.71900  1.0000 0.2483826368
H   H110      1.0  0.78710  0.24520  0.78100  1.0000 0.2483826368
H   H111      1.0  0.78710  0.25480  0.28100  1.0000 0.2483826368
H   H112      1.0  0.21290  0.75480  0.21900  1.0000 0.2483826368
C   C1        1.0  0.98690  0.56910  0.69850  1.0000 0.5936033665
C   C2        1.0  0.01310  0.06910  0.80150  1.0000 0.5936033665
C   C3        1.0  0.01310  0.43090  0.30150  1.0000 0.5936033665
C   C4        1.0  0.98690  0.93090  0.19850  1.0000 0.5936033665
C   C5        1.0  0.87950  0.46740  0.51120  1.0000 0.4798554196
C   C6        1.0  0.12050  0.96740  0.98880  1.0000 0.4798554196
C   C7        1.0  0.12050  0.53260  0.48880  1.0000 0.4798554196
C   C8        1.0  0.87950  0.03260  0.01120  1.0000 0.4798554196
C   C9        1.0  0.68120  0.47940  0.57580  1.0000 0.5329709961
C   C10       1.0  0.31880  0.97940  0.92420  1.0000 0.5329709961
C   C11       1.0  0.31880  0.52060  0.42420  1.0000 0.5329709961
C   C12       1.0  0.68120  0.02060  0.07580  1.0000 0.5329709961
C   C13       1.0  0.03030  0.84910  0.80090  1.0000 0.5936033665
C   C14       1.0  0.96970  0.34910  0.69910  1.0000 0.5936033665
C   C15       1.0  0.96970  0.15090  0.19910  1.0000 0.5936033665
C   C16       1.0  0.03030  0.65090  0.30090  1.0000 0.5936033665
C   C17       1.0  0.93080  0.67470  0.75110  1.0000 -0.1385016018
C   C18       1.0  0.06920  0.17470  0.74890  1.0000 -0.1385016018
C   C19       1.0  0.06920  0.32530  0.24890  1.0000 -0.1385016018
C   C20       1.0  0.93080  0.82530  0.25110  1.0000 -0.1385016018
C   C21       1.0  0.00180  0.64140  0.72550  1.0000 -0.12859209
C   C22       1.0  0.99820  0.14140  0.77450  1.0000 -0.12859209
C   C23       1.0  0.99820  0.35860  0.27450  1.0000 -0.12859209
C   C24       1.0  0.00180  0.85860  0.22550  1.0000 -0.12859209
C   C25       1.0  0.58880  0.48870  0.53730  1.0000 -0.12859209
C   C26       1.0  0.41120  0.98870  0.96270  1.0000 -0.12859209
C   C27       1.0  0.41120  0.51130  0.46270  1.0000 -0.12859209
C   C28       1.0  0.58880  0.01130  0.03730  1.0000 -0.12859209
C   C29       1.0  0.56300  0.55090  0.50360  1.0000 -0.2297337389
C   C30       1.0  0.43700  0.05090  0.99640  1.0000 -0.2297337389
C   C31       1.0  0.43700  0.44910  0.49640  1.0000 -0.2297337389
C   C32       1.0  0.56300  0.94910  0.00360  1.0000 -0.2297337389
C   C33       1.0  0.02110  0.77710  0.77340  1.0000 -0.12859209
C   C34       1.0  0.97890  0.27710  0.72660  1.0000 -0.12859209
C   C35       1.0  0.97890  0.22290  0.22660  1.0000 -0.12859209
C   C36       1.0  0.02110  0.72290  0.27340  1.0000 -0.12859209
C   C37       1.0  0.60080  0.77750  0.63770  1.0000 -0.1113408529
C   C38       1.0  0.39920  0.27750  0.86230  1.0000 -0.1113408529
C   C39       1.0  0.39920  0.22250  0.36230  1.0000 -0.1113408529
C   C40       1.0  0.60080  0.72250  0.13770  1.0000 -0.1113408529
C   C41       1.0  0.94100  0.74190  0.77380  1.0000 -0.12859209
C   C42       1.0  0.05900  0.24190  0.72620  1.0000 -0.12859209
C   C43       1.0  0.05900  0.25810  0.22620  1.0000 -0.12859209
C   C44       1.0  0.94100  0.75810  0.27380  1.0000 -0.12859209
C   C45       1.0  0.52270  0.43540  0.53290  1.0000 0.2390437475
C   C46       1.0  0.47730  0.93540  0.96710  1.0000 0.2390437475
C   C47       1.0  0.47730  0.56460  0.46710  1.0000 0.2390437475
C   C48       1.0  0.52270  0.06460  0.03290  1.0000 0.2390437475
C   C49       1.0  0.09330  0.74490  0.74730  1.0000 0.1804088852
C   C50       1.0  0.90670  0.24490  0.75270  1.0000 0.1804088852
C   C51       1.0  0.90670  0.25510  0.25270  1.0000 0.1804088852
C   C52       1.0  0.09330  0.75510  0.24730  1.0000 0.1804088852
C   C53       1.0  0.35350  0.50720  0.66650  1.0000 0.1804088852
C   C54       1.0  0.64650  0.00720  0.83350  1.0000 0.1804088852
C   C55       1.0  0.64650  0.49280  0.33350  1.0000 0.1804088852
C   C56       1.0  0.35350  0.99280  0.16650  1.0000 0.1804088852
C   C57       1.0  0.47690  0.71270  0.66680  1.0000 -0.1758593084
C   C58       1.0  0.52310  0.21270  0.83320  1.0000 -0.1758593084
C   C59       1.0  0.52310  0.28730  0.33320  1.0000 -0.1758593084
C   C60       1.0  0.47690  0.78730  0.16680  1.0000 -0.1758593084
C   C61       1.0  0.49340  0.58190  0.67760  1.0000 0.4621220431
C   C62       1.0  0.50660  0.08190  0.82240  1.0000 0.4621220431
C   C63       1.0  0.50660  0.41810  0.32240  1.0000 0.4621220431
C   C64       1.0  0.49340  0.91810  0.17760  1.0000 0.4621220431
C   C65       1.0  0.86090  0.62750  0.50110  1.0000 -0.0285381107
C   C66       1.0  0.13910  0.12750  0.99890  1.0000 -0.0285381107
C   C67       1.0  0.13910  0.37250  0.49890  1.0000 -0.0285381107
C   C68       1.0  0.86090  0.87250  0.00110  1.0000 -0.0237763242
C   C69       1.0  0.08220  0.67640  0.72360  1.0000 0.1669780253
C   C70       1.0  0.91780  0.17640  0.77640  1.0000 0.1669780253
C   C71       1.0  0.91780  0.32360  0.27640  1.0000 0.1669780253
C   C72       1.0  0.08220  0.82360  0.22360  1.0000 0.1669780253
C   C73       1.0  0.61650  0.65480  0.64880  1.0000 -0.12859209
C   C74       1.0  0.38350  0.15480  0.85120  1.0000 -0.12859209
C   C75       1.0  0.38350  0.34520  0.35120  1.0000 -0.12859209
C   C76       1.0  0.61650  0.84520  0.14880  1.0000 -0.12859209
C   C77       1.0  0.99650  0.67120  0.47950  1.0000 0.0623669498
C   C78       1.0  0.00350  0.17120  0.02050  1.0000 0.0623669498
C   C79       1.0  0.00350  0.32880  0.52050  1.0000 0.0623669498
C   C80       1.0  0.99650  0.82880  0.97950  1.0000 0.0623669498
C   C81       1.0  0.25870  0.50740  0.64590  1.0000 -0.0480151722
C   C82       1.0  0.74130  0.00740  0.85410  1.0000 -0.0480151722
C   C83       1.0  0.74130  0.49260  0.35410  1.0000 -0.0480151722
C   C84       1.0  0.25870  0.99260  0.14590  1.0000 -0.0480151722
C   C85       1.0  0.46320  0.84220  0.65210  1.0000 0.4545407011
C   C86       1.0  0.53680  0.34220  0.84790  1.0000 0.4545407011
C   C87       1.0  0.53680  0.15780  0.34790  1.0000 0.4545407011
C   C88       1.0  0.46320  0.65780  0.15210  1.0000 0.4545407011
C   C89       1.0  0.52600  0.65220  0.66350  1.0000 -0.0237763242
C   C90       1.0  0.47400  0.15220  0.83650  1.0000 -0.0237763242
C   C91       1.0  0.47400  0.34780  0.33650  1.0000 -0.0237763242
C   C92       1.0  0.52600  0.84780  0.16350  1.0000 -0.0237763242
C   C93       1.0  0.65160  0.71880  0.63580  1.0000 -0.0285381107
C   C94       1.0  0.34840  0.21880  0.86420  1.0000 -0.0285381107
C   C95       1.0  0.34840  0.28120  0.36420  1.0000 -0.0285381107
C   C96       1.0  0.65160  0.78120  0.13580  1.0000 -0.0285381107
C   C97       1.0  0.26710  0.00850  0.65000  1.0000 -0.1385016018
C   C98       1.0  0.73290  0.50850  0.85000  1.0000 -0.1385016018
C   C99       1.0  0.73290  0.99150  0.35000  1.0000 -0.1385016018
C   C100      1.0  0.26710  0.49150  0.15000  1.0000 -0.1385016018
C   C101      1.0  0.34330  0.90810  0.69330  1.0000 0.1669780253
C   C102      1.0  0.65670  0.40810  0.80670  1.0000 0.1669780253
C   C103      1.0  0.65670  0.09190  0.30670  1.0000 0.1669780253
C   C104      1.0  0.34330  0.59190  0.19330  1.0000 0.1669780253
C   C105      1.0  0.22590  0.01090  0.70700  1.0000 0.0719644832
C   C106      1.0  0.77410  0.51090  0.79300  1.0000 0.0719644832
C   C107      1.0  0.77410  0.98910  0.29300  1.0000 0.0719644832
C   C108      1.0  0.22590  0.48910  0.20700  1.0000 0.0719644832
C   C109      1.0  0.51270  0.77530  0.65380  1.0000 -0.0285381107
C   C110      1.0  0.48730  0.27530  0.84620  1.0000 -0.0285381107
C   C111      1.0  0.48730  0.22470  0.34620  1.0000 -0.0285381107
C   C112      1.0  0.51270  0.72470  0.15380  1.0000 -0.0285381107
C   C113      1.0  0.29840  0.91370  0.74960  1.0000 -0.0480151722
C   C114      1.0  0.70160  0.41370  0.75040  1.0000 -0.0480151722
C   C115      1.0  0.70160  0.08630  0.25040  1.0000 -0.0480151722
C   C116      1.0  0.29840  0.58630  0.24960  1.0000 -0.0480151722
C   C117      1.0  0.32610  0.95530  0.64180  1.0000 -0.1198264235
C   C118      1.0  0.67390  0.45530  0.85820  1.0000 -0.1198264235
C   C119      1.0  0.67390  0.04470  0.35820  1.0000 -0.1198264235
C   C120      1.0  0.32610  0.54470  0.14180  1.0000 -0.1198264235
C   C121      1.0  0.24630  0.39450  0.67390  1.0000 0.0623669498
C   C122      1.0  0.75370  0.89450  0.82610  1.0000 0.0623669498
C   C123      1.0  0.75370  0.60550  0.32610  1.0000 0.0623669498
C   C124      1.0  0.24630  0.10550  0.17390  1.0000 0.0623669498
C   C125      1.0  0.39450  0.44680  0.69020  1.0000 -0.12859209
C   C126      1.0  0.60550  0.94680  0.80980  1.0000 -0.12859209
C   C127      1.0  0.60550  0.55320  0.30980  1.0000 -0.12859209
C   C128      1.0  0.39450  0.05320  0.19020  1.0000 -0.12859209
C   C129      1.0  0.34080  0.38980  0.69480  1.0000 -0.1198264235
C   C130      1.0  0.65920  0.88980  0.80520  1.0000 -0.1198264235
C   C131      1.0  0.65920  0.61020  0.30520  1.0000 -0.1198264235
C   C132      1.0  0.34080  0.11020  0.19480  1.0000 -0.1198264235
C   C133      1.0  0.85780  0.67550  0.55430  1.0000 0.1869303747
C   C134      1.0  0.14220  0.17550  0.94570  1.0000 0.1869303747
C   C135      1.0  0.14220  0.32450  0.44570  1.0000 0.1869303747
C   C136      1.0  0.85780  0.82450  0.05430  1.0000 0.1869303747
C   C137      1.0  0.93050  0.72050  0.57180  1.0000 -0.12859209
C   C138      1.0  0.06950  0.22050  0.92820  1.0000 -0.12859209
C   C139      1.0  0.06950  0.27950  0.42820  1.0000 -0.12859209
C   C140      1.0  0.93050  0.77950  0.07180  1.0000 -0.12859209
C   C141      1.0  0.00000  0.71830  0.53240  1.0000 -0.12859209
C   C142      1.0  0.00000  0.21830  0.96760  1.0000 -0.12859209
C   C143      1.0  0.00000  0.28170  0.46760  1.0000 -0.12859209
C   C144      1.0  0.00000  0.78170  0.03240  1.0000 -0.12859209
C   C145      1.0  0.74240  0.72830  0.61420  1.0000 0.4621220431
C   C146      1.0  0.25760  0.22830  0.88580  1.0000 0.4621220431
C   C147      1.0  0.25760  0.27170  0.38580  1.0000 0.4621220431
C   C148      1.0  0.74240  0.77170  0.11420  1.0000 0.4621220431
N   N1        1.0  0.92820  0.62490  0.46240  1.0000 -0.235826327
N   N2        1.0  0.07180  0.12490  0.03760  1.0000 -0.2297337389
N   N3        1.0  0.07180  0.37510  0.53760  1.0000 -0.2297337389
N   N4        1.0  0.92820  0.87510  0.96240  1.0000 -0.235826327
N   N5        1.0  0.78150  0.67270  0.58940  1.0000 -0.3604813651
N   N6        1.0  0.21850  0.17270  0.91060  1.0000 -0.3604813651
N   N7        1.0  0.21850  0.32730  0.41060  1.0000 -0.3604813651
N   N8        1.0  0.78150  0.82730  0.08940  1.0000 -0.3604813651
N   N9        1.0  0.20500  0.45310  0.64910  1.0000 -0.2244959758
N   N10       1.0  0.79500  0.95310  0.85090  1.0000 -0.2244959758
N   N11       1.0  0.79500  0.54690  0.35090  1.0000 -0.2244959758
N   N12       1.0  0.20500  0.04690  0.14910  1.0000 -0.2244959758
N   N13       1.0  0.40020  0.56910  0.65970  1.0000 -0.3815797032
N   N14       1.0  0.59980  0.06910  0.84030  1.0000 -0.3815797032
N   N15       1.0  0.59980  0.43090  0.34030  1.0000 -0.3815797032
N   N16       1.0  0.40020  0.93090  0.15970  1.0000 -0.3815797032
N   N17       1.0  0.24070  0.96510  0.75700  1.0000 -0.2122463048
N   N18       1.0  0.75930  0.46510  0.74300  1.0000 -0.2122463048
N   N19       1.0  0.75930  0.03490  0.24300  1.0000 -0.2122463048
N   N20       1.0  0.24070  0.53490  0.25700  1.0000 -0.2122463048
N   N21       1.0  0.39930  0.84960  0.69140  1.0000 -0.3815797032
N   N22       1.0  0.60070  0.34960  0.80860  1.0000 -0.3815797032
N   N23       1.0  0.60070  0.15040  0.30860  1.0000 -0.3815797032
N   N24       1.0  0.39930  0.65040  0.19140  1.0000 -0.3815797032
N   N25       1.0  0.54170  0.37080  0.55990  1.0000 -0.5776549043
N   N26       1.0  0.45830  0.87080  0.94010  1.0000 -0.5776549043
N   N27       1.0  0.45830  0.62920  0.44010  1.0000 -0.5776549043
N   N28       1.0  0.54170  0.12920  0.05990  1.0000 -0.5776549043
N   N29       1.0  0.15520  0.64930  0.70190  1.0000 -0.503228324
N   N30       1.0  0.84480  0.14930  0.79810  1.0000 -0.503228324
N   N31       1.0  0.84480  0.35070  0.29810  1.0000 -0.503228324
N   N32       1.0  0.15520  0.85070  0.20190  1.0000 -0.503228324
N   N33       1.0  0.17440  0.77120  0.73540  1.0000 -0.5452685641
N   N34       1.0  0.82560  0.27120  0.76460  1.0000 -0.5445142672
N   N35       1.0  0.82560  0.22880  0.26460  1.0000 -0.5445142672
N   N36       1.0  0.17440  0.72880  0.23540  1.0000 -0.5452685641
O   O1        1.0  0.48220  0.88930  0.61420  1.0000 -0.4264219241
O   O2        1.0  0.51780  0.38930  0.88580  1.0000 -0.4264219241
O   O3        1.0  0.51780  0.11070  0.38580  1.0000 -0.4264219241
O   O4        1.0  0.48220  0.61070  0.11420  1.0000 -0.4264219241
O   O5        1.0  0.77680  0.78620  0.61230  1.0000 -0.4638458477
O   O6        1.0  0.22320  0.28620  0.88770  1.0000 -0.4638458477
O   O7        1.0  0.22320  0.21380  0.38770  1.0000 -0.4638458477
O   O8        1.0  0.77680  0.71380  0.11230  1.0000 -0.4638458477
O   O9        1.0  0.54660  0.53670  0.70280  1.0000 -0.4381664978
O   O10       1.0  0.45340  0.03670  0.79720  1.0000 -0.4381664978
O   O11       1.0  0.45340  0.46330  0.29720  1.0000 -0.4381664978
O   O12       1.0  0.54660  0.96330  0.20280  1.0000 -0.4381664978
O   O13       1.0  0.96150  0.87816  0.81982  1.0000 -0.5670190142
O   O14       1.0  0.03850  0.37816  0.68018  1.0000 -0.5670190142
O   O15       1.0  0.03850  0.12184  0.18018  1.0000 -0.5670190142
O   O16       1.0  0.96150  0.62184  0.31982  1.0000 -0.5670190142
O   O17       1.0  0.10980  0.87592  0.80530  1.0000 -0.5568886982
O   O18       1.0  0.89020  0.37592  0.69470  1.0000 -0.5568886982
O   O19       1.0  0.89020  0.12408  0.19470  1.0000 -0.5568886982
O   O20       1.0  0.10980  0.62408  0.30530  1.0000 -0.5568886982
O   O21       1.0  0.05200  0.53801  0.67892  1.0000 -0.5191862569
O   O22       1.0  0.94800  0.03801  0.82108  1.0000 -0.5191862569
O   O23       1.0  0.94800  0.46199  0.32108  1.0000 -0.5191862569
O   O24       1.0  0.05200  0.96199  0.17892  1.0000 -0.5191862569
O   O25       1.0  0.90860  0.54351  0.70060  1.0000 -0.5670190142
O   O26       1.0  0.09140  0.04351  0.79940  1.0000 -0.5670190142
O   O27       1.0  0.09140  0.45649  0.29940  1.0000 -0.5670190142
O   O28       1.0  0.90860  0.95649  0.20060  1.0000 -0.5670190142
O   O29       1.0  0.73430  0.53148  0.59209  1.0000 -0.5776549043
O   O30       1.0  0.26570  0.03148  0.90791  1.0000 -0.5776549043
O   O31       1.0  0.26570  0.46852  0.40791  1.0000 -0.5776549043
O   O32       1.0  0.73430  0.96852  0.09209  1.0000 -0.5776549043
O   O33       1.0  0.71200  0.41978  0.59534  1.0000 -0.5452685641
O   O34       1.0  0.28800  0.91978  0.90466  1.0000 -0.5445142672
O   O35       1.0  0.28800  0.58022  0.40466  1.0000 -0.5445142672
O   O36       1.0  0.71200  0.08022  0.09534  1.0000 -0.5445142672
O   O37       1.0  0.91460  0.45986  0.57400  1.0000 -0.5191862569
O   O38       1.0  0.08540  0.95986  0.92600  1.0000 -0.5191862569
O   O39       1.0  0.08540  0.54014  0.42600  1.0000 -0.5191862569
O   O40       1.0  0.91460  0.04014  0.07400  1.0000 -0.5191862569
O   O41       1.0  0.91940  0.46819  0.45953  1.0000 -0.503228324
O   O42       1.0  0.08060  0.96819  0.04047  1.0000 -0.503228324
O   O43       1.0  0.08060  0.53181  0.54047  1.0000 -0.503228324
O   O44       1.0  0.91940  0.03181  0.95953  1.0000 -0.503228324
