# DDEC6 charges by PACMAN v1.1 (https://github.com/mtap-research/PACMAN-charge/)
data_2015[Tb][nan]3[ASR]3
_chemical_formula_sum              "Tb8 H4 C48 N12 O50"
_cell_length_a       8.5627
_cell_length_b       14.078
_cell_length_c       20.297
_cell_angle_alpha    88.568
_cell_angle_beta     86.325
_cell_angle_gamma    81.382

_symmetry_space_group_name_H-M    "P 1"
_symmetry_Int_Tables_number       1

loop_
  _symmetry_equiv_pos_as_xyz
  'x, y, z'

loop_
  _atom_site_type_symbol
  _atom_site_label
  _atom_site_symmetry_multiplicity
  _atom_site_fract_x
  _atom_site_fract_y
  _atom_site_fract_z
  _atom_site_occupancy
  _atom_site_charge
Tb  Tb1       1.0  0.27365  0.76272  0.98096  1.0000 1.8967828036
Tb  Tb2       1.0  0.72635  0.23728  0.01904  1.0000 1.8967828036
Tb  Tb3       1.0  0.23516  0.48561  0.24797  1.0000 2.0898586989
Tb  Tb4       1.0  0.76484  0.51439  0.75203  1.0000 2.0701972724
Tb  Tb5       1.0  0.11784  0.76033  0.51433  1.0000 1.8860803128
Tb  Tb6       1.0  0.88216  0.23967  0.48567  1.0000 1.8860803128
Tb  Tb7       1.0  0.21131  0.02985  0.24113  1.0000 2.0491118909
Tb  Tb8       1.0  0.78869  0.97015  0.75887  1.0000 2.0491118909
H   H1        1.0  0.85240  0.01580  0.24700  1.0000 0.4093392819
H   H2        1.0  0.14760  0.98420  0.75300  1.0000 0.4093392819
H   H3        1.0  0.93690  0.02630  0.30180  1.0000 0.3940532387
H   H4        1.0  0.06310  0.97370  0.69820  1.0000 0.3940532387
C   C1        1.0  0.25210  0.58660  0.09150  1.0000 0.6290444762
C   C2        1.0  0.74790  0.41340  0.90850  1.0000 0.6290444762
C   C3        1.0  0.39000  0.53740  0.04640  1.0000 0.0882401601
C   C4        1.0  0.61000  0.46260  0.95360  1.0000 0.0882401601
C   C5        1.0  0.49210  0.45390  0.06080  1.0000 0.0692701669
C   C6        1.0  0.50790  0.54610  0.93920  1.0000 0.06363315
C   C7        1.0  0.50700  0.38860  0.12160  1.0000 0.6420227468
C   C8        1.0  0.49300  0.61140  0.87840  1.0000 0.6420227468
C   C9        1.0  0.13000  0.93270  0.09090  1.0000 0.6021261693
C   C10       1.0  0.87000  0.06730  0.90910  1.0000 0.6021261693
C   C11       1.0  0.97600  0.91240  0.06290  1.0000 0.06363315
C   C12       1.0  0.02400  0.08760  0.93710  1.0000 0.06363315
C   C13       1.0  0.82200  0.95470  0.07600  1.0000 0.06363315
C   C14       1.0  0.17800  0.04530  0.92400  1.0000 0.06363315
C   C15       1.0  0.72100  0.84920  0.01630  1.0000 0.0882401601
C   C16       1.0  0.27900  0.15080  0.98370  1.0000 0.0882401601
C   C17       1.0  0.86500  0.80250  0.99690  1.0000 0.0290521265
C   C18       1.0  0.13500  0.19750  0.00310  1.0000 0.0290521265
C   C19       1.0  0.92100  0.71910  0.95200  1.0000 0.5896243036
C   C20       1.0  0.07900  0.28090  0.04800  1.0000 0.5896243036
C   C21       1.0  0.77900  0.04430  0.12030  1.0000 0.6090153039
C   C22       1.0  0.22100  0.95570  0.87970  1.0000 0.6090153039
C   C23       1.0  0.57400  0.81380  0.99730  1.0000 0.5676237326
C   C24       1.0  0.42600  0.18620  0.00270  1.0000 0.5676237326
C   C25       1.0  0.20400  0.58120  0.40190  1.0000 0.6290444762
C   C26       1.0  0.79600  0.41880  0.59810  1.0000 0.6290444762
C   C27       1.0  0.08800  0.53830  0.45300  1.0000 0.1292581663
C   C28       1.0  0.91200  0.46170  0.54700  1.0000 0.1292581663
C   C29       1.0  0.98010  0.54770  0.55800  1.0000 0.0882401601
C   C30       1.0  0.01990  0.45230  0.44200  1.0000 0.0781695103
C   C31       1.0  0.98600  0.60160  0.62230  1.0000 0.6565891683
C   C32       1.0  0.01400  0.39840  0.37770  1.0000 0.6565891683
C   C33       1.0  0.49100  0.02310  0.35330  1.0000 0.5896243036
C   C34       1.0  0.50900  0.97690  0.64670  1.0000 0.5896243036
C   C35       1.0  0.47800  0.94400  0.40650  1.0000 0.0487038374
C   C36       1.0  0.52200  0.05600  0.59350  1.0000 0.0487038374
C   C37       1.0  0.34600  0.90220  0.42720  1.0000 0.0781695103
C   C38       1.0  0.65400  0.09780  0.57280  1.0000 0.0781695103
C   C39       1.0  0.49800  0.80010  0.49490  1.0000 0.0692701669
C   C40       1.0  0.50200  0.19990  0.50510  1.0000 0.0692701669
C   C41       1.0  0.62600  0.83950  0.47470  1.0000 0.0487038374
C   C42       1.0  0.37400  0.16050  0.52530  1.0000 0.0487038374
C   C43       1.0  0.78800  0.80680  0.49760  1.0000 0.5676237326
C   C44       1.0  0.21200  0.19320  0.50240  1.0000 0.5676237326
C   C45       1.0  0.49700  0.71700  0.54390  1.0000 0.5676237326
C   C46       1.0  0.50300  0.28300  0.45610  1.0000 0.5676237326
C   C47       1.0  0.17700  0.93320  0.40230  1.0000 0.6090153039
C   C48       1.0  0.82300  0.06680  0.59770  1.0000 0.6090153039
N   N1        1.0  0.40040  0.58560  0.98800  1.0000 -0.3556046605
N   N2        1.0  0.59960  0.41440  0.01200  1.0000 -0.3556046605
N   N3        1.0  0.07210  0.57430  0.50830  1.0000 -0.2798294842
N   N4        1.0  0.92790  0.42570  0.49170  1.0000 -0.2798294842
N   N5        1.0  0.99960  0.83600  0.02290  1.0000 -0.3697344183
N   N6        1.0  0.00040  0.16400  0.97710  1.0000 -0.3697344183
N   N7        1.0  0.69460  0.92410  0.05650  1.0000 -0.2172486863
N   N8        1.0  0.30540  0.07590  0.94350  1.0000 -0.2172486863
N   N9        1.0  0.35680  0.83290  0.47230  1.0000 -0.3467110663
N   N10       1.0  0.64320  0.16710  0.52770  1.0000 -0.3467110663
N   N11       1.0  0.62280  0.91570  0.43110  1.0000 -0.2172486863
N   N12       1.0  0.37720  0.08430  0.56890  1.0000 -0.2172486863
O   O1        1.0  0.21270  0.67510  0.07920  1.0000 -0.5917517065
O   O2        1.0  0.78730  0.32490  0.92080  1.0000 -0.5917517065
O   O3        1.0  0.19000  0.54220  0.13580  1.0000 -0.600126687
O   O4        1.0  0.81000  0.45780  0.86420  1.0000 -0.600126687
O   O5        1.0  0.44010  0.41750  0.17520  1.0000 -0.6713149368
O   O6        1.0  0.55990  0.58250  0.82480  1.0000 -0.6713149368
O   O7        1.0  0.58950  0.31130  0.11400  1.0000 -0.5255071639
O   O8        1.0  0.41050  0.68870  0.88600  1.0000 -0.5209906617
O   O9        1.0  0.06420  0.68840  0.94330  1.0000 -0.5917517065
O   O10       1.0  0.93580  0.31160  0.05670  1.0000 -0.5917517065
O   O11       1.0  0.80790  0.69980  0.92010  1.0000 -0.5209906617
O   O12       1.0  0.19210  0.30020  0.07990  1.0000 -0.5209906617
O   O13       1.0  0.25520  0.89110  0.06470  1.0000 -0.5593572974
O   O14       1.0  0.74480  0.10890  0.93530  1.0000 -0.5593572974
O   O15       1.0  0.11140  0.98970  0.13640  1.0000 -0.6299715757
O   O16       1.0  0.88860  0.01030  0.86360  1.0000 -0.6299715757
O   O17       1.0  0.52560  0.74660  0.02920  1.0000 -0.578069967
O   O18       1.0  0.47440  0.25340  0.97080  1.0000 -0.578069967
O   O19       1.0  0.50000  0.85570  0.94930  1.0000 -0.578069967
O   O20       1.0  0.50000  0.14430  0.05070  1.0000 -0.578069967
O   O21       1.0  0.82870  0.11930  0.09470  1.0000 -0.6510841965
O   O22       1.0  0.17130  0.88070  0.90530  1.0000 -0.6510841965
O   O23       1.0  0.69840  0.03650  0.17430  1.0000 -0.5058013319
O   O24       1.0  0.30160  0.96350  0.82570  1.0000 -0.5058013319
O   O25       1.0  0.27390  0.53620  0.35570  1.0000 -0.6156543612
O   O26       1.0  0.72610  0.46380  0.64430  1.0000 -0.6105477134
O   O27       1.0  0.22400  0.66410  0.41770  1.0000 -0.5917517065
O   O28       1.0  0.77600  0.33590  0.58230  1.0000 -0.5917517065
O   O29       1.0  0.02810  0.68160  0.61370  1.0000 -0.5917517065
O   O30       1.0  0.97190  0.31840  0.38630  1.0000 -0.5917517065
O   O31       1.0  0.95530  0.56230  0.67520  1.0000 -0.6620600491
O   O32       1.0  0.04470  0.43770  0.32480  1.0000 -0.6620600491
O   O33       1.0  0.45730  0.00750  0.29130  1.0000 -0.7597330927
O   O34       1.0  0.54270  0.99250  0.70870  1.0000 -0.7597330927
O   O35       1.0  0.55980  0.09180  0.36670  1.0000 -0.4832691595
O   O36       1.0  0.44020  0.90820  0.63330  1.0000 -0.4832691595
O   O37       1.0  0.07690  0.88570  0.43250  1.0000 -0.6105477134
O   O38       1.0  0.92310  0.11430  0.56750  1.0000 -0.6105477134
O   O39       1.0  0.14860  0.99970  0.36330  1.0000 -0.600126687
O   O40       1.0  0.85140  0.00030  0.63670  1.0000 -0.600126687
O   O41       1.0  0.36490  0.69330  0.55710  1.0000 -0.600126687
O   O42       1.0  0.63510  0.30670  0.44290  1.0000 -0.600126687
O   O43       1.0  0.94360  0.00680  0.26230  1.0000 -0.7892815292
O   O44       1.0  0.05640  0.99320  0.73770  1.0000 -0.7892815292
O   O45       1.0  0.62050  0.68270  0.56680  1.0000 -0.4832691595
O   O46       1.0  0.37950  0.31730  0.43320  1.0000 -0.4832691595
O   O47       1.0  0.84580  0.84220  0.54580  1.0000 -0.600126687
O   O48       1.0  0.15420  0.15780  0.45420  1.0000 -0.5917517065
O   O49       1.0  0.87310  0.74030  0.45920  1.0000 -0.6620600491
O   O50       1.0  0.12690  0.25970  0.54080  1.0000 -0.6620600491
