# DDEC6 charges by PACMAN v1.1 (https://github.com/mtap-research/PACMAN-charge/)
data_2015[Mg][nan]3[ASR]1
_chemical_formula_sum              "Mg4 P2 H2 C6 O20"
_cell_length_a       7.6627
_cell_length_b       7.8432
_cell_length_c       9.7695
_cell_angle_alpha    72.092
_cell_angle_beta     83.275
_cell_angle_gamma    84.998

_symmetry_space_group_name_H-M    "P 1"
_symmetry_Int_Tables_number       1

loop_
  _symmetry_equiv_pos_as_xyz
  'x, y, z'

loop_
  _atom_site_type_symbol
  _atom_site_label
  _atom_site_symmetry_multiplicity
  _atom_site_fract_x
  _atom_site_fract_y
  _atom_site_fract_z
  _atom_site_occupancy
  _atom_site_charge
Mg  Mg1       1.0  0.37231  0.01672  0.73755  1.0000 1.3967352632
Mg  Mg2       1.0  0.62769  0.98328  0.26245  1.0000 1.3967352632
Mg  Mg3       1.0  0.30514  0.71166  0.37331  1.0000 1.4418721918
Mg  Mg4       1.0  0.69486  0.28834  0.62669  1.0000 1.4418721918
P   P1        1.0  0.41507  0.28097  0.40778  1.0000 1.5919975165
P   P2        1.0  0.58493  0.71903  0.59222  1.0000 1.5919975165
H   H1        1.0  0.20460  0.14910  0.39870  1.0000 0.393560243
H   H2        1.0  0.79540  0.85090  0.60130  1.0000 0.393560243
C   C1        1.0  0.00590  0.04470  0.69220  1.0000 0.4994149554
C   C2        1.0  0.99410  0.95530  0.30780  1.0000 0.4994149554
C   C3        1.0  0.04210  0.21790  0.72670  1.0000 0.4994149554
C   C4        1.0  0.95790  0.78210  0.27330  1.0000 0.4994149554
C   C5        1.0  0.56450  0.07520  0.96060  1.0000 0.5295341138
C   C6        1.0  0.43550  0.92480  0.03940  1.0000 0.5295341138
O   O1        1.0  0.48990  0.19510  0.55436  1.0000 -0.9427058574
O   O2        1.0  0.51010  0.80490  0.44564  1.0000 -0.9427058574
O   O3        1.0  0.41680  0.48210  0.36079  1.0000 -0.8281422731
O   O4        1.0  0.58320  0.51790  0.63921  1.0000 -0.8249520537
O   O5        1.0  0.50930  0.20490  0.29263  1.0000 -0.8281422731
O   O6        1.0  0.49070  0.79510  0.70737  1.0000 -0.8281422731
O   O7        1.0  0.21470  0.23310  0.43010  1.0000 -0.5896490094
O   O8        1.0  0.78530  0.76690  0.56990  1.0000 -0.5896490094
O   O9        1.0  0.13060  0.92960  0.70125  1.0000 -0.5101833221
O   O10       1.0  0.86940  0.07040  0.29875  1.0000 -0.5101833221
O   O11       1.0  0.85580  0.03870  0.65690  1.0000 -0.5327076789
O   O12       1.0  0.14420  0.96130  0.34310  1.0000 -0.5327076789
O   O13       1.0  0.18920  0.21970  0.76900  1.0000 -0.5327076789
O   O14       1.0  0.81080  0.78030  0.23100  1.0000 -0.5327076789
O   O15       1.0  0.92340  0.33940  0.70740  1.0000 -0.5198998626
O   O16       1.0  0.07660  0.66060  0.29260  1.0000 -0.5198998626
O   O17       1.0  0.55760  0.13560  0.82543  1.0000 -0.5896490094
O   O18       1.0  0.44240  0.86440  0.17457  1.0000 -0.5896490094
O   O19       1.0  0.65830  0.12270  0.03469  1.0000 -0.480337384
O   O20       1.0  0.34170  0.87730  0.96531  1.0000 -0.480337384
