# DDEC6 charges by PACMAN v1.1 (https://github.com/mtap-research/PACMAN-charge/)
data_2015[Zr][fcu]3[ASR]4
_chemical_formula_sum              "Zr24 H208 C336 O128"
_cell_length_a       26.783
_cell_length_b       26.783
_cell_length_c       26.783
_cell_angle_alpha    90
_cell_angle_beta     90
_cell_angle_gamma    90

_symmetry_space_group_name_H-M    "P 1"
_symmetry_Int_Tables_number       1

loop_
  _symmetry_equiv_pos_as_xyz
  'x, y, z'

loop_
  _atom_site_type_symbol
  _atom_site_label
  _atom_site_symmetry_multiplicity
  _atom_site_fract_x
  _atom_site_fract_y
  _atom_site_fract_z
  _atom_site_occupancy
  _atom_site_charge
Zr  Zr1       1.0  0.00011  0.08839  0.00001  1.0000 2.2634447651
Zr  Zr2       1.0  0.08840  0.99985  0.00003  1.0000 2.2652962987
Zr  Zr3       1.0  0.91161  0.00016  0.00003  1.0000 2.2634447651
Zr  Zr4       1.0  0.00000  0.00001  0.08839  1.0000 2.2634447651
Zr  Zr5       1.0  0.00000  0.00001  0.91164  1.0000 2.2634447651
Zr  Zr6       1.0  0.99990  0.91163  0.00001  1.0000 2.2634447651
Zr  Zr7       1.0  0.50011  0.58839  0.00001  1.0000 2.2634447651
Zr  Zr8       1.0  0.58840  0.49985  0.00003  1.0000 2.2652962987
Zr  Zr9       1.0  0.41161  0.50016  0.00003  1.0000 2.2652962987
Zr  Zr10      1.0  0.50000  0.50001  0.08839  1.0000 2.2634447651
Zr  Zr11      1.0  0.50000  0.50001  0.91164  1.0000 2.2634447651
Zr  Zr12      1.0  0.49990  0.41163  0.00001  1.0000 2.2634447651
Zr  Zr13      1.0  0.99990  0.58841  0.49998  1.0000 2.2634447651
Zr  Zr14      1.0  0.08838  0.50017  0.49994  1.0000 2.2634447651
Zr  Zr15      1.0  0.91163  0.49985  0.49994  1.0000 2.2634447651
Zr  Zr16      1.0  0.00000  0.50001  0.58835  1.0000 2.2634447651
Zr  Zr17      1.0  0.00000  0.50001  0.41160  1.0000 2.2634447651
Zr  Zr18      1.0  0.00011  0.41161  0.49998  1.0000 2.2652962987
Zr  Zr19      1.0  0.49990  0.08841  0.49998  1.0000 2.2652962987
Zr  Zr20      1.0  0.58838  0.00017  0.49994  1.0000 2.2634447651
Zr  Zr21      1.0  0.41163  0.99985  0.49994  1.0000 2.2634447651
Zr  Zr22      1.0  0.50000  0.00001  0.58835  1.0000 2.2634447651
Zr  Zr23      1.0  0.50000  0.00001  0.41160  1.0000 2.2634447651
Zr  Zr24      1.0  0.50011  0.91161  0.49998  1.0000 2.2634447651
H   H1        1.0  0.06650  0.06632  0.06639  1.0000 0.3927164335
H   H2        1.0  0.93369  0.06651  0.93360  1.0000 0.3927164335
H   H3        1.0  0.93351  0.93370  0.06639  1.0000 0.3927164335
H   H4        1.0  0.06632  0.93350  0.93360  1.0000 0.3927164335
H   H5        1.0  0.56650  0.56632  0.06639  1.0000 0.3927164335
H   H6        1.0  0.43369  0.56651  0.93360  1.0000 0.3927164335
H   H7        1.0  0.43351  0.43370  0.06639  1.0000 0.3927164335
H   H8        1.0  0.56632  0.43350  0.93360  1.0000 0.3927164335
H   H9        1.0  0.06631  0.56652  0.56638  1.0000 0.3927164335
H   H10       1.0  0.93351  0.56633  0.43360  1.0000 0.3927164335
H   H11       1.0  0.93370  0.43350  0.56638  1.0000 0.3927164335
H   H12       1.0  0.06650  0.43369  0.43360  1.0000 0.3927164335
H   H13       1.0  0.56631  0.06652  0.56638  1.0000 0.3927164335
H   H14       1.0  0.43351  0.06633  0.43360  1.0000 0.3927164335
H   H15       1.0  0.43370  0.93350  0.56638  1.0000 0.3927164335
H   H16       1.0  0.56650  0.93369  0.43360  1.0000 0.3927164335
H   H17       1.0  0.10512  0.21477  0.01848  1.0000 0.107029229
H   H18       1.0  0.21458  0.10486  0.97517  1.0000 0.107029229
H   H19       1.0  0.39489  0.28525  0.01848  1.0000 0.107029229
H   H20       1.0  0.28543  0.39516  0.97517  1.0000 0.107029229
H   H21       1.0  0.27876  0.16938  0.97338  1.0000 0.1004916032
H   H22       1.0  0.33048  0.22104  0.01885  1.0000 0.1004916032
H   H23       1.0  0.16953  0.27898  0.01885  1.0000 0.1004916032
H   H24       1.0  0.22125  0.33063  0.97338  1.0000 0.1004916032
H   H25       1.0  0.10491  0.71456  0.47483  1.0000 0.107029229
H   H26       1.0  0.21470  0.60519  0.51869  1.0000 0.107029229
H   H27       1.0  0.39510  0.78546  0.47483  1.0000 0.107029229
H   H28       1.0  0.28531  0.89482  0.51869  1.0000 0.107029229
H   H29       1.0  0.27894  0.66960  0.51899  1.0000 0.1004916032
H   H30       1.0  0.33056  0.72127  0.47309  1.0000 0.1004916032
H   H31       1.0  0.16945  0.77875  0.47309  1.0000 0.1004916032
H   H32       1.0  0.22107  0.83042  0.51899  1.0000 0.1004916032
H   H33       1.0  0.78543  0.89516  0.97517  1.0000 0.107029229
H   H34       1.0  0.89489  0.78525  0.01848  1.0000 0.107029229
H   H35       1.0  0.71458  0.60486  0.97517  1.0000 0.107029229
H   H36       1.0  0.60512  0.71477  0.01848  1.0000 0.107029229
H   H37       1.0  0.83048  0.72104  0.01885  1.0000 0.1004916032
H   H38       1.0  0.77876  0.66938  0.97338  1.0000 0.1004916032
H   H39       1.0  0.72125  0.83063  0.97338  1.0000 0.1004916032
H   H40       1.0  0.66953  0.77898  0.01885  1.0000 0.1004916032
H   H41       1.0  0.78531  0.39482  0.51869  1.0000 0.107029229
H   H42       1.0  0.89510  0.28546  0.47483  1.0000 0.107029229
H   H43       1.0  0.71470  0.10519  0.51869  1.0000 0.107029229
H   H44       1.0  0.60491  0.21456  0.47483  1.0000 0.107029229
H   H45       1.0  0.83056  0.22127  0.47309  1.0000 0.1004916032
H   H46       1.0  0.77894  0.16960  0.51899  1.0000 0.1004916032
H   H47       1.0  0.72107  0.33042  0.51899  1.0000 0.1004916032
H   H48       1.0  0.66945  0.27875  0.47309  1.0000 0.1004916032
H   H49       1.0  0.78579  0.10501  0.02518  1.0000 0.107029229
H   H50       1.0  0.89497  0.21510  0.98161  1.0000 0.107029229
H   H51       1.0  0.71422  0.39501  0.02518  1.0000 0.1004916032
H   H52       1.0  0.60504  0.28491  0.98161  1.0000 0.107029229
H   H53       1.0  0.83039  0.27918  0.98128  1.0000 0.1004916032
H   H54       1.0  0.77854  0.33065  0.02695  1.0000 0.1004916032
H   H55       1.0  0.72147  0.16936  0.02695  1.0000 0.1004916032
H   H56       1.0  0.66962  0.22084  0.98128  1.0000 0.1004916032
H   H57       1.0  0.78496  0.60506  0.48144  1.0000 0.107029229
H   H58       1.0  0.89500  0.71422  0.52518  1.0000 0.107029229
H   H59       1.0  0.71505  0.89496  0.48144  1.0000 0.107029229
H   H60       1.0  0.60501  0.78580  0.52518  1.0000 0.107029229
H   H61       1.0  0.83063  0.77854  0.52692  1.0000 0.1004916032
H   H62       1.0  0.77914  0.83039  0.48111  1.0000 0.1004916032
H   H63       1.0  0.72087  0.66963  0.48111  1.0000 0.1004916032
H   H64       1.0  0.66938  0.72148  0.52692  1.0000 0.1004916032
H   H65       1.0  0.10501  0.28580  0.52518  1.0000 0.107029229
H   H66       1.0  0.21505  0.39496  0.48144  1.0000 0.107029229
H   H67       1.0  0.39500  0.21422  0.52518  1.0000 0.107029229
H   H68       1.0  0.28496  0.10506  0.48144  1.0000 0.107029229
H   H69       1.0  0.27914  0.33039  0.48111  1.0000 0.1004916032
H   H70       1.0  0.33063  0.27854  0.52692  1.0000 0.1004916032
H   H71       1.0  0.16938  0.22148  0.52692  1.0000 0.1004916032
H   H72       1.0  0.22087  0.16963  0.48111  1.0000 0.1004916032
H   H73       1.0  0.10504  0.78491  0.98161  1.0000 0.107029229
H   H74       1.0  0.21422  0.89501  0.02518  1.0000 0.107029229
H   H75       1.0  0.39497  0.71510  0.98161  1.0000 0.107029229
H   H76       1.0  0.28579  0.60501  0.02518  1.0000 0.107029229
H   H77       1.0  0.27854  0.83065  0.02695  1.0000 0.1004916032
H   H78       1.0  0.33039  0.77918  0.98128  1.0000 0.1004916032
H   H79       1.0  0.16962  0.72084  0.98128  1.0000 0.1004916032
H   H80       1.0  0.22147  0.66936  0.02695  1.0000 0.1004916032
H   H81       1.0  0.01833  0.10500  0.21494  1.0000 0.107029229
H   H82       1.0  0.97555  0.21453  0.10488  1.0000 0.107029229
H   H83       1.0  0.01940  0.39479  0.28526  1.0000 0.107029229
H   H84       1.0  0.97456  0.28571  0.39494  1.0000 0.107029229
H   H85       1.0  0.97394  0.27878  0.16933  1.0000 0.1004916032
H   H86       1.0  0.01981  0.33029  0.22110  1.0000 0.1004916032
H   H87       1.0  0.01878  0.16949  0.27911  1.0000 0.1004916032
H   H88       1.0  0.97292  0.22145  0.33048  1.0000 0.1004916032
H   H89       1.0  0.47535  0.28551  0.89515  1.0000 0.107029229
H   H90       1.0  0.51771  0.39505  0.78495  1.0000 0.107029229
H   H91       1.0  0.47434  0.21428  0.60499  1.0000 0.107029229
H   H92       1.0  0.51881  0.10519  0.71481  1.0000 0.107029229
H   H93       1.0  0.51808  0.33056  0.72081  1.0000 0.1004916032
H   H94       1.0  0.47253  0.27854  0.66944  1.0000 0.1004916032
H   H95       1.0  0.47357  0.22126  0.83072  1.0000 0.1004916032
H   H96       1.0  0.51912  0.16969  0.77895  1.0000 0.1004916032
H   H97       1.0  0.97535  0.78551  0.89515  1.0000 0.107029229
H   H98       1.0  0.01771  0.89505  0.78495  1.0000 0.107029229
H   H99       1.0  0.97434  0.71428  0.60499  1.0000 0.107029229
H   H100      1.0  0.01881  0.60519  0.71481  1.0000 0.107029229
H   H101      1.0  0.01807  0.83056  0.72081  1.0000 0.1004916032
H   H102      1.0  0.97253  0.77854  0.66944  1.0000 0.1004916032
H   H103      1.0  0.97357  0.72126  0.83072  1.0000 0.1004916032
H   H104      1.0  0.01912  0.66969  0.77895  1.0000 0.1004916032
H   H105      1.0  0.51833  0.60500  0.21494  1.0000 0.107029229
H   H106      1.0  0.47555  0.71453  0.10488  1.0000 0.107029229
H   H107      1.0  0.51940  0.89479  0.28526  1.0000 0.107029229
H   H108      1.0  0.47456  0.78571  0.39494  1.0000 0.107029229
H   H109      1.0  0.47394  0.77878  0.16933  1.0000 0.1004916032
H   H110      1.0  0.51981  0.83029  0.22110  1.0000 0.1004916032
H   H111      1.0  0.51878  0.66949  0.27911  1.0000 0.1004916032
H   H112      1.0  0.47292  0.72145  0.33048  1.0000 0.1004916032
H   H113      1.0  0.02446  0.78549  0.10488  1.0000 0.107029229
H   H114      1.0  0.98168  0.89501  0.21494  1.0000 0.107029229
H   H115      1.0  0.02545  0.71431  0.39494  1.0000 0.107029229
H   H116      1.0  0.98061  0.60523  0.28526  1.0000 0.107029229
H   H117      1.0  0.98123  0.83053  0.27911  1.0000 0.1004916032
H   H118      1.0  0.02709  0.77856  0.33048  1.0000 0.1004916032
H   H119      1.0  0.02607  0.72124  0.16933  1.0000 0.1004916032
H   H120      1.0  0.98020  0.66972  0.22110  1.0000 0.1004916032
H   H121      1.0  0.48230  0.60497  0.78495  1.0000 0.107029229
H   H122      1.0  0.52466  0.71451  0.89515  1.0000 0.107029229
H   H123      1.0  0.48120  0.89482  0.71481  1.0000 0.107029229
H   H124      1.0  0.52567  0.78573  0.60499  1.0000 0.107029229
H   H125      1.0  0.52644  0.77876  0.83072  1.0000 0.1004916032
H   H126      1.0  0.48089  0.83033  0.77895  1.0000 0.1004916032
H   H127      1.0  0.48193  0.66945  0.72081  1.0000 0.1004916032
H   H128      1.0  0.52748  0.72148  0.66944  1.0000 0.1004916032
H   H129      1.0  0.52446  0.28549  0.10488  1.0000 0.107029229
H   H130      1.0  0.48168  0.39501  0.21494  1.0000 0.107029229
H   H131      1.0  0.52545  0.21431  0.39494  1.0000 0.107029229
H   H132      1.0  0.48061  0.10523  0.28526  1.0000 0.107029229
H   H133      1.0  0.48123  0.33053  0.27911  1.0000 0.1004916032
H   H134      1.0  0.52709  0.27856  0.33048  1.0000 0.1004916032
H   H135      1.0  0.52607  0.22124  0.16933  1.0000 0.1004916032
H   H136      1.0  0.48020  0.16972  0.22110  1.0000 0.1004916032
H   H137      1.0  0.98230  0.10497  0.78495  1.0000 0.107029229
H   H138      1.0  0.02466  0.21451  0.89515  1.0000 0.107029229
H   H139      1.0  0.98120  0.39482  0.71481  1.0000 0.107029229
H   H140      1.0  0.02567  0.28573  0.60499  1.0000 0.107029229
H   H141      1.0  0.02644  0.27876  0.83072  1.0000 0.1004916032
H   H142      1.0  0.98089  0.33033  0.77895  1.0000 0.1004916032
H   H143      1.0  0.98193  0.16945  0.72081  1.0000 0.1004916032
H   H144      1.0  0.02748  0.22148  0.66944  1.0000 0.1004916032
H   H145      1.0  0.21426  0.97421  0.10505  1.0000 0.107029229
H   H146      1.0  0.10523  0.01911  0.21475  1.0000 0.107029229
H   H147      1.0  0.28553  0.97519  0.39508  1.0000 0.107029229
H   H148      1.0  0.39501  0.01804  0.28500  1.0000 0.107029229
H   H149      1.0  0.16974  0.01948  0.27890  1.0000 0.1004916032
H   H150      1.0  0.22127  0.97355  0.33064  1.0000 0.1004916032
H   H151      1.0  0.27853  0.97254  0.16950  1.0000 0.1004916032
H   H152      1.0  0.33051  0.01846  0.22085  1.0000 0.1004916032
H   H153      1.0  0.39519  0.47599  0.78545  1.0000 0.107029229
H   H154      1.0  0.28491  0.51791  0.89508  1.0000 0.107029229
H   H155      1.0  0.10508  0.47446  0.71422  1.0000 0.107029229
H   H156      1.0  0.21475  0.51940  0.60517  1.0000 0.107029229
H   H157      1.0  0.22078  0.51837  0.83058  1.0000 0.1004916032
H   H158      1.0  0.16952  0.47282  0.77847  1.0000 0.1004916032
H   H159      1.0  0.33078  0.47431  0.72118  1.0000 0.1004916032
H   H160      1.0  0.27888  0.51987  0.66969  1.0000 0.1004916032
H   H161      1.0  0.89519  0.97599  0.78545  1.0000 0.107029229
H   H162      1.0  0.78491  0.01791  0.89508  1.0000 0.107029229
H   H163      1.0  0.60508  0.97446  0.71422  1.0000 0.107029229
H   H164      1.0  0.71475  0.01940  0.60517  1.0000 0.107029229
H   H165      1.0  0.72078  0.01837  0.83058  1.0000 0.1004916032
H   H166      1.0  0.66952  0.97282  0.77847  1.0000 0.1004916032
H   H167      1.0  0.83078  0.97431  0.72118  1.0000 0.1004916032
H   H168      1.0  0.77888  0.01987  0.66969  1.0000 0.1004916032
H   H169      1.0  0.71426  0.47421  0.10505  1.0000 0.107029229
H   H170      1.0  0.60523  0.51911  0.21475  1.0000 0.107029229
H   H171      1.0  0.78553  0.47519  0.39508  1.0000 0.107029229
H   H172      1.0  0.89501  0.51804  0.28500  1.0000 0.107029229
H   H173      1.0  0.66974  0.51948  0.27890  1.0000 0.1004916032
H   H174      1.0  0.72127  0.47355  0.33064  1.0000 0.1004916032
H   H175      1.0  0.77853  0.47254  0.16950  1.0000 0.1004916032
H   H176      1.0  0.83051  0.51846  0.22085  1.0000 0.1004916032
H   H177      1.0  0.10482  0.02403  0.78545  1.0000 0.107029229
H   H178      1.0  0.21510  0.98210  0.89508  1.0000 0.107029229
H   H179      1.0  0.39493  0.02556  0.71422  1.0000 0.107029229
H   H180      1.0  0.28526  0.98062  0.60517  1.0000 0.107029229
H   H181      1.0  0.27923  0.98165  0.83058  1.0000 0.1004916032
H   H182      1.0  0.33049  0.02720  0.77847  1.0000 0.1004916032
H   H183      1.0  0.16923  0.02571  0.72118  1.0000 0.1004916032
H   H184      1.0  0.22113  0.98014  0.66969  1.0000 0.1004916032
H   H185      1.0  0.28575  0.52581  0.10505  1.0000 0.107029229
H   H186      1.0  0.39478  0.48091  0.21475  1.0000 0.107029229
H   H187      1.0  0.21448  0.52483  0.39508  1.0000 0.107029229
H   H188      1.0  0.10500  0.48197  0.28500  1.0000 0.107029229
H   H189      1.0  0.33027  0.48054  0.27890  1.0000 0.1004916032
H   H190      1.0  0.27874  0.52646  0.33064  1.0000 0.1004916032
H   H191      1.0  0.22147  0.52747  0.16950  1.0000 0.1004916032
H   H192      1.0  0.16950  0.48156  0.22085  1.0000 0.1004916032
H   H193      1.0  0.78575  0.02581  0.10505  1.0000 0.107029229
H   H194      1.0  0.89478  0.98091  0.21475  1.0000 0.107029229
H   H195      1.0  0.71448  0.02483  0.39508  1.0000 0.107029229
H   H196      1.0  0.60500  0.98197  0.28500  1.0000 0.107029229
H   H197      1.0  0.83027  0.98054  0.27890  1.0000 0.1004916032
H   H198      1.0  0.77874  0.02646  0.33064  1.0000 0.1004916032
H   H199      1.0  0.72147  0.02747  0.16950  1.0000 0.1004916032
H   H200      1.0  0.66950  0.98156  0.22085  1.0000 0.1004916032
H   H201      1.0  0.60482  0.52403  0.78545  1.0000 0.107029229
H   H202      1.0  0.71510  0.48210  0.89508  1.0000 0.107029229
H   H203      1.0  0.89493  0.52556  0.71422  1.0000 0.107029229
H   H204      1.0  0.78526  0.48062  0.60517  1.0000 0.107029229
H   H205      1.0  0.77923  0.48165  0.83058  1.0000 0.1004916032
H   H206      1.0  0.83049  0.52720  0.77847  1.0000 0.1004916032
H   H207      1.0  0.66923  0.52571  0.72118  1.0000 0.1004916032
H   H208      1.0  0.72113  0.48014  0.66969  1.0000 0.1004916032
C   C1        1.0  0.88554  0.11484  0.00225  1.0000 0.6307768806
C   C2        1.0  0.11471  0.11455  0.99785  1.0000 0.6307768806
C   C3        1.0  0.99782  0.11460  0.11467  1.0000 0.6307768806
C   C4        1.0  0.00240  0.11457  0.88531  1.0000 0.6307768806
C   C5        1.0  0.11447  0.88518  0.00225  1.0000 0.6307768806
C   C6        1.0  0.88530  0.88547  0.99785  1.0000 0.6307768806
C   C7        1.0  0.11461  0.99766  0.11468  1.0000 0.6307768806
C   C8        1.0  0.11471  0.00209  0.88545  1.0000 0.6307768806
C   C9        1.0  0.88530  0.99793  0.88545  1.0000 0.6307768806
C   C10       1.0  0.88540  0.00235  0.11468  1.0000 0.6307768806
C   C11       1.0  0.00219  0.88542  0.11467  1.0000 0.6307768806
C   C12       1.0  0.99761  0.88544  0.88531  1.0000 0.6307768806
C   C13       1.0  0.38554  0.61484  0.00225  1.0000 0.6307768806
C   C14       1.0  0.61471  0.61455  0.99785  1.0000 0.6307768806
C   C15       1.0  0.49782  0.61460  0.11467  1.0000 0.6307768806
C   C16       1.0  0.50240  0.61457  0.88531  1.0000 0.6307768806
C   C17       1.0  0.61447  0.38518  0.00225  1.0000 0.6307768806
C   C18       1.0  0.38530  0.38547  0.99785  1.0000 0.6307768806
C   C19       1.0  0.61461  0.49766  0.11468  1.0000 0.6307768806
C   C20       1.0  0.61471  0.50209  0.88545  1.0000 0.6307768806
C   C21       1.0  0.38530  0.49793  0.88545  1.0000 0.6307768806
C   C22       1.0  0.38540  0.50235  0.11468  1.0000 0.6307768806
C   C23       1.0  0.50219  0.38542  0.11467  1.0000 0.6307768806
C   C24       1.0  0.49761  0.38544  0.88531  1.0000 0.6307768806
C   C25       1.0  0.88522  0.61447  0.50219  1.0000 0.6307768806
C   C26       1.0  0.11455  0.61476  0.49779  1.0000 0.6307768806
C   C27       1.0  0.99773  0.61460  0.61466  1.0000 0.6307768806
C   C28       1.0  0.00208  0.61463  0.38533  1.0000 0.6307768806
C   C29       1.0  0.11479  0.38555  0.50219  1.0000 0.6307768806
C   C30       1.0  0.88546  0.38526  0.49779  1.0000 0.6307768806
C   C31       1.0  0.11469  0.49782  0.61453  1.0000 0.6307768806
C   C32       1.0  0.11457  0.50247  0.38528  1.0000 0.6307768806
C   C33       1.0  0.88544  0.49755  0.38528  1.0000 0.6307768806
C   C34       1.0  0.88532  0.50220  0.61453  1.0000 0.6307768806
C   C35       1.0  0.00228  0.38542  0.61466  1.0000 0.6307768806
C   C36       1.0  0.99793  0.38539  0.38533  1.0000 0.6307768806
C   C37       1.0  0.38522  0.11447  0.50219  1.0000 0.6307768806
C   C38       1.0  0.61455  0.11476  0.49779  1.0000 0.6307768806
C   C39       1.0  0.49773  0.11460  0.61466  1.0000 0.6307768806
C   C40       1.0  0.50208  0.11463  0.38533  1.0000 0.6307768806
C   C41       1.0  0.61479  0.88555  0.50219  1.0000 0.6307768806
C   C42       1.0  0.38546  0.88526  0.49779  1.0000 0.6307768806
C   C43       1.0  0.61469  0.99782  0.61453  1.0000 0.6307768806
C   C44       1.0  0.61457  0.00247  0.38528  1.0000 0.6307768806
C   C45       1.0  0.38544  0.99755  0.38528  1.0000 0.6307768806
C   C46       1.0  0.38532  0.00220  0.61453  1.0000 0.6307768806
C   C47       1.0  0.50228  0.88542  0.61466  1.0000 0.6307768806
C   C48       1.0  0.49793  0.88539  0.38533  1.0000 0.6307768806
C   C49       1.0  0.23001  0.23004  0.99610  1.0000 0.0723722472
C   C50       1.0  0.18004  0.24141  0.00838  1.0000 -0.1561793185
C   C51       1.0  0.14288  0.20428  0.00851  1.0000 -0.0929076975
C   C52       1.0  0.15434  0.15427  0.99693  1.0000 -0.0460627786
C   C53       1.0  0.20418  0.14274  0.98474  1.0000 -0.0929076975
C   C54       1.0  0.24127  0.17997  0.98406  1.0000 -0.1531507506
C   C55       1.0  0.27000  0.26997  0.99610  1.0000 0.0723722472
C   C56       1.0  0.31997  0.25861  0.00838  1.0000 -0.1561793185
C   C57       1.0  0.35713  0.29573  0.00851  1.0000 -0.0929076975
C   C58       1.0  0.34567  0.34575  0.99693  1.0000 -0.0460627786
C   C59       1.0  0.29583  0.35727  0.98474  1.0000 -0.0929076975
C   C60       1.0  0.25874  0.32005  0.98406  1.0000 -0.1531507506
C   C61       1.0  0.23004  0.73002  0.49602  1.0000 0.0723722472
C   C62       1.0  0.18000  0.74127  0.48386  1.0000 -0.1531507506
C   C63       1.0  0.14277  0.70419  0.48453  1.0000 -0.0929076975
C   C64       1.0  0.15427  0.65437  0.49687  1.0000 -0.0460627786
C   C65       1.0  0.20425  0.64293  0.50859  1.0000 -0.0929076975
C   C66       1.0  0.24138  0.68008  0.50844  1.0000 -0.1531507506
C   C67       1.0  0.26997  0.76999  0.49602  1.0000 0.0723722472
C   C68       1.0  0.32001  0.75875  0.48386  1.0000 -0.1531507506
C   C69       1.0  0.35724  0.79583  0.48453  1.0000 -0.0929076975
C   C70       1.0  0.34574  0.84564  0.49687  1.0000 -0.0460627786
C   C71       1.0  0.29576  0.85709  0.50859  1.0000 -0.0929076975
C   C72       1.0  0.25863  0.81993  0.50844  1.0000 -0.1531507506
C   C73       1.0  0.77000  0.76997  0.99610  1.0000 0.0723722472
C   C74       1.0  0.75874  0.82005  0.98406  1.0000 -0.1531507506
C   C75       1.0  0.79583  0.85727  0.98474  1.0000 -0.0929076975
C   C76       1.0  0.84567  0.84575  0.99693  1.0000 -0.0460627786
C   C77       1.0  0.85713  0.79573  0.00851  1.0000 -0.0929076975
C   C78       1.0  0.81997  0.75861  0.00838  1.0000 -0.1561793185
C   C79       1.0  0.73001  0.73004  0.99610  1.0000 0.0723722472
C   C80       1.0  0.74127  0.67997  0.98406  1.0000 -0.1531507506
C   C81       1.0  0.70418  0.64274  0.98474  1.0000 -0.0929076975
C   C82       1.0  0.65434  0.65427  0.99693  1.0000 -0.0460627786
C   C83       1.0  0.64288  0.70428  0.00851  1.0000 -0.0929076975
C   C84       1.0  0.68004  0.74141  0.00838  1.0000 -0.1561793185
C   C85       1.0  0.76997  0.26999  0.49602  1.0000 0.0723722472
C   C86       1.0  0.75863  0.31993  0.50844  1.0000 -0.1531507506
C   C87       1.0  0.79576  0.35709  0.50859  1.0000 -0.0929076975
C   C88       1.0  0.84574  0.34564  0.49687  1.0000 -0.0460627786
C   C89       1.0  0.85724  0.29583  0.48453  1.0000 -0.0929076975
C   C90       1.0  0.82001  0.25875  0.48386  1.0000 -0.1531507506
C   C91       1.0  0.73004  0.23002  0.49602  1.0000 0.0723722472
C   C92       1.0  0.74138  0.18008  0.50844  1.0000 -0.1531507506
C   C93       1.0  0.70425  0.14293  0.50859  1.0000 -0.0929076975
C   C94       1.0  0.65427  0.15438  0.49687  1.0000 -0.0460627786
C   C95       1.0  0.64277  0.20419  0.48453  1.0000 -0.0929076975
C   C96       1.0  0.68000  0.24127  0.48386  1.0000 -0.1531507506
C   C97       1.0  0.77005  0.23011  0.00412  1.0000 0.0723722472
C   C98       1.0  0.75893  0.18003  0.01622  1.0000 -0.1531507506
C   C99       1.0  0.79610  0.14290  0.01554  1.0000 -0.0929076975
C   C100      1.0  0.84590  0.15453  0.00327  1.0000 -0.0460627786
C   C101      1.0  0.85725  0.20455  0.99163  1.0000 -0.0929076975
C   C102      1.0  0.81999  0.24159  0.99178  1.0000 -0.1561793185
C   C103      1.0  0.72996  0.26991  0.00412  1.0000 0.0723722472
C   C104      1.0  0.74108  0.31999  0.01622  1.0000 -0.1531507506
C   C105      1.0  0.70391  0.35711  0.01554  1.0000 -0.0929076975
C   C106      1.0  0.65411  0.34548  0.00327  1.0000 -0.0460627786
C   C107      1.0  0.64276  0.29546  0.99163  1.0000 -0.0929076975
C   C108      1.0  0.68002  0.25843  0.99178  1.0000 -0.1561793185
C   C109      1.0  0.76991  0.72996  0.50402  1.0000 0.0723722472
C   C110      1.0  0.75845  0.68003  0.49164  1.0000 -0.1561793185
C   C111      1.0  0.79550  0.64277  0.49150  1.0000 -0.0929076975
C   C112      1.0  0.84551  0.65411  0.50319  1.0000 -0.0460627786
C   C113      1.0  0.85712  0.70391  0.51550  1.0000 -0.0929076975
C   C114      1.0  0.81998  0.74109  0.51616  1.0000 -0.1531507506
C   C115      1.0  0.73010  0.77005  0.50402  1.0000 0.0723722472
C   C116      1.0  0.74156  0.81998  0.49164  1.0000 -0.1561793185
C   C117      1.0  0.70451  0.85724  0.49150  1.0000 -0.0929076975
C   C118      1.0  0.65450  0.84591  0.50319  1.0000 -0.0460627786
C   C119      1.0  0.64289  0.79610  0.51550  1.0000 -0.0929076975
C   C120      1.0  0.68003  0.75893  0.51616  1.0000 -0.1531507506
C   C121      1.0  0.23010  0.27005  0.50402  1.0000 0.0723722472
C   C122      1.0  0.18003  0.25893  0.51616  1.0000 -0.1531507506
C   C123      1.0  0.14289  0.29610  0.51550  1.0000 -0.0929076975
C   C124      1.0  0.15450  0.34591  0.50319  1.0000 -0.0460627786
C   C125      1.0  0.20451  0.35724  0.49150  1.0000 -0.0929076975
C   C126      1.0  0.24156  0.31998  0.49164  1.0000 -0.1561793185
C   C127      1.0  0.26991  0.22996  0.50402  1.0000 0.0723722472
C   C128      1.0  0.31998  0.24109  0.51616  1.0000 -0.1531507506
C   C129      1.0  0.35712  0.20391  0.51550  1.0000 -0.0929076975
C   C130      1.0  0.34551  0.15411  0.50319  1.0000 -0.0460627786
C   C131      1.0  0.29550  0.14277  0.49150  1.0000 -0.0929076975
C   C132      1.0  0.25845  0.18003  0.49164  1.0000 -0.1561793185
C   C133      1.0  0.22996  0.76991  0.00412  1.0000 0.0723722472
C   C134      1.0  0.18002  0.75843  0.99178  1.0000 -0.1561793185
C   C135      1.0  0.14276  0.79546  0.99163  1.0000 -0.0929076975
C   C136      1.0  0.15411  0.84548  0.00327  1.0000 -0.0460627786
C   C137      1.0  0.20391  0.85711  0.01554  1.0000 -0.0929076975
C   C138      1.0  0.24108  0.81999  0.01622  1.0000 -0.1531507506
C   C139      1.0  0.27005  0.73011  0.00412  1.0000 0.0723722472
C   C140      1.0  0.31999  0.74159  0.99178  1.0000 -0.1561793185
C   C141      1.0  0.35725  0.70455  0.99163  1.0000 -0.0929076975
C   C142      1.0  0.34590  0.65453  0.00327  1.0000 -0.0460627786
C   C143      1.0  0.29610  0.64290  0.01554  1.0000 -0.0929076975
C   C144      1.0  0.25893  0.68003  0.01622  1.0000 -0.1531507506
C   C145      1.0  0.99633  0.22999  0.23007  1.0000 0.0723722472
C   C146      1.0  0.00842  0.17999  0.24150  1.0000 -0.1561793185
C   C147      1.0  0.00849  0.14278  0.20442  1.0000 -0.0929076975
C   C148      1.0  0.99698  0.15424  0.15438  1.0000 -0.0460627786
C   C149      1.0  0.98502  0.20413  0.14279  1.0000 -0.0929076975
C   C150      1.0  0.98444  0.24125  0.17997  1.0000 -0.1531507506
C   C151      1.0  0.99635  0.27001  0.26995  1.0000 0.0723722472
C   C152      1.0  0.00902  0.31990  0.25861  1.0000 -0.1561793185
C   C153      1.0  0.00910  0.35711  0.29570  1.0000 -0.0929076975
C   C154      1.0  0.99706  0.34576  0.34562  1.0000 -0.0460627786
C   C155      1.0  0.98450  0.29600  0.35712  1.0000 -0.0929076975
C   C156      1.0  0.98389  0.25887  0.31994  1.0000 -0.1531507506
C   C157      1.0  0.49581  0.27004  0.76991  1.0000 0.0723722472
C   C158      1.0  0.48403  0.25879  0.82004  1.0000 -0.1531507506
C   C159      1.0  0.48471  0.29592  0.85722  1.0000 -0.0929076975
C   C160      1.0  0.49663  0.34581  0.84559  1.0000 -0.0460627786
C   C161      1.0  0.50796  0.35726  0.79552  1.0000 -0.0929076975
C   C162      1.0  0.50782  0.32005  0.75844  1.0000 -0.1561793185
C   C163      1.0  0.49582  0.22999  0.73004  1.0000 0.0723722472
C   C164      1.0  0.48347  0.24112  0.68002  1.0000 -0.1531507506
C   C165      1.0  0.48418  0.20399  0.64284  1.0000 -0.0929076975
C   C166      1.0  0.49671  0.15423  0.65437  1.0000 -0.0460627786
C   C167      1.0  0.50858  0.14288  0.70434  1.0000 -0.0929076975
C   C168      1.0  0.50842  0.18010  0.74141  1.0000 -0.1561793185
C   C169      1.0  0.99581  0.77004  0.76991  1.0000 0.0723722472
C   C170      1.0  0.98403  0.75879  0.82004  1.0000 -0.1531507506
C   C171      1.0  0.98471  0.79592  0.85722  1.0000 -0.0929076975
C   C172      1.0  0.99663  0.84581  0.84559  1.0000 -0.0460627786
C   C173      1.0  0.00796  0.85726  0.79552  1.0000 -0.0929076975
C   C174      1.0  0.00782  0.82005  0.75844  1.0000 -0.1561793185
C   C175      1.0  0.99582  0.72999  0.73004  1.0000 0.0723722472
C   C176      1.0  0.98347  0.74112  0.68002  1.0000 -0.1531507506
C   C177      1.0  0.98418  0.70399  0.64284  1.0000 -0.0929076975
C   C178      1.0  0.99671  0.65423  0.65437  1.0000 -0.0460627786
C   C179      1.0  0.00858  0.64288  0.70434  1.0000 -0.0929076975
C   C180      1.0  0.00842  0.68010  0.74141  1.0000 -0.1561793185
C   C181      1.0  0.49633  0.72999  0.23007  1.0000 0.0723722472
C   C182      1.0  0.50842  0.67999  0.24150  1.0000 -0.1561793185
C   C183      1.0  0.50849  0.64278  0.20442  1.0000 -0.0929076975
C   C184      1.0  0.49698  0.65424  0.15438  1.0000 -0.0460627786
C   C185      1.0  0.48502  0.70413  0.14279  1.0000 -0.0929076975
C   C186      1.0  0.48444  0.74125  0.17997  1.0000 -0.1531507506
C   C187      1.0  0.49635  0.77001  0.26995  1.0000 0.0723722472
C   C188      1.0  0.50902  0.81990  0.25861  1.0000 -0.1561793185
C   C189      1.0  0.50910  0.85711  0.29570  1.0000 -0.0929076975
C   C190      1.0  0.49706  0.84576  0.34562  1.0000 -0.0460627786
C   C191      1.0  0.48450  0.79600  0.35712  1.0000 -0.0929076975
C   C192      1.0  0.48389  0.75887  0.31994  1.0000 -0.1531507506
C   C193      1.0  0.00367  0.77002  0.23007  1.0000 0.0723722472
C   C194      1.0  0.01557  0.75876  0.17997  1.0000 -0.1531507506
C   C195      1.0  0.01499  0.79589  0.14279  1.0000 -0.0951301794
C   C196      1.0  0.00303  0.84578  0.15438  1.0000 -0.0460627786
C   C197      1.0  0.99152  0.85723  0.20442  1.0000 -0.0929076975
C   C198      1.0  0.99158  0.82003  0.24150  1.0000 -0.1561793185
C   C199      1.0  0.00366  0.73000  0.26995  1.0000 0.0723722472
C   C200      1.0  0.01612  0.74114  0.31994  1.0000 -0.1531507506
C   C201      1.0  0.01551  0.70402  0.35712  1.0000 -0.0929076975
C   C202      1.0  0.00295  0.65426  0.34562  1.0000 -0.0460627786
C   C203      1.0  0.99090  0.64291  0.29570  1.0000 -0.0929076975
C   C204      1.0  0.99099  0.68012  0.25861  1.0000 -0.1561793185
C   C205      1.0  0.50420  0.72998  0.76991  1.0000 0.0723722472
C   C206      1.0  0.49219  0.67997  0.75844  1.0000 -0.1561793185
C   C207      1.0  0.49205  0.64275  0.79552  1.0000 -0.0929076975
C   C208      1.0  0.50338  0.65421  0.84559  1.0000 -0.0460627786
C   C209      1.0  0.51530  0.70410  0.85722  1.0000 -0.0929076975
C   C210      1.0  0.51597  0.74123  0.82004  1.0000 -0.1531507506
C   C211      1.0  0.50419  0.77002  0.73004  1.0000 0.0723722472
C   C212      1.0  0.49159  0.81992  0.74141  1.0000 -0.1561793185
C   C213      1.0  0.49143  0.85713  0.70434  1.0000 -0.0929076975
C   C214      1.0  0.50330  0.84579  0.65437  1.0000 -0.0460627786
C   C215      1.0  0.51583  0.79603  0.64284  1.0000 -0.0929076975
C   C216      1.0  0.51654  0.75890  0.68002  1.0000 -0.1531507506
C   C217      1.0  0.50367  0.27002  0.23007  1.0000 0.0723722472
C   C218      1.0  0.51557  0.25876  0.17997  1.0000 -0.1531507506
C   C219      1.0  0.51499  0.29589  0.14279  1.0000 -0.0929076975
C   C220      1.0  0.50303  0.34578  0.15438  1.0000 -0.0460627786
C   C221      1.0  0.49152  0.35723  0.20442  1.0000 -0.0929076975
C   C222      1.0  0.49158  0.32003  0.24150  1.0000 -0.1561793185
C   C223      1.0  0.50366  0.23000  0.26995  1.0000 0.0723722472
C   C224      1.0  0.51612  0.24114  0.31994  1.0000 -0.1531507506
C   C225      1.0  0.51551  0.20402  0.35712  1.0000 -0.0929076975
C   C226      1.0  0.50295  0.15426  0.34562  1.0000 -0.0460627786
C   C227      1.0  0.49090  0.14291  0.29570  1.0000 -0.0929076975
C   C228      1.0  0.49099  0.18012  0.25861  1.0000 -0.1561793185
C   C229      1.0  0.00420  0.22998  0.76991  1.0000 0.0723722472
C   C230      1.0  0.99219  0.17997  0.75844  1.0000 -0.1531507506
C   C231      1.0  0.99205  0.14275  0.79552  1.0000 -0.0929076975
C   C232      1.0  0.00338  0.15421  0.84559  1.0000 -0.0460627786
C   C233      1.0  0.01530  0.20410  0.85722  1.0000 -0.0929076975
C   C234      1.0  0.01597  0.24123  0.82004  1.0000 -0.1531507506
C   C235      1.0  0.00419  0.27002  0.73004  1.0000 0.0723722472
C   C236      1.0  0.99159  0.31992  0.74141  1.0000 -0.1561793185
C   C237      1.0  0.99143  0.35713  0.70434  1.0000 -0.0929076975
C   C238      1.0  0.00330  0.34579  0.65437  1.0000 -0.0460627786
C   C239      1.0  0.01583  0.29603  0.64284  1.0000 -0.0929076975
C   C240      1.0  0.01654  0.25890  0.68002  1.0000 -0.1531507506
C   C241      1.0  0.23000  0.99599  0.23004  1.0000 0.0723722472
C   C242      1.0  0.24112  0.98353  0.18005  1.0000 -0.1531507506
C   C243      1.0  0.20399  0.98415  0.14288  1.0000 -0.0929076975
C   C244      1.0  0.15423  0.99674  0.15438  1.0000 -0.0460627786
C   C245      1.0  0.14290  0.00879  0.20431  1.0000 -0.0929076975
C   C246      1.0  0.18012  0.00868  0.24139  1.0000 -0.1561793185
C   C247      1.0  0.27003  0.99598  0.26990  1.0000 0.0723722472
C   C248      1.0  0.25879  0.98407  0.32000  1.0000 -0.1531507506
C   C249      1.0  0.29592  0.98467  0.35717  1.0000 -0.0951301794
C   C250      1.0  0.34580  0.99666  0.34557  1.0000 -0.044528317
C   C251      1.0  0.35724  0.00818  0.29553  1.0000 -0.0929076975
C   C252      1.0  0.32002  0.00810  0.25845  1.0000 -0.1561793185
C   C253      1.0  0.26993  0.49632  0.77000  1.0000 0.0723722472
C   C254      1.0  0.32008  0.48466  0.75873  1.0000 -0.1531507506
C   C255      1.0  0.35724  0.48527  0.79587  1.0000 -0.0929076975
C   C256      1.0  0.34559  0.49704  0.84580  1.0000 -0.0460627786
C   C257      1.0  0.29550  0.50828  0.85727  1.0000 -0.0929076975
C   C258      1.0  0.25843  0.50820  0.82004  1.0000 -0.1561793185
C   C259      1.0  0.23006  0.49632  0.72996  1.0000 0.0723722472
C   C260      1.0  0.18007  0.48382  0.74107  1.0000 -0.1531507506
C   C261      1.0  0.14290  0.48441  0.70393  1.0000 -0.0929076975
C   C262      1.0  0.15439  0.49697  0.65417  1.0000 -0.0460627786
C   C263      1.0  0.20431  0.50908  0.64285  1.0000 -0.0929076975
C   C264      1.0  0.24138  0.50903  0.68008  1.0000 -0.1531507506
C   C265      1.0  0.76993  0.99632  0.77000  1.0000 0.0723722472
C   C266      1.0  0.82008  0.98466  0.75873  1.0000 -0.1531507506
C   C267      1.0  0.85724  0.98527  0.79587  1.0000 -0.0929076975
C   C268      1.0  0.84559  0.99704  0.84580  1.0000 -0.0460627786
C   C269      1.0  0.79550  0.00828  0.85727  1.0000 -0.0929076975
C   C270      1.0  0.75843  0.00820  0.82004  1.0000 -0.1561793185
C   C271      1.0  0.73006  0.99632  0.72996  1.0000 0.0723722472
C   C272      1.0  0.68007  0.98382  0.74107  1.0000 -0.1531507506
C   C273      1.0  0.64290  0.98441  0.70393  1.0000 -0.0929076975
C   C274      1.0  0.65439  0.99697  0.65417  1.0000 -0.0460627786
C   C275      1.0  0.70431  0.00908  0.64285  1.0000 -0.0929076975
C   C276      1.0  0.74138  0.00903  0.68008  1.0000 -0.1531507506
C   C277      1.0  0.73000  0.49599  0.23004  1.0000 0.0723722472
C   C278      1.0  0.74112  0.48353  0.18005  1.0000 -0.1531507506
C   C279      1.0  0.70399  0.48415  0.14288  1.0000 -0.0929076975
C   C280      1.0  0.65423  0.49674  0.15438  1.0000 -0.0460627786
C   C281      1.0  0.64290  0.50879  0.20431  1.0000 -0.0929076975
C   C282      1.0  0.68012  0.50868  0.24139  1.0000 -0.1561793185
C   C283      1.0  0.77003  0.49598  0.26990  1.0000 0.0723722472
C   C284      1.0  0.75879  0.48407  0.32000  1.0000 -0.1531507506
C   C285      1.0  0.79592  0.48467  0.35717  1.0000 -0.0929076975
C   C286      1.0  0.84580  0.49666  0.34557  1.0000 -0.044528317
C   C287      1.0  0.85724  0.50818  0.29553  1.0000 -0.0929076975
C   C288      1.0  0.82002  0.50810  0.25845  1.0000 -0.1561793185
C   C289      1.0  0.23008  0.00369  0.77000  1.0000 0.0723722472
C   C290      1.0  0.17993  0.01536  0.75873  1.0000 -0.1531507506
C   C291      1.0  0.14277  0.01475  0.79587  1.0000 -0.0929076975
C   C292      1.0  0.15442  0.00298  0.84580  1.0000 -0.0460627786
C   C293      1.0  0.20451  0.99174  0.85727  1.0000 -0.0929076975
C   C294      1.0  0.24158  0.99182  0.82004  1.0000 -0.1561793185
C   C295      1.0  0.26995  0.00370  0.72996  1.0000 0.0723722472
C   C296      1.0  0.31994  0.01620  0.74107  1.0000 -0.1531507506
C   C297      1.0  0.35711  0.01561  0.70393  1.0000 -0.0929076975
C   C298      1.0  0.34562  0.00305  0.65417  1.0000 -0.0460627786
C   C299      1.0  0.29570  0.99094  0.64285  1.0000 -0.0929076975
C   C300      1.0  0.25863  0.99099  0.68008  1.0000 -0.1531507506
C   C301      1.0  0.27001  0.50402  0.23004  1.0000 0.0723722472
C   C302      1.0  0.25889  0.51649  0.18005  1.0000 -0.1531507506
C   C303      1.0  0.29602  0.51587  0.14288  1.0000 -0.0929076975
C   C304      1.0  0.34578  0.50328  0.15438  1.0000 -0.0460627786
C   C305      1.0  0.35710  0.49123  0.20431  1.0000 -0.0929076975
C   C306      1.0  0.31989  0.49133  0.24139  1.0000 -0.1561793185
C   C307      1.0  0.22998  0.50404  0.26990  1.0000 0.0723722472
C   C308      1.0  0.24122  0.51594  0.32000  1.0000 -0.1531507506
C   C309      1.0  0.20409  0.51535  0.35717  1.0000 -0.0951301794
C   C310      1.0  0.15421  0.50336  0.34557  1.0000 -0.044528317
C   C311      1.0  0.14277  0.49184  0.29553  1.0000 -0.0929076975
C   C312      1.0  0.17999  0.49192  0.25845  1.0000 -0.1561793185
C   C313      1.0  0.77001  0.00402  0.23004  1.0000 0.0723722472
C   C314      1.0  0.75889  0.01649  0.18005  1.0000 -0.1531507506
C   C315      1.0  0.79602  0.01587  0.14288  1.0000 -0.0929076975
C   C316      1.0  0.84578  0.00328  0.15438  1.0000 -0.0460627786
C   C317      1.0  0.85710  0.99123  0.20431  1.0000 -0.0929076975
C   C318      1.0  0.81989  0.99133  0.24139  1.0000 -0.1561793185
C   C319      1.0  0.72998  0.00404  0.26990  1.0000 0.0723722472
C   C320      1.0  0.74122  0.01594  0.32000  1.0000 -0.1531507506
C   C321      1.0  0.70409  0.01535  0.35717  1.0000 -0.0929076975
C   C322      1.0  0.65421  0.00336  0.34557  1.0000 -0.044528317
C   C323      1.0  0.64277  0.99184  0.29553  1.0000 -0.0929076975
C   C324      1.0  0.67999  0.99192  0.25845  1.0000 -0.1561793185
C   C325      1.0  0.73008  0.50369  0.77000  1.0000 0.0723722472
C   C326      1.0  0.67993  0.51536  0.75873  1.0000 -0.1531507506
C   C327      1.0  0.64277  0.51475  0.79587  1.0000 -0.0929076975
C   C328      1.0  0.65442  0.50298  0.84580  1.0000 -0.0460627786
C   C329      1.0  0.70451  0.49174  0.85727  1.0000 -0.0929076975
C   C330      1.0  0.74158  0.49182  0.82004  1.0000 -0.1561793185
C   C331      1.0  0.76995  0.50370  0.72996  1.0000 0.0723722472
C   C332      1.0  0.81994  0.51620  0.74107  1.0000 -0.1531507506
C   C333      1.0  0.85711  0.51561  0.70393  1.0000 -0.0929076975
C   C334      1.0  0.84562  0.50305  0.65417  1.0000 -0.0460627786
C   C335      1.0  0.79570  0.49094  0.64285  1.0000 -0.0929076975
C   C336      1.0  0.75863  0.49099  0.68008  1.0000 -0.1531507506
O   O1        1.0  0.87103  0.06840  0.00201  1.0000 -0.5765144136
O   O2        1.0  0.12915  0.06807  0.99810  1.0000 -0.5765144136
O   O3        1.0  0.99813  0.12907  0.06822  1.0000 -0.5765144136
O   O4        1.0  0.00223  0.12904  0.93177  1.0000 -0.5744353981
O   O5        1.0  0.00112  0.06814  0.87086  1.0000 -0.5765144136
O   O6        1.0  0.99883  0.06816  0.12912  1.0000 -0.5765144136
O   O7        1.0  0.06829  0.12905  0.99899  1.0000 -0.5765144136
O   O8        1.0  0.93200  0.12925  0.00105  1.0000 -0.5744353981
O   O9        1.0  0.04543  0.04529  0.95467  1.0000 -1.0920278917
O   O10       1.0  0.95470  0.04546  0.04540  1.0000 -1.0920278917
O   O11       1.0  0.04516  0.04503  0.04509  1.0000 -0.9717662822
O   O12       1.0  0.95496  0.04517  0.95491  1.0000 -0.9717662822
O   O13       1.0  0.12898  0.93161  0.00201  1.0000 -0.5765144136
O   O14       1.0  0.87086  0.93195  0.99810  1.0000 -0.5765144136
O   O15       1.0  0.06816  0.99869  0.12913  1.0000 -0.5765144136
O   O16       1.0  0.06825  0.00198  0.87099  1.0000 -0.5744353981
O   O17       1.0  0.93176  0.99803  0.87099  1.0000 -0.5765144136
O   O18       1.0  0.93185  0.00133  0.12913  1.0000 -0.5765144136
O   O19       1.0  0.00188  0.87094  0.06822  1.0000 -0.5765144136
O   O20       1.0  0.99778  0.87097  0.93177  1.0000 -0.5744353981
O   O21       1.0  0.00118  0.93186  0.12912  1.0000 -0.5765144136
O   O22       1.0  0.99889  0.93188  0.87086  1.0000 -0.5765144136
O   O23       1.0  0.12909  0.99803  0.06823  1.0000 -0.5765144136
O   O24       1.0  0.87092  0.00199  0.06823  1.0000 -0.5765144136
O   O25       1.0  0.87084  0.99919  0.93189  1.0000 -0.5765144136
O   O26       1.0  0.12917  0.00083  0.93189  1.0000 -0.5765144136
O   O27       1.0  0.06801  0.87077  0.00105  1.0000 -0.5744353981
O   O28       1.0  0.93172  0.87097  0.99899  1.0000 -0.5765144136
O   O29       1.0  0.95458  0.95472  0.95467  1.0000 -1.0920278917
O   O30       1.0  0.04531  0.95456  0.04540  1.0000 -1.0920278917
O   O31       1.0  0.95485  0.95498  0.04509  1.0000 -0.9717662822
O   O32       1.0  0.04505  0.95484  0.95491  1.0000 -0.9717662822
O   O33       1.0  0.37103  0.56840  0.00201  1.0000 -0.5765144136
O   O34       1.0  0.62915  0.56807  0.99810  1.0000 -0.5765144136
O   O35       1.0  0.49813  0.62907  0.06822  1.0000 -0.5765144136
O   O36       1.0  0.50223  0.62904  0.93177  1.0000 -0.5744353981
O   O37       1.0  0.50112  0.56814  0.87086  1.0000 -0.5765144136
O   O38       1.0  0.49883  0.56816  0.12912  1.0000 -0.5765144136
O   O39       1.0  0.56829  0.62905  0.99899  1.0000 -0.5765144136
O   O40       1.0  0.43200  0.62925  0.00105  1.0000 -0.5744353981
O   O41       1.0  0.54543  0.54529  0.95467  1.0000 -1.0920278917
O   O42       1.0  0.45470  0.54546  0.04540  1.0000 -1.0920278917
O   O43       1.0  0.54516  0.54503  0.04509  1.0000 -0.9717662822
O   O44       1.0  0.45496  0.54517  0.95491  1.0000 -0.9717662822
O   O45       1.0  0.62898  0.43161  0.00201  1.0000 -0.5765144136
O   O46       1.0  0.37086  0.43195  0.99810  1.0000 -0.5765144136
O   O47       1.0  0.56816  0.49869  0.12913  1.0000 -0.5765144136
O   O48       1.0  0.56825  0.50198  0.87099  1.0000 -0.5744353981
O   O49       1.0  0.43176  0.49803  0.87099  1.0000 -0.5744353981
O   O50       1.0  0.43185  0.50133  0.12913  1.0000 -0.5765144136
O   O51       1.0  0.50188  0.37094  0.06822  1.0000 -0.5765144136
O   O52       1.0  0.49778  0.37097  0.93177  1.0000 -0.5744353981
O   O53       1.0  0.50118  0.43186  0.12912  1.0000 -0.5765144136
O   O54       1.0  0.49889  0.43188  0.87086  1.0000 -0.5765144136
O   O55       1.0  0.62909  0.49803  0.06823  1.0000 -0.5765144136
O   O56       1.0  0.37092  0.50199  0.06823  1.0000 -0.5765144136
O   O57       1.0  0.37084  0.49919  0.93189  1.0000 -0.5765144136
O   O58       1.0  0.62917  0.50083  0.93189  1.0000 -0.5765144136
O   O59       1.0  0.56801  0.37077  0.00105  1.0000 -0.5744353981
O   O60       1.0  0.43172  0.37097  0.99899  1.0000 -0.5765144136
O   O61       1.0  0.45458  0.45472  0.95467  1.0000 -1.0920278917
O   O62       1.0  0.54531  0.45456  0.04540  1.0000 -1.0920278917
O   O63       1.0  0.45485  0.45498  0.04509  1.0000 -0.9717662822
O   O64       1.0  0.54505  0.45484  0.95491  1.0000 -0.9717662822
O   O65       1.0  0.87081  0.56800  0.50112  1.0000 -0.5765144136
O   O66       1.0  0.12904  0.56834  0.49880  1.0000 -0.5765144136
O   O67       1.0  0.99801  0.62909  0.56820  1.0000 -0.5765144136
O   O68       1.0  0.00164  0.62912  0.43178  1.0000 -0.5765144136
O   O69       1.0  0.00117  0.56818  0.37088  1.0000 -0.5765144136
O   O70       1.0  0.99890  0.56816  0.62911  1.0000 -0.5765144136
O   O71       1.0  0.06808  0.62920  0.49818  1.0000 -0.5765144136
O   O72       1.0  0.93165  0.62900  0.50181  1.0000 -0.5765144136
O   O73       1.0  0.04531  0.54546  0.45458  1.0000 -1.0920278917
O   O74       1.0  0.95458  0.54529  0.54531  1.0000 -1.0920278917
O   O75       1.0  0.04504  0.54518  0.54507  1.0000 -0.9717662822
O   O76       1.0  0.95486  0.54505  0.45489  1.0000 -0.9717662822
O   O77       1.0  0.12920  0.43201  0.50112  1.0000 -0.5765144136
O   O78       1.0  0.87097  0.43168  0.49880  1.0000 -0.5744353981
O   O79       1.0  0.06823  0.49801  0.62901  1.0000 -0.5765144136
O   O80       1.0  0.06814  0.50134  0.37083  1.0000 -0.5765144136
O   O81       1.0  0.93187  0.49868  0.37083  1.0000 -0.5765144136
O   O82       1.0  0.93178  0.50200  0.62901  1.0000 -0.5765144136
O   O83       1.0  0.00200  0.37093  0.56820  1.0000 -0.5765144136
O   O84       1.0  0.99837  0.37090  0.43178  1.0000 -0.5765144136
O   O85       1.0  0.00111  0.43186  0.62911  1.0000 -0.5765144136
O   O86       1.0  0.99884  0.43183  0.37088  1.0000 -0.5765144136
O   O87       1.0  0.12914  0.49896  0.56809  1.0000 -0.5765144136
O   O88       1.0  0.87087  0.50105  0.56809  1.0000 -0.5765144136
O   O89       1.0  0.87096  0.49779  0.43173  1.0000 -0.5744353981
O   O90       1.0  0.12905  0.50223  0.43173  1.0000 -0.5744353981
O   O91       1.0  0.06836  0.37102  0.50181  1.0000 -0.5765144136
O   O92       1.0  0.93193  0.37081  0.49818  1.0000 -0.5765144136
O   O93       1.0  0.95470  0.45455  0.45458  1.0000 -1.0920278917
O   O94       1.0  0.04543  0.45473  0.54531  1.0000 -1.0920278917
O   O95       1.0  0.95497  0.45484  0.54507  1.0000 -0.9717662822
O   O96       1.0  0.04515  0.45497  0.45489  1.0000 -0.9717662822
O   O97       1.0  0.37081  0.06800  0.50112  1.0000 -0.5765144136
O   O98       1.0  0.62904  0.06834  0.49880  1.0000 -0.5744353981
O   O99       1.0  0.49801  0.12909  0.56820  1.0000 -0.5765144136
O   O100      1.0  0.50164  0.12912  0.43178  1.0000 -0.5765144136
O   O101      1.0  0.50117  0.06818  0.37088  1.0000 -0.5765144136
O   O102      1.0  0.49890  0.06816  0.62911  1.0000 -0.5765144136
O   O103      1.0  0.56808  0.12920  0.49818  1.0000 -0.5765144136
O   O104      1.0  0.43165  0.12900  0.50181  1.0000 -0.5765144136
O   O105      1.0  0.54531  0.04546  0.45458  1.0000 -1.0920278917
O   O106      1.0  0.45458  0.04529  0.54531  1.0000 -1.0920278917
O   O107      1.0  0.54504  0.04518  0.54507  1.0000 -0.9717662822
O   O108      1.0  0.45486  0.04505  0.45489  1.0000 -0.9717662822
O   O109      1.0  0.62920  0.93201  0.50112  1.0000 -0.5765144136
O   O110      1.0  0.37097  0.93168  0.49880  1.0000 -0.5765144136
O   O111      1.0  0.56823  0.99801  0.62901  1.0000 -0.5765144136
O   O112      1.0  0.56814  0.00134  0.37083  1.0000 -0.5765144136
O   O113      1.0  0.43187  0.99868  0.37083  1.0000 -0.5765144136
O   O114      1.0  0.43178  0.00200  0.62901  1.0000 -0.5765144136
O   O115      1.0  0.50200  0.87093  0.56820  1.0000 -0.5765144136
O   O116      1.0  0.49837  0.87090  0.43178  1.0000 -0.5765144136
O   O117      1.0  0.50111  0.93186  0.62911  1.0000 -0.5765144136
O   O118      1.0  0.49884  0.93183  0.37088  1.0000 -0.5765144136
O   O119      1.0  0.62914  0.99896  0.56809  1.0000 -0.5765144136
O   O120      1.0  0.37087  0.00105  0.56809  1.0000 -0.5765144136
O   O121      1.0  0.37096  0.99779  0.43173  1.0000 -0.5744353981
O   O122      1.0  0.62905  0.00223  0.43173  1.0000 -0.5744353981
O   O123      1.0  0.56836  0.87102  0.50181  1.0000 -0.5765144136
O   O124      1.0  0.43193  0.87081  0.49818  1.0000 -0.5765144136
O   O125      1.0  0.45470  0.95455  0.45458  1.0000 -1.0920278917
O   O126      1.0  0.54543  0.95473  0.54531  1.0000 -1.0920278917
O   O127      1.0  0.45497  0.95484  0.54507  1.0000 -0.9717662822
O   O128      1.0  0.54515  0.95497  0.45489  1.0000 -0.9717662822
