# DDEC6 charges by PACMAN v1.1 (https://github.com/mtap-research/PACMAN-charge/)
data_2015[Co][nan]3[ASR]13
_chemical_formula_sum              "Co24 H112 C224 N48 O96"
_cell_length_a       24.7473
_cell_length_b       24.7473
_cell_length_c       16.1694
_cell_angle_alpha    85.6579
_cell_angle_beta     94.3421
_cell_angle_gamma    130.776

_symmetry_space_group_name_H-M    "P 1"
_symmetry_Int_Tables_number       1

loop_
  _symmetry_equiv_pos_as_xyz
  'x, y, z'

loop_
  _atom_site_type_symbol
  _atom_site_label
  _atom_site_symmetry_multiplicity
  _atom_site_fract_x
  _atom_site_fract_y
  _atom_site_fract_z
  _atom_site_occupancy
  _atom_site_charge
Co  Co1       1.0  0.74359  0.90101  0.46285  1.0000 0.7676322437
Co  Co2       1.0  0.90101  0.74359  0.53715  1.0000 0.7676322437
Co  Co3       1.0  0.25641  0.09899  0.53715  1.0000 0.7676322437
Co  Co4       1.0  0.09899  0.25641  0.46285  1.0000 0.7676322437
Co  Co5       1.0  0.60370  0.87704  0.54488  1.0000 0.9081359483
Co  Co6       1.0  0.87704  0.60370  0.45512  1.0000 0.9081359483
Co  Co7       1.0  0.39630  0.12296  0.45512  1.0000 0.9081359483
Co  Co8       1.0  0.12296  0.39630  0.54488  1.0000 0.9081359483
Co  Co9       1.0  0.47796  0.90568  0.55243  1.0000 0.8899900368
Co  Co10      1.0  0.90568  0.47796  0.44757  1.0000 0.8899900368
Co  Co11      1.0  0.52204  0.09432  0.44757  1.0000 0.8899900368
Co  Co12      1.0  0.09432  0.52204  0.55243  1.0000 0.8899900368
Co  Co13      1.0  0.75181  0.60543  0.88843  1.0000 0.8899900368
Co  Co14      1.0  0.60543  0.75181  0.11157  1.0000 0.8899900368
Co  Co15      1.0  0.24819  0.39457  0.11157  1.0000 0.8899900368
Co  Co16      1.0  0.39457  0.24819  0.88843  1.0000 0.8899900368
Co  Co17      1.0  0.62501  0.89119  0.00044  1.0000 0.915866462
Co  Co18      1.0  0.89119  0.62501  0.99956  1.0000 0.915866462
Co  Co19      1.0  0.37499  0.10881  0.99956  1.0000 0.915866462
Co  Co20      1.0  0.10881  0.37499  0.00044  1.0000 0.915866462
Co  Co21      1.0  0.60414  0.02048  0.94829  1.0000 0.8816987551
Co  Co22      1.0  0.02048  0.60414  0.05171  1.0000 0.8816987551
Co  Co23      1.0  0.39586  0.97952  0.05171  1.0000 0.8816987551
Co  Co24      1.0  0.97952  0.39586  0.94829  1.0000 0.8816987551
H   H1        1.0  0.63040  0.74300  0.36300  1.0000 0.1488601416
H   H2        1.0  0.74300  0.63040  0.63700  1.0000 0.1488601416
H   H3        1.0  0.36960  0.25700  0.63700  1.0000 0.1488601416
H   H4        1.0  0.25700  0.36960  0.36300  1.0000 0.1488601416
H   H5        1.0  0.48110  0.70690  0.49070  1.0000 0.139523066
H   H6        1.0  0.70690  0.48110  0.50930  1.0000 0.139523066
H   H7        1.0  0.51890  0.29310  0.50930  1.0000 0.139523066
H   H8        1.0  0.29310  0.51890  0.49070  1.0000 0.139523066
H   H9        1.0  0.73210  0.77510  0.66770  1.0000 0.1205105324
H   H10       1.0  0.77510  0.73210  0.33230  1.0000 0.1205105324
H   H11       1.0  0.26790  0.22490  0.33230  1.0000 0.1205105324
H   H12       1.0  0.22490  0.26790  0.66770  1.0000 0.1205105324
H   H13       1.0  0.65320  0.84740  0.78250  1.0000 0.139523066
H   H14       1.0  0.84740  0.65320  0.21750  1.0000 0.139523066
H   H15       1.0  0.34680  0.15260  0.21750  1.0000 0.139523066
H   H16       1.0  0.15260  0.34680  0.78250  1.0000 0.139523066
H   H17       1.0  0.73410  0.03370  0.62220  1.0000 0.1488601416
H   H18       1.0  0.03370  0.73410  0.37780  1.0000 0.1488601416
H   H19       1.0  0.26590  0.96630  0.37780  1.0000 0.1488601416
H   H20       1.0  0.96630  0.26590  0.62220  1.0000 0.1488601416
H   H21       1.0  0.68680  0.96980  0.22220  1.0000 0.1205105324
H   H22       1.0  0.96980  0.68680  0.77780  1.0000 0.1205105324
H   H23       1.0  0.31320  0.03020  0.77780  1.0000 0.1205105324
H   H24       1.0  0.03020  0.31320  0.22220  1.0000 0.1205105324
H   H25       1.0  0.65040  0.02060  0.42960  1.0000 0.1205105324
H   H26       1.0  0.02060  0.65040  0.57040  1.0000 0.1205105324
H   H27       1.0  0.34960  0.97940  0.57040  1.0000 0.1205105324
H   H28       1.0  0.97940  0.34960  0.42960  1.0000 0.1205105324
H   H29       1.0  0.54650  0.64930  0.28370  1.0000 0.139523066
H   H30       1.0  0.64930  0.54650  0.71630  1.0000 0.139523066
H   H31       1.0  0.45350  0.35070  0.71630  1.0000 0.139523066
H   H32       1.0  0.35070  0.45350  0.28370  1.0000 0.139523066
H   H33       1.0  0.41120  0.58880  0.46340  1.0000 0.139523066
H   H34       1.0  0.58880  0.41120  0.53660  1.0000 0.139523066
H   H35       1.0  0.59830  0.06530  0.62340  1.0000 0.139523066
H   H36       1.0  0.06530  0.59830  0.37660  1.0000 0.139523066
H   H37       1.0  0.40170  0.93470  0.37660  1.0000 0.139523066
H   H38       1.0  0.93470  0.40170  0.62340  1.0000 0.139523066
H   H39       1.0  0.45970  0.54030  0.22300  1.0000 0.139523066
H   H40       1.0  0.54030  0.45970  0.77700  1.0000 0.139523066
H   H41       1.0  0.66920  0.71000  0.90150  1.0000 0.139523066
H   H42       1.0  0.71000  0.66920  0.09850  1.0000 0.139523066
H   H43       1.0  0.33080  0.29000  0.09850  1.0000 0.139523066
H   H44       1.0  0.29000  0.33080  0.90150  1.0000 0.139523066
H   H45       1.0  0.47150  0.72430  0.76790  1.0000 0.1286883991
H   H46       1.0  0.72430  0.47150  0.23210  1.0000 0.1286883991
H   H47       1.0  0.52850  0.27570  0.23210  1.0000 0.1286883991
H   H48       1.0  0.27570  0.52850  0.76790  1.0000 0.1286883991
H   H49       1.0  0.32330  0.67670  0.59560  1.0000 0.1286883991
H   H50       1.0  0.67670  0.32330  0.40440  1.0000 0.1286883991
H   H51       1.0  0.53580  0.81540  0.31990  1.0000 0.1205105324
H   H52       1.0  0.81540  0.53580  0.68010  1.0000 0.1205105324
H   H53       1.0  0.46420  0.18460  0.68010  1.0000 0.1205105324
H   H54       1.0  0.18460  0.46420  0.31990  1.0000 0.1205105324
H   H55       1.0  0.43860  0.89660  0.27860  1.0000 0.1205105324
H   H56       1.0  0.89660  0.43860  0.72140  1.0000 0.1205105324
H   H57       1.0  0.56140  0.10340  0.72140  1.0000 0.1205105324
H   H58       1.0  0.10340  0.56140  0.27860  1.0000 0.1205105324
H   H59       1.0  0.58710  0.04810  0.20830  1.0000 0.1205105324
H   H60       1.0  0.04810  0.58710  0.79170  1.0000 0.1205105324
H   H61       1.0  0.41290  0.95190  0.79170  1.0000 0.1205105324
H   H62       1.0  0.95190  0.41290  0.20830  1.0000 0.1205105324
H   H63       1.0  0.67860  0.12520  0.76190  1.0000 0.139523066
H   H64       1.0  0.12520  0.67860  0.23810  1.0000 0.139523066
H   H65       1.0  0.32140  0.87480  0.23810  1.0000 0.139523066
H   H66       1.0  0.87480  0.32140  0.76190  1.0000 0.139523066
H   H67       1.0  0.81830  0.18170  0.59120  1.0000 0.1488601416
H   H68       1.0  0.18170  0.81830  0.40880  1.0000 0.1488601416
H   H69       1.0  0.76190  0.23810  0.81770  1.0000 0.139523066
H   H70       1.0  0.23810  0.76190  0.18230  1.0000 0.139523066
H   H71       1.0  0.46960  0.82460  0.08920  1.0000 0.1205105324
H   H72       1.0  0.82460  0.46960  0.91080  1.0000 0.1205105324
H   H73       1.0  0.53040  0.17540  0.91080  1.0000 0.1205105324
H   H74       1.0  0.17540  0.53040  0.08920  1.0000 0.1205105324
H   H75       1.0  0.78940  0.01680  0.07260  1.0000 0.139523066
H   H76       1.0  0.01680  0.78940  0.92740  1.0000 0.139523066
H   H77       1.0  0.21060  0.98320  0.92740  1.0000 0.139523066
H   H78       1.0  0.98320  0.21060  0.07260  1.0000 0.139523066
H   H79       1.0  0.46670  0.76290  0.91830  1.0000 0.1488601416
H   H80       1.0  0.76290  0.46670  0.08170  1.0000 0.1488601416
H   H81       1.0  0.53330  0.23710  0.08170  1.0000 0.1488601416
H   H82       1.0  0.23710  0.53330  0.91830  1.0000 0.1488601416
H   H83       1.0  0.43810  0.90170  0.88630  1.0000 0.139523066
H   H84       1.0  0.90170  0.43810  0.11370  1.0000 0.139523066
H   H85       1.0  0.56190  0.09830  0.11370  1.0000 0.139523066
H   H86       1.0  0.09830  0.56190  0.88630  1.0000 0.139523066
H   H87       1.0  0.76310  0.86850  0.21960  1.0000 0.139523066
H   H88       1.0  0.86850  0.76310  0.78040  1.0000 0.139523066
H   H89       1.0  0.23690  0.13150  0.78040  1.0000 0.139523066
H   H90       1.0  0.13150  0.23690  0.21960  1.0000 0.139523066
H   H91       1.0  0.78110  0.02350  0.76890  1.0000 0.1286883991
H   H92       1.0  0.02350  0.78110  0.23110  1.0000 0.1286883991
H   H93       1.0  0.21890  0.97650  0.23110  1.0000 0.1286883991
H   H94       1.0  0.97650  0.21890  0.76890  1.0000 0.1286883991
H   H95       1.0  0.83110  0.16890  0.92550  1.0000 0.1286883991
H   H96       1.0  0.16890  0.83110  0.07450  1.0000 0.1286883991
H   H97       1.0  0.84710  0.95710  0.30790  1.0000 0.139523066
H   H98       1.0  0.95710  0.84710  0.69210  1.0000 0.139523066
H   H99       1.0  0.15290  0.04290  0.69210  1.0000 0.139523066
H   H100      1.0  0.04290  0.15290  0.30790  1.0000 0.139523066
H   H101      1.0  0.91150  0.08850  0.10790  1.0000 0.139523066
H   H102      1.0  0.08850  0.91150  0.89210  1.0000 0.139523066
H   H103      1.0  0.37040  0.82400  0.75640  1.0000 0.139523066
H   H104      1.0  0.82400  0.37040  0.24360  1.0000 0.139523066
H   H105      1.0  0.62960  0.17600  0.24360  1.0000 0.139523066
H   H106      1.0  0.17600  0.62960  0.75640  1.0000 0.139523066
H   H107      1.0  0.31930  0.68070  0.94000  1.0000 0.1555893398
H   H108      1.0  0.68070  0.31930  0.06000  1.0000 0.1555893398
H   H109      1.0  0.95720  0.04280  0.37410  1.0000 0.139523066
H   H110      1.0  0.04280  0.95720  0.62590  1.0000 0.139523066
H   H111      1.0  0.25910  0.74090  0.69270  1.0000 0.1286883991
H   H112      1.0  0.74090  0.25910  0.30730  1.0000 0.1286883991
C   C1        1.0  0.60673  0.74787  0.39970  1.0000 0.1488601416
C   C2        1.0  0.74787  0.60673  0.60030  1.0000 0.1488601416
C   C3        1.0  0.39327  0.25213  0.60030  1.0000 0.1488601416
C   C4        1.0  0.25213  0.39327  0.39970  1.0000 0.1488601416
C   C5        1.0  0.70302  0.86058  0.63650  1.0000 0.592021761
C   C6        1.0  0.86058  0.70302  0.36350  1.0000 0.592021761
C   C7        1.0  0.29698  0.13942  0.36350  1.0000 0.592021761
C   C8        1.0  0.13942  0.29698  0.63650  1.0000 0.592021761
C   C9        1.0  0.70186  0.96014  0.38400  1.0000 0.5587566993
C   C10       1.0  0.96014  0.70186  0.61600  1.0000 0.5587566993
C   C11       1.0  0.29814  0.03986  0.61600  1.0000 0.5587566993
C   C12       1.0  0.03986  0.29814  0.38400  1.0000 0.5587566993
C   C13       1.0  0.52515  0.72825  0.46930  1.0000 0.1205105324
C   C14       1.0  0.72825  0.52515  0.53070  1.0000 0.1205105324
C   C15       1.0  0.47485  0.27175  0.53070  1.0000 0.1205105324
C   C16       1.0  0.27175  0.47485  0.46930  1.0000 0.1205105324
C   C17       1.0  0.69461  0.81859  0.71400  1.0000 -0.0208270885
C   C18       1.0  0.81859  0.69461  0.28600  1.0000 -0.0208270885
C   C19       1.0  0.30539  0.18141  0.28600  1.0000 -0.0208270885
C   C20       1.0  0.18141  0.30539  0.71400  1.0000 -0.0208270885
C   C21       1.0  0.67321  0.99055  0.33450  1.0000 -0.0079369727
C   C22       1.0  0.99055  0.67321  0.66550  1.0000 -0.0079369727
C   C23       1.0  0.32679  0.00945  0.66550  1.0000 -0.0079369727
C   C24       1.0  0.00945  0.32679  0.33450  1.0000 -0.0079369727
C   C25       1.0  0.48548  0.62982  0.37830  1.0000 0.1795714375
C   C26       1.0  0.62982  0.48548  0.62170  1.0000 0.1795714375
C   C27       1.0  0.51452  0.37018  0.62170  1.0000 0.1795714375
C   C28       1.0  0.37018  0.51452  0.37830  1.0000 0.1795714375
C   C29       1.0  0.71268  0.77552  0.71440  1.0000 -0.1112115822
C   C30       1.0  0.77552  0.71268  0.28560  1.0000 -0.1112115822
C   C31       1.0  0.28732  0.22448  0.28560  1.0000 -0.1112115822
C   C32       1.0  0.22448  0.28732  0.71440  1.0000 -0.1112115822
C   C33       1.0  0.66636  0.81964  0.78330  1.0000 -0.0914103859
C   C34       1.0  0.81964  0.66636  0.21670  1.0000 -0.0914103859
C   C35       1.0  0.33364  0.18036  0.21670  1.0000 -0.0914103859
C   C36       1.0  0.18036  0.33364  0.78330  1.0000 -0.0914103859
C   C37       1.0  0.69247  0.02713  0.61610  1.0000 0.1488601416
C   C38       1.0  0.02713  0.69247  0.38390  1.0000 0.1488601416
C   C39       1.0  0.30753  0.97287  0.38390  1.0000 0.1488601416
C   C40       1.0  0.97287  0.30753  0.61610  1.0000 0.1488601416
C   C41       1.0  0.45837  0.78163  0.63010  1.0000 0.592021761
C   C42       1.0  0.78163  0.45837  0.36990  1.0000 0.592021761
C   C43       1.0  0.54163  0.21837  0.36990  1.0000 0.592021761
C   C44       1.0  0.21837  0.54163  0.63010  1.0000 0.592021761
C   C45       1.0  0.49550  0.87090  0.40480  1.0000 0.5791637179
C   C46       1.0  0.87090  0.49550  0.59520  1.0000 0.5791637179
C   C47       1.0  0.50450  0.12910  0.59520  1.0000 0.5791637179
C   C48       1.0  0.12910  0.50450  0.40480  1.0000 0.5791637179
C   C49       1.0  0.66847  0.98711  0.24770  1.0000 -0.1112115822
C   C50       1.0  0.98711  0.66847  0.75230  1.0000 -0.1112115822
C   C51       1.0  0.33153  0.01289  0.75230  1.0000 -0.1195135518
C   C52       1.0  0.01289  0.33153  0.24770  1.0000 -0.1195135518
C   C53       1.0  0.64619  0.01691  0.37220  1.0000 -0.1112115822
C   C54       1.0  0.01691  0.64619  0.62780  1.0000 -0.1112115822
C   C55       1.0  0.35381  0.98309  0.62780  1.0000 -0.1112115822
C   C56       1.0  0.98309  0.35381  0.37220  1.0000 -0.1112115822
C   C57       1.0  0.50195  0.61565  0.30700  1.0000 -0.1715105348
C   C58       1.0  0.61565  0.50195  0.69300  1.0000 -0.1715105348
C   C59       1.0  0.49805  0.38435  0.69300  1.0000 -0.1715105348
C   C60       1.0  0.38435  0.49805  0.30700  1.0000 -0.1715105348
C   C61       1.0  0.42073  0.57927  0.41460  1.0000 -0.2745584571
C   C62       1.0  0.57927  0.42073  0.58540  1.0000 -0.2745584571
C   C63       1.0  0.70183  0.73357  0.78400  1.0000 -0.028769308
C   C64       1.0  0.73357  0.70183  0.21600  1.0000 -0.028769308
C   C65       1.0  0.29817  0.26643  0.21600  1.0000 -0.028769308
C   C66       1.0  0.26643  0.29817  0.78400  1.0000 -0.028769308
C   C67       1.0  0.65716  0.77984  0.85420  1.0000 -0.0208270885
C   C68       1.0  0.77984  0.65716  0.14580  1.0000 -0.0208270885
C   C69       1.0  0.34284  0.22016  0.14580  1.0000 -0.0208270885
C   C70       1.0  0.22016  0.34284  0.85420  1.0000 -0.0208270885
C   C71       1.0  0.61819  0.04449  0.61670  1.0000 0.139523066
C   C72       1.0  0.04449  0.61819  0.38330  1.0000 0.139523066
C   C73       1.0  0.38181  0.95551  0.38330  1.0000 0.139523066
C   C74       1.0  0.95551  0.38181  0.61670  1.0000 0.139523066
C   C75       1.0  0.40670  0.70990  0.67220  1.0000 -0.028769308
C   C76       1.0  0.70990  0.40670  0.32780  1.0000 -0.028769308
C   C77       1.0  0.59330  0.29010  0.32780  1.0000 -0.028769308
C   C78       1.0  0.29010  0.59330  0.67220  1.0000 -0.028769308
C   C79       1.0  0.48690  0.85630  0.31410  1.0000 -0.0208270885
C   C80       1.0  0.85630  0.48690  0.68590  1.0000 -0.0208270885
C   C81       1.0  0.51310  0.14370  0.68590  1.0000 -0.0208270885
C   C82       1.0  0.14370  0.51310  0.31410  1.0000 -0.0208270885
C   C83       1.0  0.63694  0.00916  0.19990  1.0000 -0.0208270885
C   C84       1.0  0.00916  0.63694  0.80010  1.0000 -0.0208270885
C   C85       1.0  0.36306  0.99084  0.80010  1.0000 -0.0208270885
C   C86       1.0  0.99084  0.36306  0.19990  1.0000 -0.0208270885
C   C87       1.0  0.61319  0.03765  0.32510  1.0000 -0.0208270885
C   C88       1.0  0.03765  0.61319  0.67490  1.0000 -0.0208270885
C   C89       1.0  0.38681  0.96235  0.67490  1.0000 -0.0208270885
C   C90       1.0  0.96235  0.38681  0.32510  1.0000 -0.0208270885
C   C91       1.0  0.45010  0.54990  0.27170  1.0000 -0.0390571106
C   C92       1.0  0.54990  0.45010  0.72830  1.0000 -0.0390571106
C   C93       1.0  0.67517  0.73683  0.85390  1.0000 -0.0914103859
C   C94       1.0  0.73683  0.67517  0.14610  1.0000 -0.0914103859
C   C95       1.0  0.32483  0.26317  0.14610  1.0000 -0.0914103859
C   C96       1.0  0.26317  0.32483  0.85390  1.0000 -0.0914103859
C   C97       1.0  0.72279  0.68821  0.78240  1.0000 0.5587566993
C   C98       1.0  0.68821  0.72279  0.21760  1.0000 0.5587566993
C   C99       1.0  0.27721  0.31179  0.21760  1.0000 0.5587566993
C   C100      1.0  0.31179  0.27721  0.78240  1.0000 0.5587566993
C   C101      1.0  0.63229  0.78611  0.93120  1.0000 0.598666755
C   C102      1.0  0.78611  0.63229  0.06880  1.0000 0.598666755
C   C103      1.0  0.36771  0.21389  0.06880  1.0000 0.598666755
C   C104      1.0  0.21389  0.36771  0.93120  1.0000 0.598666755
C   C105      1.0  0.74091  0.14481  0.67140  1.0000 0.1721502668
C   C106      1.0  0.14481  0.74091  0.32860  1.0000 0.1721502668
C   C107      1.0  0.25909  0.85519  0.32860  1.0000 0.1721502668
C   C108      1.0  0.85519  0.25909  0.67140  1.0000 0.1721502668
C   C109      1.0  0.42524  0.69196  0.74550  1.0000 -0.1304076163
C   C110      1.0  0.69196  0.42524  0.25450  1.0000 -0.1304076163
C   C111      1.0  0.57476  0.30804  0.25450  1.0000 -0.1304076163
C   C112      1.0  0.30804  0.57476  0.74550  1.0000 -0.1304076163
C   C113      1.0  0.33783  0.66217  0.64000  1.0000 -0.1304076163
C   C114      1.0  0.66217  0.33783  0.36000  1.0000 -0.1304076163
C   C115      1.0  0.51414  0.82782  0.28350  1.0000 -0.1195135518
C   C116      1.0  0.82782  0.51414  0.71650  1.0000 -0.1195135518
C   C117      1.0  0.48586  0.17218  0.71650  1.0000 -0.1195135518
C   C118      1.0  0.17218  0.48586  0.28350  1.0000 -0.1195135518
C   C119      1.0  0.45505  0.87541  0.25900  1.0000 -0.1195135518
C   C120      1.0  0.87541  0.45505  0.74100  1.0000 -0.1195135518
C   C121      1.0  0.54495  0.12459  0.74100  1.0000 -0.1195135518
C   C122      1.0  0.12459  0.54495  0.25900  1.0000 -0.1195135518
C   C123      1.0  0.60906  0.03386  0.24000  1.0000 -0.1112115822
C   C124      1.0  0.03386  0.60906  0.76000  1.0000 -0.1112115822
C   C125      1.0  0.39094  0.96614  0.76000  1.0000 -0.1112115822
C   C126      1.0  0.96614  0.39094  0.24000  1.0000 -0.1112115822
C   C127      1.0  0.62808  0.00248  0.10780  1.0000 0.5791637179
C   C128      1.0  0.00248  0.62808  0.89220  1.0000 0.5791637179
C   C129      1.0  0.37192  0.99752  0.89220  1.0000 0.5791637179
C   C130      1.0  0.99752  0.37192  0.10780  1.0000 0.5791637179
C   C131      1.0  0.57651  0.05869  0.36330  1.0000 0.5505718864
C   C132      1.0  0.05869  0.57651  0.63670  1.0000 0.5505718864
C   C133      1.0  0.42349  0.94131  0.63670  1.0000 0.5505718864
C   C134      1.0  0.94131  0.42349  0.36330  1.0000 0.5505718864
C   C135      1.0  0.72310  0.15930  0.73880  1.0000 -0.1591200032
C   C136      1.0  0.15930  0.72310  0.26120  1.0000 -0.1591200032
C   C137      1.0  0.27690  0.84070  0.26120  1.0000 -0.1591200032
C   C138      1.0  0.84070  0.27690  0.73880  1.0000 -0.1591200032
C   C139      1.0  0.80688  0.19312  0.63650  1.0000 -0.2407874488
C   C140      1.0  0.19312  0.80688  0.36350  1.0000 -0.2407874488
C   C141      1.0  0.37497  0.62503  0.78710  1.0000 -0.0208270885
C   C142      1.0  0.62503  0.37497  0.21290  1.0000 -0.0208270885
C   C143      1.0  0.50960  0.81752  0.19890  1.0000 -0.0079369727
C   C144      1.0  0.81752  0.50960  0.80110  1.0000 -0.0079369727
C   C145      1.0  0.49040  0.18248  0.80110  1.0000 -0.0079369727
C   C146      1.0  0.18248  0.49040  0.19890  1.0000 -0.0079369727
C   C147      1.0  0.44791  0.86273  0.17460  1.0000 -0.0079369727
C   C148      1.0  0.86273  0.44791  0.82540  1.0000 -0.0079369727
C   C149      1.0  0.55209  0.13727  0.82540  1.0000 -0.0079369727
C   C150      1.0  0.13727  0.55209  0.17460  1.0000 -0.0079369727
C   C151      1.0  0.77336  0.22664  0.77250  1.0000 -0.0208270885
C   C152      1.0  0.22664  0.77336  0.22750  1.0000 -0.0208270885
C   C153      1.0  0.39070  0.60930  0.87380  1.0000 0.5217561996
C   C154      1.0  0.60930  0.39070  0.12620  1.0000 0.5217561996
C   C155      1.0  0.47486  0.83358  0.14540  1.0000 -0.1195135518
C   C156      1.0  0.83358  0.47486  0.85460  1.0000 -0.1195135518
C   C157      1.0  0.52514  0.16642  0.85460  1.0000 -0.1195135518
C   C158      1.0  0.16642  0.52514  0.14540  1.0000 -0.1195135518
C   C159      1.0  0.54309  0.79131  0.16520  1.0000 0.5654468215
C   C160      1.0  0.79131  0.54309  0.83480  1.0000 0.5654468215
C   C161      1.0  0.45691  0.20869  0.83480  1.0000 0.5654468215
C   C162      1.0  0.20869  0.45691  0.16520  1.0000 0.5654468215
C   C163      1.0  0.41531  0.88449  0.11410  1.0000 0.5505718864
C   C164      1.0  0.88449  0.41531  0.88590  1.0000 0.5505718864
C   C165      1.0  0.58469  0.11551  0.88590  1.0000 0.5505718864
C   C166      1.0  0.11551  0.58469  0.11410  1.0000 0.5505718864
C   C167      1.0  0.77061  0.97279  0.09760  1.0000 0.1205105324
C   C168      1.0  0.97279  0.77061  0.90240  1.0000 0.1205105324
C   C169      1.0  0.22939  0.02721  0.90240  1.0000 0.1205105324
C   C170      1.0  0.02721  0.22939  0.09760  1.0000 0.1205105324
C   C171      1.0  0.47441  0.80519  0.91690  1.0000 0.139523066
C   C172      1.0  0.80519  0.47441  0.08310  1.0000 0.139523066
C   C173      1.0  0.52559  0.19481  0.08310  1.0000 0.139523066
C   C174      1.0  0.19481  0.52559  0.91690  1.0000 0.139523066
C   C175      1.0  0.72499  0.03541  0.89600  1.0000 0.5791637179
C   C176      1.0  0.03541  0.72499  0.10400  1.0000 0.5791637179
C   C177      1.0  0.27501  0.96459  0.10400  1.0000 0.5791637179
C   C178      1.0  0.96459  0.27501  0.89600  1.0000 0.5791637179
C   C179      1.0  0.45850  0.88110  0.89940  1.0000 0.1488601416
C   C180      1.0  0.88110  0.45850  0.10060  1.0000 0.1488601416
C   C181      1.0  0.54150  0.11890  0.10060  1.0000 0.1488601416
C   C182      1.0  0.11890  0.54150  0.89940  1.0000 0.1488601416
C   C183      1.0  0.75608  0.89152  0.17800  1.0000 0.139523066
C   C184      1.0  0.89152  0.75608  0.82200  1.0000 0.139523066
C   C185      1.0  0.24392  0.10848  0.82200  1.0000 0.139523066
C   C186      1.0  0.10848  0.24392  0.17800  1.0000 0.139523066
C   C187      1.0  0.79585  0.08671  0.85610  1.0000 -0.028769308
C   C188      1.0  0.08671  0.79585  0.14390  1.0000 -0.028769308
C   C189      1.0  0.20415  0.91329  0.14390  1.0000 -0.028769308
C   C190      1.0  0.91329  0.20415  0.85610  1.0000 -0.028769308
C   C191      1.0  0.86902  0.01598  0.20300  1.0000 0.1795714375
C   C192      1.0  0.01598  0.86902  0.79700  1.0000 0.1795714375
C   C193      1.0  0.13098  0.98402  0.79700  1.0000 0.1795714375
C   C194      1.0  0.98402  0.13098  0.20300  1.0000 0.1795714375
C   C195      1.0  0.35506  0.75902  0.85300  1.0000 0.1795714375
C   C196      1.0  0.75902  0.35506  0.14700  1.0000 0.1795714375
C   C197      1.0  0.64494  0.24098  0.14700  1.0000 0.1795714375
C   C198      1.0  0.24098  0.64494  0.85300  1.0000 0.1795714375
C   C199      1.0  0.81338  0.06922  0.78940  1.0000 -0.1304076163
C   C200      1.0  0.06922  0.81338  0.21060  1.0000 -0.1304076163
C   C201      1.0  0.18662  0.93078  0.21060  1.0000 -0.1304076163
C   C202      1.0  0.93078  0.18662  0.78940  1.0000 -0.1304076163
C   C203      1.0  0.84471  0.15529  0.88530  1.0000 -0.1304076163
C   C204      1.0  0.15529  0.84471  0.11470  1.0000 -0.1304076163
C   C205      1.0  0.88169  0.00091  0.28140  1.0000 -0.1715105348
C   C206      1.0  0.00091  0.88169  0.71860  1.0000 -0.1715105348
C   C207      1.0  0.11831  0.99909  0.71860  1.0000 -0.1715105348
C   C208      1.0  0.99909  0.11831  0.28140  1.0000 -0.1715105348
C   C209      1.0  0.92006  0.07994  0.16230  1.0000 -0.2546522343
C   C210      1.0  0.07994  0.92006  0.83770  1.0000 -0.2556287372
C   C211      1.0  0.33759  0.77841  0.78010  1.0000 -0.1591200032
C   C212      1.0  0.77841  0.33759  0.21990  1.0000 -0.1591200032
C   C213      1.0  0.66241  0.22159  0.21990  1.0000 -0.1591200032
C   C214      1.0  0.22159  0.66241  0.78010  1.0000 -0.1591200032
C   C215      1.0  0.30719  0.69281  0.89050  1.0000 -0.2289003157
C   C216      1.0  0.69281  0.30719  0.10950  1.0000 -0.2289003157
C   C217      1.0  0.87960  0.12040  0.75300  1.0000 -0.0079369727
C   C218      1.0  0.12040  0.87960  0.24700  1.0000 -0.0079369727
C   C219      1.0  0.94755  0.05245  0.32100  1.0000 -0.0390571106
C   C220      1.0  0.05245  0.94755  0.67900  1.0000 -0.0390571106
C   C221      1.0  0.27085  0.72915  0.74280  1.0000 -0.0390571106
C   C222      1.0  0.72915  0.27085  0.25720  1.0000 -0.0390571106
C   C223      1.0  0.89412  0.10588  0.67080  1.0000 0.5278172172
C   C224      1.0  0.10588  0.89412  0.32920  1.0000 0.5278172172
N   N1        1.0  0.63693  0.80341  0.44320  1.0000 -0.1891039037
N   N2        1.0  0.80341  0.63693  0.55680  1.0000 -0.1891039037
N   N3        1.0  0.36307  0.19659  0.55680  1.0000 -0.1891039037
N   N4        1.0  0.19659  0.36307  0.44320  1.0000 -0.1891039037
N   N5        1.0  0.58440  0.79102  0.48770  1.0000 -0.1806942943
N   N6        1.0  0.79102  0.58440  0.51230  1.0000 -0.1806942943
N   N7        1.0  0.41560  0.20898  0.51230  1.0000 -0.1806942943
N   N8        1.0  0.20898  0.41560  0.48770  1.0000 -0.1806942943
N   N9        1.0  0.53662  0.69806  0.41430  1.0000 -0.0208270885
N   N10       1.0  0.69806  0.53662  0.58570  1.0000 -0.0208270885
N   N11       1.0  0.46338  0.30194  0.58570  1.0000 -0.0208270885
N   N12       1.0  0.30194  0.46338  0.41430  1.0000 -0.0208270885
N   N13       1.0  0.63160  0.96998  0.58842  1.0000 -0.1891039037
N   N14       1.0  0.96998  0.63160  0.41158  1.0000 -0.1891039037
N   N15       1.0  0.36840  0.03002  0.41158  1.0000 -0.1891039037
N   N16       1.0  0.03002  0.36840  0.58842  1.0000 -0.1891039037
N   N17       1.0  0.58355  0.98123  0.58820  1.0000 -0.2035325193
N   N18       1.0  0.98123  0.58355  0.41180  1.0000 -0.2035325193
N   N19       1.0  0.41645  0.01877  0.41180  1.0000 -0.2035325193
N   N20       1.0  0.01877  0.41645  0.58820  1.0000 -0.2035325193
N   N21       1.0  0.68750  0.07610  0.63510  1.0000 -0.0208270885
N   N22       1.0  0.07610  0.68750  0.36490  1.0000 -0.0208270885
N   N23       1.0  0.31250  0.92390  0.36490  1.0000 -0.0208270885
N   N24       1.0  0.92390  0.31250  0.63510  1.0000 -0.0208270885
N   N25       1.0  0.85989  0.70071  0.87230  1.0000 -0.1806942943
N   N26       1.0  0.70071  0.85989  0.12770  1.0000 -0.1806942943
N   N27       1.0  0.14011  0.29929  0.12770  1.0000 -0.1806942943
N   N28       1.0  0.29929  0.14011  0.87230  1.0000 -0.1806942943
N   N29       1.0  0.70988  0.91196  0.07590  1.0000 -0.1806942943
N   N30       1.0  0.91196  0.70988  0.92410  1.0000 -0.1806942943
N   N31       1.0  0.29012  0.08804  0.92410  1.0000 -0.1806942943
N   N32       1.0  0.08804  0.29012  0.07590  1.0000 -0.1806942943
N   N33       1.0  0.53313  0.86581  0.94084  1.0000 -0.1891039037
N   N34       1.0  0.86581  0.53313  0.05916  1.0000 -0.1891039037
N   N35       1.0  0.46687  0.13419  0.05916  1.0000 -0.1891039037
N   N36       1.0  0.13419  0.46687  0.94084  1.0000 -0.1891039037
N   N37       1.0  0.52311  0.91483  0.93010  1.0000 -0.2224214101
N   N38       1.0  0.91483  0.52311  0.06990  1.0000 -0.2224214101
N   N39       1.0  0.47689  0.08517  0.06990  1.0000 -0.2224214101
N   N40       1.0  0.08517  0.47689  0.93010  1.0000 -0.2224214101
N   N41       1.0  0.80259  0.96331  0.16130  1.0000 -0.0208270885
N   N42       1.0  0.96331  0.80259  0.83870  1.0000 -0.0208270885
N   N43       1.0  0.19741  0.03669  0.83870  1.0000 -0.0208270885
N   N44       1.0  0.03669  0.19741  0.16130  1.0000 -0.0208270885
N   N45       1.0  0.42540  0.81162  0.88950  1.0000 -0.0208270885
N   N46       1.0  0.81162  0.42540  0.11050  1.0000 -0.0208270885
N   N47       1.0  0.57460  0.18838  0.11050  1.0000 -0.0208270885
N   N48       1.0  0.18838  0.57460  0.88950  1.0000 -0.0208270885
O   O1        1.0  0.73932  0.86596  0.57976  1.0000 -0.5469098081
O   O2        1.0  0.86596  0.73932  0.42024  1.0000 -0.5469098081
O   O3        1.0  0.26068  0.13404  0.42024  1.0000 -0.5469098081
O   O4        1.0  0.13404  0.26068  0.57976  1.0000 -0.5469098081
O   O5        1.0  0.69129  0.94693  0.46204  1.0000 -0.5711785479
O   O6        1.0  0.94693  0.69129  0.53796  1.0000 -0.5711785479
O   O7        1.0  0.30871  0.05307  0.53796  1.0000 -0.5711785479
O   O8        1.0  0.05307  0.30871  0.46204  1.0000 -0.5711785479
O   O9        1.0  0.73605  0.94755  0.34985  1.0000 -0.5387916541
O   O10       1.0  0.94755  0.73605  0.65015  1.0000 -0.5387916541
O   O11       1.0  0.26395  0.05245  0.65015  1.0000 -0.5387916541
O   O12       1.0  0.05245  0.26395  0.34985  1.0000 -0.5387916541
O   O13       1.0  0.67271  0.88625  0.63164  1.0000 -0.5469098081
O   O14       1.0  0.88625  0.67271  0.36836  1.0000 -0.5469098081
O   O15       1.0  0.32729  0.11375  0.36836  1.0000 -0.5469098081
O   O16       1.0  0.11375  0.32729  0.63164  1.0000 -0.5469098081
O   O17       1.0  0.52198  0.80814  0.62536  1.0000 -0.5469098081
O   O18       1.0  0.80814  0.52198  0.37464  1.0000 -0.5469098081
O   O19       1.0  0.47802  0.19186  0.37464  1.0000 -0.5469098081
O   O20       1.0  0.19186  0.47802  0.62536  1.0000 -0.5469098081
O   O21       1.0  0.53278  0.86314  0.45032  1.0000 -0.5711785479
O   O22       1.0  0.86314  0.53278  0.54968  1.0000 -0.5711785479
O   O23       1.0  0.46722  0.13686  0.54968  1.0000 -0.5711785479
O   O24       1.0  0.13686  0.46722  0.45032  1.0000 -0.5711785479
O   O25       1.0  0.43253  0.80969  0.60051  1.0000 -0.5469098081
O   O26       1.0  0.80969  0.43253  0.39949  1.0000 -0.5469098081
O   O27       1.0  0.56747  0.19031  0.39949  1.0000 -0.5469098081
O   O28       1.0  0.19031  0.56747  0.60051  1.0000 -0.5469098081
O   O29       1.0  0.46372  0.89064  0.43029  1.0000 -0.5387916541
O   O30       1.0  0.89064  0.46372  0.56971  1.0000 -0.5387916541
O   O31       1.0  0.53628  0.10936  0.56971  1.0000 -0.5387916541
O   O32       1.0  0.10936  0.53628  0.43029  1.0000 -0.5387916541
O   O33       1.0  0.45924  0.93094  0.68164  1.0000 -0.531932808
O   O34       1.0  0.93094  0.45924  0.31836  1.0000 -0.531932808
O   O35       1.0  0.54076  0.06906  0.31836  1.0000 -0.531932808
O   O36       1.0  0.06906  0.54076  0.68164  1.0000 -0.531932808
O   O37       1.0  0.41892  0.93502  0.55837  1.0000 -0.5469098081
O   O38       1.0  0.93502  0.41892  0.44163  1.0000 -0.5469098081
O   O39       1.0  0.58108  0.06498  0.44163  1.0000 -0.5469098081
O   O40       1.0  0.06498  0.58108  0.55837  1.0000 -0.5469098081
O   O41       1.0  0.75670  0.69678  0.72260  1.0000 -0.5711785479
O   O42       1.0  0.69678  0.75670  0.27740  1.0000 -0.5711785479
O   O43       1.0  0.24330  0.30322  0.27740  1.0000 -0.5711785479
O   O44       1.0  0.30322  0.24330  0.72260  1.0000 -0.5711785479
O   O45       1.0  0.70457  0.64479  0.84313  1.0000 -0.5619106763
O   O46       1.0  0.64479  0.70457  0.15687  1.0000 -0.5619106763
O   O47       1.0  0.29543  0.35521  0.15687  1.0000 -0.5619106763
O   O48       1.0  0.35521  0.29543  0.84313  1.0000 -0.5619106763
O   O49       1.0  0.61343  0.82269  0.92590  1.0000 -0.5469098081
O   O50       1.0  0.82269  0.61343  0.07410  1.0000 -0.5469098081
O   O51       1.0  0.38657  0.17731  0.07410  1.0000 -0.5469098081
O   O52       1.0  0.17731  0.38657  0.92590  1.0000 -0.5469098081
O   O53       1.0  0.63233  0.75479  0.99640  1.0000 -0.5387916541
O   O54       1.0  0.75479  0.63233  0.00360  1.0000 -0.5387916541
O   O55       1.0  0.36767  0.24521  0.00360  1.0000 -0.5387916541
O   O56       1.0  0.24521  0.36767  0.99640  1.0000 -0.5387916541
O   O57       1.0  0.63737  0.96575  0.07435  1.0000 -0.5792307877
O   O58       1.0  0.96575  0.63737  0.92565  1.0000 -0.5792307877
O   O59       1.0  0.36263  0.03425  0.92565  1.0000 -0.5792307877
O   O60       1.0  0.03425  0.36263  0.07435  1.0000 -0.5792307877
O   O61       1.0  0.61084  0.03592  0.06802  1.0000 -0.531932808
O   O62       1.0  0.03592  0.61084  0.93198  1.0000 -0.531932808
O   O63       1.0  0.38916  0.96408  0.93198  1.0000 -0.531932808
O   O64       1.0  0.96408  0.38916  0.06802  1.0000 -0.531932808
O   O65       1.0  0.76063  0.55875  0.78861  1.0000 -0.531932808
O   O66       1.0  0.55875  0.76063  0.21139  1.0000 -0.531932808
O   O67       1.0  0.23937  0.44125  0.21139  1.0000 -0.531932808
O   O68       1.0  0.44125  0.23937  0.78861  1.0000 -0.531932808
O   O69       1.0  0.80300  0.55732  0.91228  1.0000 -0.5901441001
O   O70       1.0  0.55732  0.80300  0.08772  1.0000 -0.5901441001
O   O71       1.0  0.19700  0.44268  0.08772  1.0000 -0.5901441001
O   O72       1.0  0.44268  0.19700  0.91228  1.0000 -0.5901441001
O   O73       1.0  0.44934  0.65566  0.90830  1.0000 -0.531932808
O   O74       1.0  0.65566  0.44934  0.09170  1.0000 -0.5387916541
O   O75       1.0  0.55066  0.34434  0.09170  1.0000 -0.5387916541
O   O76       1.0  0.34434  0.55066  0.90830  1.0000 -0.5387916541
O   O77       1.0  0.37578  0.84524  0.05630  1.0000 -0.5387916541
O   O78       1.0  0.84524  0.37578  0.94370  1.0000 -0.5387916541
O   O79       1.0  0.62422  0.15476  0.94370  1.0000 -0.5387916541
O   O80       1.0  0.15476  0.62422  0.05630  1.0000 -0.5387916541
O   O81       1.0  0.43058  0.94296  0.12813  1.0000 -0.5619106763
O   O82       1.0  0.94296  0.43058  0.87187  1.0000 -0.5619106763
O   O83       1.0  0.56942  0.05704  0.87187  1.0000 -0.5619106763
O   O84       1.0  0.05704  0.56942  0.12813  1.0000 -0.5619106763
O   O85       1.0  0.70025  0.97353  0.91629  1.0000 -0.5469098081
O   O86       1.0  0.97353  0.70025  0.08371  1.0000 -0.5469098081
O   O87       1.0  0.29975  0.02647  0.08371  1.0000 -0.5469098081
O   O88       1.0  0.02647  0.29975  0.91629  1.0000 -0.5469098081
O   O89       1.0  0.69610  0.06144  0.90791  1.0000 -0.5469098081
O   O90       1.0  0.06144  0.69610  0.09209  1.0000 -0.5469098081
O   O91       1.0  0.30390  0.93856  0.09209  1.0000 -0.5469098081
O   O92       1.0  0.93856  0.30390  0.90791  1.0000 -0.5469098081
O   O93       1.0  0.84562  0.04772  0.63910  1.0000 -0.5469098081
O   O94       1.0  0.04772  0.84562  0.36090  1.0000 -0.5469098081
O   O95       1.0  0.15438  0.95228  0.36090  1.0000 -0.5469098081
O   O96       1.0  0.95228  0.15438  0.63910  1.0000 -0.5469098081
