# DDEC6 charges by PACMAN v1.1 (https://github.com/mtap-research/PACMAN-charge/)
data_2015[Zn][zym]3[ASR]1
_chemical_formula_sum              "Zn192 H504 C1344 O720"
_cell_length_a       45.5729
_cell_length_b       45.5729
_cell_length_c       45.5729
_cell_angle_alpha    109.471
_cell_angle_beta     109.471
_cell_angle_gamma    109.471

_symmetry_space_group_name_H-M    "P 1"
_symmetry_Int_Tables_number       1

loop_
  _symmetry_equiv_pos_as_xyz
  'x, y, z'

loop_
  _atom_site_type_symbol
  _atom_site_label
  _atom_site_symmetry_multiplicity
  _atom_site_fract_x
  _atom_site_fract_y
  _atom_site_fract_z
  _atom_site_occupancy
  _atom_site_charge
Zn  Zn1       1.0  0.25489  0.09575  0.59866  1.0000 0.9597101171
Zn  Zn2       1.0  0.99709  0.65623  0.90134  1.0000 0.9597101171
Zn  Zn3       1.0  0.50291  0.40425  0.65914  1.0000 0.9597101171
Zn  Zn4       1.0  0.24511  0.84377  0.84086  1.0000 0.9597101171
Zn  Zn5       1.0  0.59866  0.25489  0.09575  1.0000 0.9597101171
Zn  Zn6       1.0  0.90134  0.99709  0.65623  1.0000 0.9597101171
Zn  Zn7       1.0  0.65914  0.50291  0.40425  1.0000 0.9597101171
Zn  Zn8       1.0  0.84086  0.24511  0.84377  1.0000 0.9597101171
Zn  Zn9       1.0  0.09575  0.59866  0.25489  1.0000 0.9597101171
Zn  Zn10      1.0  0.65623  0.90134  0.99709  1.0000 0.9597101171
Zn  Zn11      1.0  0.40425  0.65914  0.50291  1.0000 0.9597101171
Zn  Zn12      1.0  0.84377  0.84086  0.24511  1.0000 0.9597101171
Zn  Zn13      1.0  0.74511  0.90425  0.40134  1.0000 0.9597101171
Zn  Zn14      1.0  0.00291  0.34377  0.09866  1.0000 0.9597101171
Zn  Zn15      1.0  0.49709  0.59575  0.34086  1.0000 0.9597101171
Zn  Zn16      1.0  0.75489  0.15623  0.15914  1.0000 0.9597101171
Zn  Zn17      1.0  0.40134  0.74511  0.90425  1.0000 0.9597101171
Zn  Zn18      1.0  0.09866  0.00291  0.34377  1.0000 0.9597101171
Zn  Zn19      1.0  0.34086  0.49709  0.59575  1.0000 0.9597101171
Zn  Zn20      1.0  0.15914  0.75489  0.15623  1.0000 0.9597101171
Zn  Zn21      1.0  0.90425  0.40134  0.74511  1.0000 0.9597101171
Zn  Zn22      1.0  0.34377  0.09866  0.00291  1.0000 0.9597101171
Zn  Zn23      1.0  0.59575  0.34086  0.49709  1.0000 0.9597101171
Zn  Zn24      1.0  0.15623  0.15914  0.75489  1.0000 0.9597101171
Zn  Zn25      1.0  0.25490  0.15773  0.65157  1.0000 0.9494888417
Zn  Zn26      1.0  0.00616  0.60333  0.84843  1.0000 0.9494888417
Zn  Zn27      1.0  0.49384  0.34227  0.59717  1.0000 0.9494888417
Zn  Zn28      1.0  0.24510  0.89667  0.90283  1.0000 0.9494888417
Zn  Zn29      1.0  0.65157  0.25490  0.15773  1.0000 0.9494888417
Zn  Zn30      1.0  0.84843  0.00616  0.60333  1.0000 0.9494888417
Zn  Zn31      1.0  0.59717  0.49384  0.34227  1.0000 0.9494888417
Zn  Zn32      1.0  0.90283  0.24510  0.89667  1.0000 0.9494888417
Zn  Zn33      1.0  0.15773  0.65157  0.25490  1.0000 0.9494888417
Zn  Zn34      1.0  0.60333  0.84843  0.00616  1.0000 0.9494888417
Zn  Zn35      1.0  0.34227  0.59717  0.49384  1.0000 0.9494888417
Zn  Zn36      1.0  0.89667  0.90283  0.24510  1.0000 0.9494888417
Zn  Zn37      1.0  0.74510  0.84227  0.34843  1.0000 0.9494888417
Zn  Zn38      1.0  0.99384  0.39667  0.15157  1.0000 0.9494888417
Zn  Zn39      1.0  0.50616  0.65773  0.40283  1.0000 0.9494888417
Zn  Zn40      1.0  0.75490  0.10333  0.09717  1.0000 0.9494888417
Zn  Zn41      1.0  0.34843  0.74510  0.84227  1.0000 0.9494888417
Zn  Zn42      1.0  0.15157  0.99384  0.39667  1.0000 0.9494888417
Zn  Zn43      1.0  0.40283  0.50616  0.65773  1.0000 0.9494888417
Zn  Zn44      1.0  0.09717  0.75490  0.10333  1.0000 0.9494888417
Zn  Zn45      1.0  0.84227  0.34843  0.74510  1.0000 0.9494888417
Zn  Zn46      1.0  0.39667  0.15157  0.99384  1.0000 0.9494888417
Zn  Zn47      1.0  0.65773  0.40283  0.50616  1.0000 0.9494888417
Zn  Zn48      1.0  0.10333  0.09717  0.75490  1.0000 0.9494888417
Zn  Zn49      1.0  0.30734  0.12843  0.67689  1.0000 0.9494888417
Zn  Zn50      1.0  0.95154  0.63045  0.82311  1.0000 0.9494888417
Zn  Zn51      1.0  0.54846  0.37157  0.67891  1.0000 0.9494888417
Zn  Zn52      1.0  0.19266  0.86955  0.82109  1.0000 0.9494888417
Zn  Zn53      1.0  0.67689  0.30734  0.12843  1.0000 0.9494888417
Zn  Zn54      1.0  0.82311  0.95154  0.63045  1.0000 0.9494888417
Zn  Zn55      1.0  0.67891  0.54846  0.37157  1.0000 0.9494888417
Zn  Zn56      1.0  0.82109  0.19266  0.86955  1.0000 0.9494888417
Zn  Zn57      1.0  0.12843  0.67689  0.30734  1.0000 0.9494888417
Zn  Zn58      1.0  0.63045  0.82311  0.95154  1.0000 0.9494888417
Zn  Zn59      1.0  0.37157  0.67891  0.54846  1.0000 0.9494888417
Zn  Zn60      1.0  0.86955  0.82109  0.19266  1.0000 0.9494888417
Zn  Zn61      1.0  0.69266  0.87157  0.32311  1.0000 0.9494888417
Zn  Zn62      1.0  0.04846  0.36955  0.17689  1.0000 0.9494888417
Zn  Zn63      1.0  0.45154  0.62843  0.32109  1.0000 0.9494888417
Zn  Zn64      1.0  0.80734  0.13045  0.17891  1.0000 0.9494888417
Zn  Zn65      1.0  0.32311  0.69266  0.87157  1.0000 0.9494888417
Zn  Zn66      1.0  0.17689  0.04846  0.36955  1.0000 0.9494888417
Zn  Zn67      1.0  0.32109  0.45154  0.62843  1.0000 0.9494888417
Zn  Zn68      1.0  0.17891  0.80734  0.13045  1.0000 0.9494888417
Zn  Zn69      1.0  0.87157  0.32311  0.69266  1.0000 0.9494888417
Zn  Zn70      1.0  0.36955  0.17689  0.04846  1.0000 0.9494888417
Zn  Zn71      1.0  0.62843  0.32109  0.45154  1.0000 0.9494888417
Zn  Zn72      1.0  0.13045  0.17891  0.80734  1.0000 0.9494888417
Zn  Zn73      1.0  0.32395  0.17938  0.64417  1.0000 0.9597101171
Zn  Zn74      1.0  0.03521  0.67978  0.85583  1.0000 0.9597101171
Zn  Zn75      1.0  0.46479  0.32062  0.64457  1.0000 0.9597101171
Zn  Zn76      1.0  0.17605  0.82022  0.85543  1.0000 0.9597101171
Zn  Zn77      1.0  0.64417  0.32395  0.17938  1.0000 0.9597101171
Zn  Zn78      1.0  0.85583  0.03521  0.67978  1.0000 0.9597101171
Zn  Zn79      1.0  0.64457  0.46479  0.32062  1.0000 0.9597101171
Zn  Zn80      1.0  0.85543  0.17605  0.82022  1.0000 0.9597101171
Zn  Zn81      1.0  0.17938  0.64417  0.32395  1.0000 0.9597101171
Zn  Zn82      1.0  0.67978  0.85583  0.03521  1.0000 0.9597101171
Zn  Zn83      1.0  0.32062  0.64457  0.46479  1.0000 0.9597101171
Zn  Zn84      1.0  0.82022  0.85543  0.17605  1.0000 0.9597101171
Zn  Zn85      1.0  0.67605  0.82062  0.35583  1.0000 0.9597101171
Zn  Zn86      1.0  0.96479  0.32022  0.14417  1.0000 0.9597101171
Zn  Zn87      1.0  0.53521  0.67938  0.35543  1.0000 0.9597101171
Zn  Zn88      1.0  0.82395  0.17978  0.14457  1.0000 0.9597101171
Zn  Zn89      1.0  0.35583  0.67605  0.82062  1.0000 0.9597101171
Zn  Zn90      1.0  0.14417  0.96479  0.32022  1.0000 0.9597101171
Zn  Zn91      1.0  0.35543  0.53521  0.67938  1.0000 0.9597101171
Zn  Zn92      1.0  0.14457  0.82395  0.17978  1.0000 0.9597101171
Zn  Zn93      1.0  0.82062  0.35583  0.67605  1.0000 0.9597101171
Zn  Zn94      1.0  0.32022  0.14417  0.96479  1.0000 0.9597101171
Zn  Zn95      1.0  0.67938  0.35543  0.53521  1.0000 0.9597101171
Zn  Zn96      1.0  0.17978  0.14457  0.82395  1.0000 0.9597101171
Zn  Zn97      1.0  0.14168  0.88717  0.49175  1.0000 0.9938749719
Zn  Zn98      1.0  0.89542  0.64993  0.00825  1.0000 0.9938749719
Zn  Zn99      1.0  0.60458  0.61283  0.75451  1.0000 0.9938749719
Zn  Zn100     1.0  0.35832  0.85007  0.74549  1.0000 0.9958282891
Zn  Zn101     1.0  0.49175  0.14168  0.88717  1.0000 0.9938749719
Zn  Zn102     1.0  0.00825  0.89542  0.64993  1.0000 0.9958282891
Zn  Zn103     1.0  0.75451  0.60458  0.61283  1.0000 0.9938749719
Zn  Zn104     1.0  0.74549  0.35832  0.85007  1.0000 0.9938749719
Zn  Zn105     1.0  0.88717  0.49175  0.14168  1.0000 0.9938749719
Zn  Zn106     1.0  0.64993  0.00825  0.89542  1.0000 0.9938749719
Zn  Zn107     1.0  0.61283  0.75451  0.60458  1.0000 0.9938749719
Zn  Zn108     1.0  0.85007  0.74549  0.35832  1.0000 0.9938749719
Zn  Zn109     1.0  0.85832  0.11283  0.50825  1.0000 0.9938749719
Zn  Zn110     1.0  0.10458  0.35007  0.99175  1.0000 0.9938749719
Zn  Zn111     1.0  0.39542  0.38717  0.24549  1.0000 0.9938749719
Zn  Zn112     1.0  0.64168  0.14993  0.25451  1.0000 0.9958282891
Zn  Zn113     1.0  0.50825  0.85832  0.11283  1.0000 0.9958282891
Zn  Zn114     1.0  0.99175  0.10458  0.35007  1.0000 0.9938749719
Zn  Zn115     1.0  0.24549  0.39542  0.38717  1.0000 0.9938749719
Zn  Zn116     1.0  0.25451  0.64168  0.14993  1.0000 0.9958282891
Zn  Zn117     1.0  0.11283  0.50825  0.85832  1.0000 0.9938749719
Zn  Zn118     1.0  0.35007  0.99175  0.10458  1.0000 0.9938749719
Zn  Zn119     1.0  0.38717  0.24549  0.39542  1.0000 0.9938749719
Zn  Zn120     1.0  0.14993  0.25451  0.64168  1.0000 0.9958282891
Zn  Zn121     1.0  0.09311  0.82159  0.49600  1.0000 0.9658802532
Zn  Zn122     1.0  0.82559  0.59711  0.00400  1.0000 0.9658802532
Zn  Zn123     1.0  0.67441  0.67841  0.77152  1.0000 0.9658802532
Zn  Zn124     1.0  0.40689  0.90289  0.72848  1.0000 0.9658802532
Zn  Zn125     1.0  0.49600  0.09311  0.82159  1.0000 0.9658802532
Zn  Zn126     1.0  0.00400  0.82559  0.59711  1.0000 0.9658802532
Zn  Zn127     1.0  0.77152  0.67441  0.67841  1.0000 0.9658802532
Zn  Zn128     1.0  0.72848  0.40689  0.90289  1.0000 0.9597101171
Zn  Zn129     1.0  0.82159  0.49600  0.09311  1.0000 0.9658802532
Zn  Zn130     1.0  0.59711  0.00400  0.82559  1.0000 0.9658802532
Zn  Zn131     1.0  0.67841  0.77152  0.67441  1.0000 0.9597101171
Zn  Zn132     1.0  0.90289  0.72848  0.40689  1.0000 0.9658802532
Zn  Zn133     1.0  0.90689  0.17841  0.50400  1.0000 0.9658802532
Zn  Zn134     1.0  0.17441  0.40289  0.99600  1.0000 0.9658802532
Zn  Zn135     1.0  0.32559  0.32159  0.22848  1.0000 0.9658802532
Zn  Zn136     1.0  0.59311  0.09711  0.27152  1.0000 0.9658802532
Zn  Zn137     1.0  0.50400  0.90689  0.17841  1.0000 0.9658802532
Zn  Zn138     1.0  0.99600  0.17441  0.40289  1.0000 0.9658802532
Zn  Zn139     1.0  0.22848  0.32559  0.32159  1.0000 0.9658802532
Zn  Zn140     1.0  0.27152  0.59311  0.09711  1.0000 0.9658802532
Zn  Zn141     1.0  0.17841  0.50400  0.90689  1.0000 0.9658802532
Zn  Zn142     1.0  0.40289  0.99600  0.17441  1.0000 0.9658802532
Zn  Zn143     1.0  0.32159  0.22848  0.32559  1.0000 0.9597101171
Zn  Zn144     1.0  0.09711  0.27152  0.59311  1.0000 0.9658802532
Zn  Zn145     1.0  0.17499  0.84425  0.52636  1.0000 0.9494888417
Zn  Zn146     1.0  0.81789  0.64863  0.97364  1.0000 0.9494888417
Zn  Zn147     1.0  0.68211  0.65575  0.83074  1.0000 0.9494888417
Zn  Zn148     1.0  0.32501  0.85137  0.66926  1.0000 0.9494888417
Zn  Zn149     1.0  0.52636  0.17499  0.84425  1.0000 0.9494888417
Zn  Zn150     1.0  0.97364  0.81789  0.64863  1.0000 0.9494888417
Zn  Zn151     1.0  0.83074  0.68211  0.65575  1.0000 0.9494888417
Zn  Zn152     1.0  0.66926  0.32501  0.85137  1.0000 0.9494888417
Zn  Zn153     1.0  0.84425  0.52636  0.17499  1.0000 0.9494888417
Zn  Zn154     1.0  0.64863  0.97364  0.81789  1.0000 0.9494888417
Zn  Zn155     1.0  0.65575  0.83074  0.68211  1.0000 0.9494888417
Zn  Zn156     1.0  0.85137  0.66926  0.32501  1.0000 0.9494888417
Zn  Zn157     1.0  0.82501  0.15575  0.47364  1.0000 0.9494888417
Zn  Zn158     1.0  0.18211  0.35137  0.02636  1.0000 0.9494888417
Zn  Zn159     1.0  0.31789  0.34425  0.16926  1.0000 0.9494888417
Zn  Zn160     1.0  0.67499  0.14863  0.33074  1.0000 0.9494888417
Zn  Zn161     1.0  0.47364  0.82501  0.15575  1.0000 0.9494888417
Zn  Zn162     1.0  0.02636  0.18211  0.35137  1.0000 0.9494888417
Zn  Zn163     1.0  0.16926  0.31789  0.34425  1.0000 0.9494888417
Zn  Zn164     1.0  0.33074  0.67499  0.14863  1.0000 0.9494888417
Zn  Zn165     1.0  0.15575  0.47364  0.82501  1.0000 0.9494888417
Zn  Zn166     1.0  0.35137  0.02636  0.18211  1.0000 0.9494888417
Zn  Zn167     1.0  0.34425  0.16926  0.31789  1.0000 0.9494888417
Zn  Zn168     1.0  0.14863  0.33074  0.67499  1.0000 0.9494888417
Zn  Zn169     1.0  0.12342  0.80792  0.44398  1.0000 0.9373469932
Zn  Zn170     1.0  0.86394  0.67944  0.05602  1.0000 0.9373469932
Zn  Zn171     1.0  0.63606  0.69208  0.81550  1.0000 0.9373469932
Zn  Zn172     1.0  0.37658  0.82056  0.68450  1.0000 0.9373469932
Zn  Zn173     1.0  0.44398  0.12342  0.80792  1.0000 0.9373469932
Zn  Zn174     1.0  0.05602  0.86394  0.67944  1.0000 0.9373469932
Zn  Zn175     1.0  0.81550  0.63606  0.69208  1.0000 0.9373469932
Zn  Zn176     1.0  0.68450  0.37658  0.82056  1.0000 0.9373469932
Zn  Zn177     1.0  0.80792  0.44398  0.12342  1.0000 0.9373469932
Zn  Zn178     1.0  0.67944  0.05602  0.86394  1.0000 0.9373469932
Zn  Zn179     1.0  0.69208  0.81550  0.63606  1.0000 0.9373469932
Zn  Zn180     1.0  0.82056  0.68450  0.37658  1.0000 0.9373469932
Zn  Zn181     1.0  0.87658  0.19208  0.55602  1.0000 0.9373469932
Zn  Zn182     1.0  0.13606  0.32056  0.94398  1.0000 0.9373469932
Zn  Zn183     1.0  0.36394  0.30792  0.18450  1.0000 0.9373469932
Zn  Zn184     1.0  0.62342  0.17944  0.31550  1.0000 0.9373469932
Zn  Zn185     1.0  0.55602  0.87658  0.19208  1.0000 0.9373469932
Zn  Zn186     1.0  0.94398  0.13606  0.32056  1.0000 0.9373469932
Zn  Zn187     1.0  0.18450  0.36394  0.30792  1.0000 0.9373469932
Zn  Zn188     1.0  0.31550  0.62342  0.17944  1.0000 0.9373469932
Zn  Zn189     1.0  0.19208  0.55602  0.87658  1.0000 0.9373469932
Zn  Zn190     1.0  0.32056  0.94398  0.13606  1.0000 0.9373469932
Zn  Zn191     1.0  0.30792  0.18450  0.36394  1.0000 0.9373469932
Zn  Zn192     1.0  0.17944  0.31550  0.62342  1.0000 0.9373469932
H   H1        1.0  0.18350  0.11600  0.68090  1.0000 0.1401111571
H   H2        1.0  0.93510  0.50260  0.81910  1.0000 0.1401111571
H   H3        1.0  0.56490  0.38400  0.56750  1.0000 0.1401111571
H   H4        1.0  0.31650  0.99740  0.93250  1.0000 0.1401111571
H   H5        1.0  0.68090  0.18350  0.11600  1.0000 0.1401111571
H   H6        1.0  0.81910  0.93510  0.50260  1.0000 0.1401111571
H   H7        1.0  0.56750  0.56490  0.38400  1.0000 0.1401111571
H   H8        1.0  0.93250  0.31650  0.99740  1.0000 0.1401111571
H   H9        1.0  0.11600  0.68090  0.18350  1.0000 0.1401111571
H   H10       1.0  0.50260  0.81910  0.93510  1.0000 0.1401111571
H   H11       1.0  0.38400  0.56750  0.56490  1.0000 0.1401111571
H   H12       1.0  0.99740  0.93250  0.31650  1.0000 0.1401111571
H   H13       1.0  0.81650  0.88400  0.31910  1.0000 0.1401111571
H   H14       1.0  0.06490  0.49740  0.18090  1.0000 0.1401111571
H   H15       1.0  0.43510  0.61600  0.43250  1.0000 0.1401111571
H   H16       1.0  0.68350  0.00260  0.06750  1.0000 0.1401111571
H   H17       1.0  0.31910  0.81650  0.88400  1.0000 0.1401111571
H   H18       1.0  0.18090  0.06490  0.49740  1.0000 0.1401111571
H   H19       1.0  0.43250  0.43510  0.61600  1.0000 0.1401111571
H   H20       1.0  0.06750  0.68350  0.00260  1.0000 0.1401111571
H   H21       1.0  0.88400  0.31910  0.81650  1.0000 0.1401111571
H   H22       1.0  0.49740  0.18090  0.06490  1.0000 0.1401111571
H   H23       1.0  0.61600  0.43250  0.43510  1.0000 0.1401111571
H   H24       1.0  0.00260  0.06750  0.68350  1.0000 0.1401111571
H   H25       1.0  0.11520  0.02160  0.66560  1.0000 0.1227404102
H   H26       1.0  0.85600  0.44960  0.83440  1.0000 0.1227404102
H   H27       1.0  0.64400  0.47840  0.59360  1.0000 0.1227404102
H   H28       1.0  0.38480  0.05040  0.90640  1.0000 0.1227404102
H   H29       1.0  0.66560  0.11520  0.02160  1.0000 0.1284668104
H   H30       1.0  0.83440  0.85600  0.44960  1.0000 0.1227404102
H   H31       1.0  0.59360  0.64400  0.47840  1.0000 0.1227404102
H   H32       1.0  0.90640  0.38480  0.05040  1.0000 0.1227404102
H   H33       1.0  0.02160  0.66560  0.11520  1.0000 0.1227404102
H   H34       1.0  0.44960  0.83440  0.85600  1.0000 0.1227404102
H   H35       1.0  0.47840  0.59360  0.64400  1.0000 0.1227404102
H   H36       1.0  0.05040  0.90640  0.38480  1.0000 0.1227404102
H   H37       1.0  0.88480  0.97840  0.33440  1.0000 0.1227404102
H   H38       1.0  0.14400  0.55040  0.16560  1.0000 0.1227404102
H   H39       1.0  0.35600  0.52160  0.40640  1.0000 0.1227404102
H   H40       1.0  0.61520  0.94960  0.09360  1.0000 0.1284668104
H   H41       1.0  0.33440  0.88480  0.97840  1.0000 0.1227404102
H   H42       1.0  0.16560  0.14400  0.55040  1.0000 0.1227404102
H   H43       1.0  0.40640  0.35600  0.52160  1.0000 0.1227404102
H   H44       1.0  0.09360  0.61520  0.94960  1.0000 0.1227404102
H   H45       1.0  0.97840  0.33440  0.88480  1.0000 0.1227404102
H   H46       1.0  0.55040  0.16560  0.14400  1.0000 0.1227404102
H   H47       1.0  0.52160  0.40640  0.35600  1.0000 0.1284668104
H   H48       1.0  0.94960  0.09360  0.61520  1.0000 0.1227404102
H   H49       1.0  0.17010  0.02250  0.61220  1.0000 0.1284668104
H   H50       1.0  0.91030  0.55790  0.88780  1.0000 0.1284668104
H   H51       1.0  0.58970  0.47750  0.64760  1.0000 0.1284668104
H   H52       1.0  0.32990  0.94210  0.85240  1.0000 0.1284668104
H   H53       1.0  0.61220  0.17010  0.02250  1.0000 0.1284668104
H   H54       1.0  0.88780  0.91030  0.55790  1.0000 0.1284668104
H   H55       1.0  0.64760  0.58970  0.47750  1.0000 0.1284668104
H   H56       1.0  0.85240  0.32990  0.94210  1.0000 0.1284668104
H   H57       1.0  0.02250  0.61220  0.17010  1.0000 0.1284668104
H   H58       1.0  0.55790  0.88780  0.91030  1.0000 0.1284668104
H   H59       1.0  0.47750  0.64760  0.58970  1.0000 0.1284668104
H   H60       1.0  0.94210  0.85240  0.32990  1.0000 0.1284668104
H   H61       1.0  0.82990  0.97750  0.38780  1.0000 0.1284668104
H   H62       1.0  0.08970  0.44210  0.11220  1.0000 0.1284668104
H   H63       1.0  0.41030  0.52250  0.35240  1.0000 0.1284668104
H   H64       1.0  0.67010  0.05790  0.14760  1.0000 0.1284668104
H   H65       1.0  0.38780  0.82990  0.97750  1.0000 0.1284668104
H   H66       1.0  0.11220  0.08970  0.44210  1.0000 0.1284668104
H   H67       1.0  0.35240  0.41030  0.52250  1.0000 0.1284668104
H   H68       1.0  0.14760  0.67010  0.05790  1.0000 0.1284668104
H   H69       1.0  0.97750  0.38780  0.82990  1.0000 0.1284668104
H   H70       1.0  0.44210  0.11220  0.08970  1.0000 0.1284668104
H   H71       1.0  0.52250  0.35240  0.41030  1.0000 0.1284668104
H   H72       1.0  0.05790  0.14760  0.67010  1.0000 0.1284668104
H   H73       1.0  0.09150  0.96820  0.64090  1.0000 0.1284668104
H   H74       1.0  0.82730  0.45060  0.85910  1.0000 0.1284668104
H   H75       1.0  0.67270  0.53180  0.62330  1.0000 0.1284668104
H   H76       1.0  0.40850  0.04940  0.87670  1.0000 0.1284668104
H   H77       1.0  0.64090  0.09150  0.96820  1.0000 0.1284668104
H   H78       1.0  0.85910  0.82730  0.45060  1.0000 0.1284668104
H   H79       1.0  0.62330  0.67270  0.53180  1.0000 0.1284668104
H   H80       1.0  0.87670  0.40850  0.04940  1.0000 0.1284668104
H   H81       1.0  0.96820  0.64090  0.09150  1.0000 0.1284668104
H   H82       1.0  0.45060  0.85910  0.82730  1.0000 0.1284668104
H   H83       1.0  0.53180  0.62330  0.67270  1.0000 0.1284668104
H   H84       1.0  0.04940  0.87670  0.40850  1.0000 0.1284668104
H   H85       1.0  0.90850  0.03180  0.35910  1.0000 0.1284668104
H   H86       1.0  0.17270  0.54940  0.14090  1.0000 0.1284668104
H   H87       1.0  0.32730  0.46820  0.37670  1.0000 0.1284668104
H   H88       1.0  0.59150  0.95060  0.12330  1.0000 0.1284668104
H   H89       1.0  0.35910  0.90850  0.03180  1.0000 0.1284668104
H   H90       1.0  0.14090  0.17270  0.54940  1.0000 0.1284668104
H   H91       1.0  0.37670  0.32730  0.46820  1.0000 0.1284668104
H   H92       1.0  0.12330  0.59150  0.95060  1.0000 0.1284668104
H   H93       1.0  0.03180  0.35910  0.90850  1.0000 0.1284668104
H   H94       1.0  0.54940  0.14090  0.17270  1.0000 0.1284668104
H   H95       1.0  0.46820  0.37670  0.32730  1.0000 0.1284668104
H   H96       1.0  0.95060  0.12330  0.59150  1.0000 0.1284668104
H   H97       1.0  0.14230  0.96770  0.58360  1.0000 0.1284668104
H   H98       1.0  0.88410  0.55870  0.91640  1.0000 0.1284668104
H   H99       1.0  0.61590  0.53230  0.67460  1.0000 0.1284668104
H   H100      1.0  0.35770  0.94130  0.82540  1.0000 0.1284668104
H   H101      1.0  0.58360  0.14230  0.96770  1.0000 0.1284668104
H   H102      1.0  0.91640  0.88410  0.55870  1.0000 0.1284668104
H   H103      1.0  0.67460  0.61590  0.53230  1.0000 0.1284668104
H   H104      1.0  0.82540  0.35770  0.94130  1.0000 0.1284668104
H   H105      1.0  0.96770  0.58360  0.14230  1.0000 0.1284668104
H   H106      1.0  0.55870  0.91640  0.88410  1.0000 0.1284668104
H   H107      1.0  0.53230  0.67460  0.61590  1.0000 0.1284668104
H   H108      1.0  0.94130  0.82540  0.35770  1.0000 0.1284668104
H   H109      1.0  0.85770  0.03230  0.41640  1.0000 0.1284668104
H   H110      1.0  0.11590  0.44130  0.08360  1.0000 0.1284668104
H   H111      1.0  0.38410  0.46770  0.32540  1.0000 0.1284668104
H   H112      1.0  0.64230  0.05870  0.17460  1.0000 0.1284668104
H   H113      1.0  0.41640  0.85770  0.03230  1.0000 0.1284668104
H   H114      1.0  0.08360  0.11590  0.44130  1.0000 0.1284668104
H   H115      1.0  0.32540  0.38410  0.46770  1.0000 0.1284668104
H   H116      1.0  0.17460  0.64230  0.05870  1.0000 0.1284668104
H   H117      1.0  0.03230  0.41640  0.85770  1.0000 0.1284668104
H   H118      1.0  0.44130  0.08360  0.11590  1.0000 0.1284668104
H   H119      1.0  0.46770  0.32540  0.38410  1.0000 0.1284668104
H   H120      1.0  0.05870  0.17460  0.64230  1.0000 0.1284668104
H   H121      1.0  0.07660  0.87500  0.57180  1.0000 0.1401111571
H   H122      1.0  0.80320  0.50480  0.92820  1.0000 0.1401111571
H   H123      1.0  0.69680  0.62500  0.70160  1.0000 0.1401111571
H   H124      1.0  0.42340  0.99520  0.79840  1.0000 0.1401111571
H   H125      1.0  0.57180  0.07660  0.87500  1.0000 0.1401111571
H   H126      1.0  0.92820  0.80320  0.50480  1.0000 0.1401111571
H   H127      1.0  0.70160  0.69680  0.62500  1.0000 0.1401111571
H   H128      1.0  0.79840  0.42340  0.99520  1.0000 0.1401111571
H   H129      1.0  0.87500  0.57180  0.07660  1.0000 0.1401111571
H   H130      1.0  0.50480  0.92820  0.80320  1.0000 0.1401111571
H   H131      1.0  0.62500  0.70160  0.69680  1.0000 0.1401111571
H   H132      1.0  0.99520  0.79840  0.42340  1.0000 0.1401111571
H   H133      1.0  0.92340  0.12500  0.42820  1.0000 0.1401111571
H   H134      1.0  0.19680  0.49520  0.07180  1.0000 0.1401111571
H   H135      1.0  0.30320  0.37500  0.29840  1.0000 0.1401111571
H   H136      1.0  0.57660  0.00480  0.20160  1.0000 0.1401111571
H   H137      1.0  0.42820  0.92340  0.12500  1.0000 0.1401111571
H   H138      1.0  0.07180  0.19680  0.49520  1.0000 0.1401111571
H   H139      1.0  0.29840  0.30320  0.37500  1.0000 0.1401111571
H   H140      1.0  0.20160  0.57660  0.00480  1.0000 0.1401111571
H   H141      1.0  0.12500  0.42820  0.92340  1.0000 0.1401111571
H   H142      1.0  0.49520  0.07180  0.19680  1.0000 0.1401111571
H   H143      1.0  0.37500  0.29840  0.30320  1.0000 0.1401111571
H   H144      1.0  0.00480  0.20160  0.57660  1.0000 0.1401111571
H   H145      1.0  0.23260  0.98660  0.56880  1.0000 0.1401111571
H   H146      1.0  0.91780  0.66380  0.93120  1.0000 0.1401111571
H   H147      1.0  0.58220  0.51340  0.74600  1.0000 0.1401111571
H   H148      1.0  0.26740  0.83620  0.75400  1.0000 0.1401111571
H   H149      1.0  0.56880  0.23260  0.98660  1.0000 0.1401111571
H   H150      1.0  0.93120  0.91780  0.66380  1.0000 0.1401111571
H   H151      1.0  0.74600  0.58220  0.51340  1.0000 0.1401111571
H   H152      1.0  0.75400  0.26740  0.83620  1.0000 0.1401111571
H   H153      1.0  0.98660  0.56880  0.23260  1.0000 0.1401111571
H   H154      1.0  0.66380  0.93120  0.91780  1.0000 0.1401111571
H   H155      1.0  0.51340  0.74600  0.58220  1.0000 0.1401111571
H   H156      1.0  0.83620  0.75400  0.26740  1.0000 0.1401111571
H   H157      1.0  0.76740  0.01340  0.43120  1.0000 0.1401111571
H   H158      1.0  0.08220  0.33620  0.06880  1.0000 0.1401111571
H   H159      1.0  0.41780  0.48660  0.25400  1.0000 0.1401111571
H   H160      1.0  0.73260  0.16380  0.24600  1.0000 0.1401111571
H   H161      1.0  0.43120  0.76740  0.01340  1.0000 0.1401111571
H   H162      1.0  0.06880  0.08220  0.33620  1.0000 0.1401111571
H   H163      1.0  0.25400  0.41780  0.48660  1.0000 0.1401111571
H   H164      1.0  0.24600  0.73260  0.16380  1.0000 0.1401111571
H   H165      1.0  0.01340  0.43120  0.76740  1.0000 0.1401111571
H   H166      1.0  0.33620  0.06880  0.08220  1.0000 0.1401111571
H   H167      1.0  0.48660  0.25400  0.41780  1.0000 0.1401111571
H   H168      1.0  0.16380  0.24600  0.73260  1.0000 0.1401111571
H   H169      1.0  0.27770  0.93390  0.60540  1.0000 0.1227404102
H   H170      1.0  0.82850  0.67230  0.89460  1.0000 0.1227404102
H   H171      1.0  0.67150  0.56610  0.84380  1.0000 0.1227404102
H   H172      1.0  0.22230  0.82770  0.65620  1.0000 0.1227404102
H   H173      1.0  0.60540  0.27770  0.93390  1.0000 0.1227404102
H   H174      1.0  0.89460  0.82850  0.67230  1.0000 0.1227404102
H   H175      1.0  0.84380  0.67150  0.56610  1.0000 0.1227404102
H   H176      1.0  0.65620  0.22230  0.82770  1.0000 0.1227404102
H   H177      1.0  0.93390  0.60540  0.27770  1.0000 0.1227404102
H   H178      1.0  0.67230  0.89460  0.82850  1.0000 0.1227404102
H   H179      1.0  0.56610  0.84380  0.67150  1.0000 0.1227404102
H   H180      1.0  0.82770  0.65620  0.22230  1.0000 0.1227404102
H   H181      1.0  0.72230  0.06610  0.39460  1.0000 0.1227404102
H   H182      1.0  0.17150  0.32770  0.10540  1.0000 0.1227404102
H   H183      1.0  0.32850  0.43390  0.15620  1.0000 0.1227404102
H   H184      1.0  0.77770  0.17230  0.34380  1.0000 0.1227404102
H   H185      1.0  0.39460  0.72230  0.06610  1.0000 0.1227404102
H   H186      1.0  0.10540  0.17150  0.32770  1.0000 0.1227404102
H   H187      1.0  0.15620  0.32850  0.43390  1.0000 0.1227404102
H   H188      1.0  0.34380  0.77770  0.17230  1.0000 0.1227404102
H   H189      1.0  0.06610  0.39460  0.72230  1.0000 0.1227404102
H   H190      1.0  0.32770  0.10540  0.17150  1.0000 0.1227404102
H   H191      1.0  0.43390  0.15620  0.32850  1.0000 0.1227404102
H   H192      1.0  0.17230  0.34380  0.77770  1.0000 0.1227404102
H   H193      1.0  0.32760  0.04200  0.66200  1.0000 0.1227404102
H   H194      1.0  0.88000  0.66560  0.83800  1.0000 0.1227404102
H   H195      1.0  0.62000  0.45800  0.78560  1.0000 0.1227404102
H   H196      1.0  0.17240  0.83440  0.71440  1.0000 0.1227404102
H   H197      1.0  0.66200  0.32760  0.04200  1.0000 0.1227404102
H   H198      1.0  0.83800  0.88000  0.66560  1.0000 0.1227404102
H   H199      1.0  0.78560  0.62000  0.45800  1.0000 0.1227404102
H   H200      1.0  0.71440  0.17240  0.83440  1.0000 0.1227404102
H   H201      1.0  0.04200  0.66200  0.32760  1.0000 0.1227404102
H   H202      1.0  0.66560  0.83800  0.88000  1.0000 0.1227404102
H   H203      1.0  0.45800  0.78560  0.62000  1.0000 0.1227404102
H   H204      1.0  0.83440  0.71440  0.17240  1.0000 0.1227404102
H   H205      1.0  0.67240  0.95800  0.33800  1.0000 0.1227404102
H   H206      1.0  0.12000  0.33440  0.16200  1.0000 0.1227404102
H   H207      1.0  0.38000  0.54200  0.21440  1.0000 0.1227404102
H   H208      1.0  0.82760  0.16560  0.28560  1.0000 0.1227404102
H   H209      1.0  0.33800  0.67240  0.95800  1.0000 0.1227404102
H   H210      1.0  0.16200  0.12000  0.33440  1.0000 0.1227404102
H   H211      1.0  0.21440  0.38000  0.54200  1.0000 0.1227404102
H   H212      1.0  0.28560  0.82760  0.16560  1.0000 0.1227404102
H   H213      1.0  0.95800  0.33800  0.67240  1.0000 0.1227404102
H   H214      1.0  0.33440  0.16200  0.12000  1.0000 0.1227404102
H   H215      1.0  0.54200  0.21440  0.38000  1.0000 0.1227404102
H   H216      1.0  0.16560  0.28560  0.82760  1.0000 0.1227404102
H   H217      1.0  0.31810  0.93440  0.64070  1.0000 0.1227404102
H   H218      1.0  0.79370  0.67740  0.85930  1.0000 0.1227404102
H   H219      1.0  0.70630  0.56560  0.88370  1.0000 0.1227404102
H   H220      1.0  0.18190  0.82260  0.61630  1.0000 0.1227404102
H   H221      1.0  0.64070  0.31810  0.93440  1.0000 0.1227404102
H   H222      1.0  0.85930  0.79370  0.67740  1.0000 0.1227404102
H   H223      1.0  0.88370  0.70630  0.56560  1.0000 0.1227404102
H   H224      1.0  0.61630  0.18190  0.82260  1.0000 0.1227404102
H   H225      1.0  0.93440  0.64070  0.31810  1.0000 0.1227404102
H   H226      1.0  0.67740  0.85930  0.79370  1.0000 0.1227404102
H   H227      1.0  0.56560  0.88370  0.70630  1.0000 0.1227404102
H   H228      1.0  0.82260  0.61630  0.18190  1.0000 0.1227404102
H   H229      1.0  0.68190  0.06560  0.35930  1.0000 0.1227404102
H   H230      1.0  0.20630  0.32260  0.14070  1.0000 0.1227404102
H   H231      1.0  0.29370  0.43440  0.11630  1.0000 0.1227404102
H   H232      1.0  0.81810  0.17740  0.38370  1.0000 0.1227404102
H   H233      1.0  0.35930  0.68190  0.06560  1.0000 0.1227404102
H   H234      1.0  0.14070  0.20630  0.32260  1.0000 0.1227404102
H   H235      1.0  0.11630  0.29370  0.43440  1.0000 0.1227404102
H   H236      1.0  0.38370  0.81810  0.17740  1.0000 0.1227404102
H   H237      1.0  0.06560  0.35930  0.68190  1.0000 0.1227404102
H   H238      1.0  0.32260  0.14070  0.20630  1.0000 0.1227404102
H   H239      1.0  0.43440  0.11630  0.29370  1.0000 0.1227404102
H   H240      1.0  0.17740  0.38370  0.81810  1.0000 0.1227404102
H   H241      1.0  0.41510  0.98980  0.73130  1.0000 0.1401111571
H   H242      1.0  0.75850  0.68380  0.76870  1.0000 0.1401111571
H   H243      1.0  0.74150  0.51020  0.92530  1.0000 0.1401111571
H   H244      1.0  0.08490  0.81620  0.57470  1.0000 0.1401111571
H   H245      1.0  0.73130  0.41510  0.98980  1.0000 0.1401111571
H   H246      1.0  0.76870  0.75850  0.68380  1.0000 0.1401111571
H   H247      1.0  0.92530  0.74150  0.51020  1.0000 0.1401111571
H   H248      1.0  0.57470  0.08490  0.81620  1.0000 0.1401111571
H   H249      1.0  0.98980  0.73130  0.41510  1.0000 0.1401111571
H   H250      1.0  0.68380  0.76870  0.75850  1.0000 0.1401111571
H   H251      1.0  0.51020  0.92530  0.74150  1.0000 0.1401111571
H   H252      1.0  0.81620  0.57470  0.08490  1.0000 0.1401111571
H   H253      1.0  0.58490  0.01020  0.26870  1.0000 0.1401111571
H   H254      1.0  0.24150  0.31620  0.23130  1.0000 0.1401111571
H   H255      1.0  0.25850  0.48980  0.07470  1.0000 0.1401111571
H   H256      1.0  0.91510  0.18380  0.42530  1.0000 0.1401111571
H   H257      1.0  0.26870  0.58490  0.01020  1.0000 0.1401111571
H   H258      1.0  0.23130  0.24150  0.31620  1.0000 0.1401111571
H   H259      1.0  0.07470  0.25850  0.48980  1.0000 0.1401111571
H   H260      1.0  0.42530  0.91510  0.18380  1.0000 0.1401111571
H   H261      1.0  0.01020  0.26870  0.58490  1.0000 0.1401111571
H   H262      1.0  0.31620  0.23130  0.24150  1.0000 0.1401111571
H   H263      1.0  0.48980  0.07470  0.25850  1.0000 0.1401111571
H   H264      1.0  0.18380  0.42530  0.91510  1.0000 0.1401111571
H   H265      1.0  0.36650  0.04190  0.70040  1.0000 0.1227404102
H   H266      1.0  0.84150  0.66610  0.79960  1.0000 0.1227404102
H   H267      1.0  0.65850  0.45810  0.82460  1.0000 0.1227404102
H   H268      1.0  0.13350  0.83390  0.67540  1.0000 0.1227404102
H   H269      1.0  0.70040  0.36650  0.04190  1.0000 0.1227404102
H   H270      1.0  0.79960  0.84150  0.66610  1.0000 0.1227404102
H   H271      1.0  0.82460  0.65850  0.45810  1.0000 0.1227404102
H   H272      1.0  0.67540  0.13350  0.83390  1.0000 0.1227404102
H   H273      1.0  0.04190  0.70040  0.36650  1.0000 0.1227404102
H   H274      1.0  0.66610  0.79960  0.84150  1.0000 0.1227404102
H   H275      1.0  0.45810  0.82460  0.65850  1.0000 0.1227404102
H   H276      1.0  0.83390  0.67540  0.13350  1.0000 0.1227404102
H   H277      1.0  0.63350  0.95810  0.29960  1.0000 0.1227404102
H   H278      1.0  0.15850  0.33390  0.20040  1.0000 0.1227404102
H   H279      1.0  0.34150  0.54190  0.17540  1.0000 0.1227404102
H   H280      1.0  0.86650  0.16610  0.32460  1.0000 0.1227404102
H   H281      1.0  0.29960  0.63350  0.95810  1.0000 0.1227404102
H   H282      1.0  0.20040  0.15850  0.33390  1.0000 0.1227404102
H   H283      1.0  0.17540  0.34150  0.54190  1.0000 0.1227404102
H   H284      1.0  0.32460  0.86650  0.16610  1.0000 0.1227404102
H   H285      1.0  0.95810  0.29960  0.63350  1.0000 0.1227404102
H   H286      1.0  0.33390  0.20040  0.15850  1.0000 0.1227404102
H   H287      1.0  0.54190  0.17540  0.34150  1.0000 0.1227404102
H   H288      1.0  0.16610  0.32460  0.86650  1.0000 0.1227404102
H   H289      1.0  0.25130  0.08000  0.50490  1.0000 0.1401111571
H   H290      1.0  0.07510  0.74640  0.99510  1.0000 0.1401111571
H   H291      1.0  0.42490  0.42000  0.67130  1.0000 0.1401111571
H   H292      1.0  0.24870  0.75360  0.82870  1.0000 0.1401111571
H   H293      1.0  0.50490  0.25130  0.08000  1.0000 0.1401111571
H   H294      1.0  0.99510  0.07510  0.74640  1.0000 0.1401111571
H   H295      1.0  0.67130  0.42490  0.42000  1.0000 0.1401111571
H   H296      1.0  0.82870  0.24870  0.75360  1.0000 0.1401111571
H   H297      1.0  0.08000  0.50490  0.25130  1.0000 0.1401111571
H   H298      1.0  0.74640  0.99510  0.07510  1.0000 0.1401111571
H   H299      1.0  0.42000  0.67130  0.42490  1.0000 0.1401111571
H   H300      1.0  0.75360  0.82870  0.24870  1.0000 0.1401111571
H   H301      1.0  0.74870  0.92000  0.49510  1.0000 0.1401111571
H   H302      1.0  0.92490  0.25360  0.00490  1.0000 0.1401111571
H   H303      1.0  0.57510  0.58000  0.32870  1.0000 0.1401111571
H   H304      1.0  0.75130  0.24640  0.17130  1.0000 0.1401111571
H   H305      1.0  0.49510  0.74870  0.92000  1.0000 0.1401111571
H   H306      1.0  0.00490  0.92490  0.25360  1.0000 0.1401111571
H   H307      1.0  0.32870  0.57510  0.58000  1.0000 0.1401111571
H   H308      1.0  0.17130  0.75130  0.24640  1.0000 0.1401111571
H   H309      1.0  0.92000  0.49510  0.74870  1.0000 0.1401111571
H   H310      1.0  0.25360  0.00490  0.92490  1.0000 0.1401111571
H   H311      1.0  0.58000  0.32870  0.57510  1.0000 0.1401111571
H   H312      1.0  0.24640  0.17130  0.75130  1.0000 0.1401111571
H   H313      1.0  0.28510  0.12500  0.45070  1.0000 0.1227404102
H   H314      1.0  0.17430  0.83440  0.04930  1.0000 0.1227404102
H   H315      1.0  0.32570  0.37500  0.66010  1.0000 0.1227404102
H   H316      1.0  0.21490  0.66560  0.83990  1.0000 0.1227404102
H   H317      1.0  0.45070  0.28510  0.12500  1.0000 0.1227404102
H   H318      1.0  0.04930  0.17430  0.83440  1.0000 0.1227404102
H   H319      1.0  0.66010  0.32570  0.37500  1.0000 0.1227404102
H   H320      1.0  0.83990  0.21490  0.66560  1.0000 0.1227404102
H   H321      1.0  0.12500  0.45070  0.28510  1.0000 0.1227404102
H   H322      1.0  0.83440  0.04930  0.17430  1.0000 0.1227404102
H   H323      1.0  0.37500  0.66010  0.32570  1.0000 0.1227404102
H   H324      1.0  0.66560  0.83990  0.21490  1.0000 0.1227404102
H   H325      1.0  0.71490  0.87500  0.54930  1.0000 0.1227404102
H   H326      1.0  0.82570  0.16560  0.95070  1.0000 0.1227404102
H   H327      1.0  0.67430  0.62500  0.33990  1.0000 0.1227404102
H   H328      1.0  0.78510  0.33440  0.16010  1.0000 0.1227404102
H   H329      1.0  0.54930  0.71490  0.87500  1.0000 0.1227404102
H   H330      1.0  0.95070  0.82570  0.16560  1.0000 0.1227404102
H   H331      1.0  0.33990  0.67430  0.62500  1.0000 0.1227404102
H   H332      1.0  0.16010  0.78510  0.33440  1.0000 0.1227404102
H   H333      1.0  0.87500  0.54930  0.71490  1.0000 0.1227404102
H   H334      1.0  0.16560  0.95070  0.82570  1.0000 0.1227404102
H   H335      1.0  0.62500  0.33990  0.67430  1.0000 0.1227404102
H   H336      1.0  0.33440  0.16010  0.78510  1.0000 0.1227404102
H   H337      1.0  0.34440  0.17540  0.55800  1.0000 0.1227404102
H   H338      1.0  0.11740  0.78640  0.94200  1.0000 0.1227404102
H   H339      1.0  0.38260  0.32460  0.66900  1.0000 0.1227404102
H   H340      1.0  0.15560  0.71360  0.83100  1.0000 0.1227404102
H   H341      1.0  0.55800  0.34440  0.17540  1.0000 0.1227404102
H   H342      1.0  0.94200  0.11740  0.78640  1.0000 0.1227404102
H   H343      1.0  0.66900  0.38260  0.32460  1.0000 0.1227404102
H   H344      1.0  0.83100  0.15560  0.71360  1.0000 0.1227404102
H   H345      1.0  0.17540  0.55800  0.34440  1.0000 0.1227404102
H   H346      1.0  0.78640  0.94200  0.11740  1.0000 0.1227404102
H   H347      1.0  0.32460  0.66900  0.38260  1.0000 0.1227404102
H   H348      1.0  0.71360  0.83100  0.15560  1.0000 0.1227404102
H   H349      1.0  0.65560  0.82460  0.44200  1.0000 0.1227404102
H   H350      1.0  0.88260  0.21360  0.05800  1.0000 0.1227404102
H   H351      1.0  0.61740  0.67540  0.33100  1.0000 0.1227404102
H   H352      1.0  0.84440  0.28640  0.16900  1.0000 0.1227404102
H   H353      1.0  0.44200  0.65560  0.82460  1.0000 0.1227404102
H   H354      1.0  0.05800  0.88260  0.21360  1.0000 0.1227404102
H   H355      1.0  0.33100  0.61740  0.67540  1.0000 0.1227404102
H   H356      1.0  0.16900  0.84440  0.28640  1.0000 0.1227404102
H   H357      1.0  0.82460  0.44200  0.65560  1.0000 0.1227404102
H   H358      1.0  0.21360  0.05800  0.88260  1.0000 0.1227404102
H   H359      1.0  0.67540  0.33100  0.61740  1.0000 0.1227404102
H   H360      1.0  0.28640  0.16900  0.84440  1.0000 0.1227404102
H   H361      1.0  0.38290  0.21410  0.55700  1.0000 0.1227404102
H   H362      1.0  0.15710  0.82590  0.94300  1.0000 0.1227404102
H   H363      1.0  0.34290  0.28590  0.66880  1.0000 0.1227404102
H   H364      1.0  0.11710  0.67410  0.83120  1.0000 0.1227404102
H   H365      1.0  0.55700  0.38290  0.21410  1.0000 0.1227404102
H   H366      1.0  0.94300  0.15710  0.82590  1.0000 0.1227404102
H   H367      1.0  0.66880  0.34290  0.28590  1.0000 0.1227404102
H   H368      1.0  0.83120  0.11710  0.67410  1.0000 0.1227404102
H   H369      1.0  0.21410  0.55700  0.38290  1.0000 0.1227404102
H   H370      1.0  0.82590  0.94300  0.15710  1.0000 0.1227404102
H   H371      1.0  0.28590  0.66880  0.34290  1.0000 0.1227404102
H   H372      1.0  0.67410  0.83120  0.11710  1.0000 0.1227404102
H   H373      1.0  0.61710  0.78590  0.44300  1.0000 0.1227404102
H   H374      1.0  0.84290  0.17410  0.05700  1.0000 0.1227404102
H   H375      1.0  0.65710  0.71410  0.33120  1.0000 0.1227404102
H   H376      1.0  0.88290  0.32590  0.16880  1.0000 0.1227404102
H   H377      1.0  0.44300  0.61710  0.78590  1.0000 0.1227404102
H   H378      1.0  0.05700  0.84290  0.17410  1.0000 0.1227404102
H   H379      1.0  0.33120  0.65710  0.71410  1.0000 0.1227404102
H   H380      1.0  0.16880  0.88290  0.32590  1.0000 0.1227404102
H   H381      1.0  0.78590  0.44300  0.61710  1.0000 0.1227404102
H   H382      1.0  0.17410  0.05700  0.84290  1.0000 0.1227404102
H   H383      1.0  0.71410  0.33120  0.65710  1.0000 0.1227404102
H   H384      1.0  0.32590  0.16880  0.88290  1.0000 0.1227404102
H   H385      1.0  0.41540  0.25520  0.50020  1.0000 0.1401111571
H   H386      1.0  0.25500  0.91520  0.99980  1.0000 0.1401111571
H   H387      1.0  0.24500  0.24480  0.66020  1.0000 0.1401111571
H   H388      1.0  0.08460  0.58480  0.83980  1.0000 0.1401111571
H   H389      1.0  0.50020  0.41540  0.25520  1.0000 0.1401111571
H   H390      1.0  0.99980  0.25500  0.91520  1.0000 0.1401111571
H   H391      1.0  0.66020  0.24500  0.24480  1.0000 0.1401111571
H   H392      1.0  0.83980  0.08460  0.58480  1.0000 0.1401111571
H   H393      1.0  0.25520  0.50020  0.41540  1.0000 0.1401111571
H   H394      1.0  0.91520  0.99980  0.25500  1.0000 0.1401111571
H   H395      1.0  0.24480  0.66020  0.24500  1.0000 0.1401111571
H   H396      1.0  0.58480  0.83980  0.08460  1.0000 0.1401111571
H   H397      1.0  0.58460  0.74480  0.49980  1.0000 0.1401111571
H   H398      1.0  0.74500  0.08480  0.00020  1.0000 0.1401111571
H   H399      1.0  0.75500  0.75520  0.33980  1.0000 0.1401111571
H   H400      1.0  0.91540  0.41520  0.16020  1.0000 0.1401111571
H   H401      1.0  0.49980  0.58460  0.74480  1.0000 0.1401111571
H   H402      1.0  0.00020  0.74500  0.08480  1.0000 0.1401111571
H   H403      1.0  0.33980  0.75500  0.75520  1.0000 0.1401111571
H   H404      1.0  0.16020  0.91540  0.41520  1.0000 0.1401111571
H   H405      1.0  0.74480  0.49980  0.58460  1.0000 0.1401111571
H   H406      1.0  0.08480  0.00020  0.74500  1.0000 0.1401111571
H   H407      1.0  0.75520  0.33980  0.75500  1.0000 0.1401111571
H   H408      1.0  0.41520  0.16020  0.91540  1.0000 0.1401111571
H   H409      1.0  0.31910  0.16400  0.44970  1.0000 0.1227404102
H   H410      1.0  0.21430  0.86940  0.05030  1.0000 0.1227404102
H   H411      1.0  0.28570  0.33600  0.65510  1.0000 0.1227404102
H   H412      1.0  0.18090  0.63060  0.84490  1.0000 0.1227404102
H   H413      1.0  0.44970  0.31910  0.16400  1.0000 0.1227404102
H   H414      1.0  0.05030  0.21430  0.86940  1.0000 0.1227404102
H   H415      1.0  0.65510  0.28570  0.33600  1.0000 0.1227404102
H   H416      1.0  0.84490  0.18090  0.63060  1.0000 0.1227404102
H   H417      1.0  0.16400  0.44970  0.31910  1.0000 0.1227404102
H   H418      1.0  0.86940  0.05030  0.21430  1.0000 0.1227404102
H   H419      1.0  0.33600  0.65510  0.28570  1.0000 0.1227404102
H   H420      1.0  0.63060  0.84490  0.18090  1.0000 0.1227404102
H   H421      1.0  0.68090  0.83600  0.55030  1.0000 0.1227404102
H   H422      1.0  0.78570  0.13060  0.94970  1.0000 0.1227404102
H   H423      1.0  0.71430  0.66400  0.34490  1.0000 0.1227404102
H   H424      1.0  0.81910  0.36940  0.15510  1.0000 0.1227404102
H   H425      1.0  0.55030  0.68090  0.83600  1.0000 0.1227404102
H   H426      1.0  0.94970  0.78570  0.13060  1.0000 0.1227404102
H   H427      1.0  0.34490  0.71430  0.66400  1.0000 0.1227404102
H   H428      1.0  0.15510  0.81910  0.36940  1.0000 0.1227404102
H   H429      1.0  0.83600  0.55030  0.68090  1.0000 0.1227404102
H   H430      1.0  0.13060  0.94970  0.78570  1.0000 0.1227404102
H   H431      1.0  0.66400  0.34490  0.71430  1.0000 0.1227404102
H   H432      1.0  0.36940  0.15510  0.81910  1.0000 0.1227404102
H   H433      1.0  0.16170  0.74220  0.41070  1.0000 0.1401111571
H   H434      1.0  0.83150  0.75100  0.08930  1.0000 0.1401111571
H   H435      1.0  0.66850  0.75780  0.91950  1.0000 0.1401111571
H   H436      1.0  0.33830  0.74900  0.58050  1.0000 0.1401111571
H   H437      1.0  0.41070  0.16170  0.74220  1.0000 0.1401111571
H   H438      1.0  0.08930  0.83150  0.75100  1.0000 0.1401111571
H   H439      1.0  0.91950  0.66850  0.75780  1.0000 0.1401111571
H   H440      1.0  0.58050  0.33830  0.74900  1.0000 0.1401111571
H   H441      1.0  0.74220  0.41070  0.16170  1.0000 0.1401111571
H   H442      1.0  0.75100  0.08930  0.83150  1.0000 0.1401111571
H   H443      1.0  0.75780  0.91950  0.66850  1.0000 0.1401111571
H   H444      1.0  0.74900  0.58050  0.33830  1.0000 0.1401111571
H   H445      1.0  0.83830  0.25780  0.58930  1.0000 0.1401111571
H   H446      1.0  0.16850  0.24900  0.91070  1.0000 0.1401111571
H   H447      1.0  0.33150  0.24220  0.08050  1.0000 0.1401111571
H   H448      1.0  0.66170  0.25100  0.41950  1.0000 0.1401111571
H   H449      1.0  0.58930  0.83830  0.25780  1.0000 0.1401111571
H   H450      1.0  0.91070  0.16850  0.24900  1.0000 0.1401111571
H   H451      1.0  0.08050  0.33150  0.24220  1.0000 0.1401111571
H   H452      1.0  0.41950  0.66170  0.25100  1.0000 0.1401111571
H   H453      1.0  0.25780  0.58930  0.83830  1.0000 0.1401111571
H   H454      1.0  0.24900  0.91070  0.16850  1.0000 0.1401111571
H   H455      1.0  0.24220  0.08050  0.33150  1.0000 0.1401111571
H   H456      1.0  0.25100  0.41950  0.66170  1.0000 0.1401111571
H   H457      1.0  0.23270  0.70910  0.43900  1.0000 0.1227404102
H   H458      1.0  0.77010  0.79370  0.06100  1.0000 0.1227404102
H   H459      1.0  0.72990  0.79090  0.02360  1.0000 0.1227404102
H   H460      1.0  0.26730  0.70630  0.47640  1.0000 0.1227404102
H   H461      1.0  0.43900  0.23270  0.70910  1.0000 0.1227404102
H   H462      1.0  0.06100  0.77010  0.79370  1.0000 0.1227404102
H   H463      1.0  0.02360  0.72990  0.79090  1.0000 0.1227404102
H   H464      1.0  0.47640  0.26730  0.70630  1.0000 0.1227404102
H   H465      1.0  0.70910  0.43900  0.23270  1.0000 0.1227404102
H   H466      1.0  0.79370  0.06100  0.77010  1.0000 0.1227404102
H   H467      1.0  0.79090  0.02360  0.72990  1.0000 0.1227404102
H   H468      1.0  0.70630  0.47640  0.26730  1.0000 0.1227404102
H   H469      1.0  0.76730  0.29090  0.56100  1.0000 0.1227404102
H   H470      1.0  0.22990  0.20630  0.93900  1.0000 0.1227404102
H   H471      1.0  0.27010  0.20910  0.97640  1.0000 0.1227404102
H   H472      1.0  0.73270  0.29370  0.52360  1.0000 0.1227404102
H   H473      1.0  0.56100  0.76730  0.29090  1.0000 0.1227404102
H   H474      1.0  0.93900  0.22990  0.20630  1.0000 0.1227404102
H   H475      1.0  0.97640  0.27010  0.20910  1.0000 0.1227404102
H   H476      1.0  0.52360  0.73270  0.29370  1.0000 0.1227404102
H   H477      1.0  0.29090  0.56100  0.76730  1.0000 0.1227404102
H   H478      1.0  0.20630  0.93900  0.22990  1.0000 0.1227404102
H   H479      1.0  0.20910  0.97640  0.27010  1.0000 0.1227404102
H   H480      1.0  0.29370  0.52360  0.73270  1.0000 0.1227404102
H   H481      1.0  0.23010  0.78350  0.51580  1.0000 0.1227404102
H   H482      1.0  0.76770  0.71430  0.98420  1.0000 0.1227404102
H   H483      1.0  0.73230  0.71650  0.94660  1.0000 0.1227404102
H   H484      1.0  0.26990  0.78570  0.55340  1.0000 0.1227404102
H   H485      1.0  0.51580  0.23010  0.78350  1.0000 0.1227404102
H   H486      1.0  0.98420  0.76770  0.71430  1.0000 0.1284668104
H   H487      1.0  0.94660  0.73230  0.71650  1.0000 0.1227404102
H   H488      1.0  0.55340  0.26990  0.78570  1.0000 0.1227404102
H   H489      1.0  0.78350  0.51580  0.23010  1.0000 0.1227404102
H   H490      1.0  0.71430  0.98420  0.76770  1.0000 0.1227404102
H   H491      1.0  0.71650  0.94660  0.73230  1.0000 0.1284668104
H   H492      1.0  0.78570  0.55340  0.26990  1.0000 0.1227404102
H   H493      1.0  0.76990  0.21650  0.48420  1.0000 0.1227404102
H   H494      1.0  0.23230  0.28570  0.01580  1.0000 0.1227404102
H   H495      1.0  0.26770  0.28350  0.05340  1.0000 0.1227404102
H   H496      1.0  0.73010  0.21430  0.44660  1.0000 0.1227404102
H   H497      1.0  0.48420  0.76990  0.21650  1.0000 0.1227404102
H   H498      1.0  0.01580  0.23230  0.28570  1.0000 0.1227404102
H   H499      1.0  0.05340  0.26770  0.28350  1.0000 0.1227404102
H   H500      1.0  0.44660  0.73010  0.21430  1.0000 0.1227404102
H   H501      1.0  0.21650  0.48420  0.76990  1.0000 0.1227404102
H   H502      1.0  0.28570  0.01580  0.23230  1.0000 0.1227404102
H   H503      1.0  0.28350  0.05340  0.26770  1.0000 0.1227404102
H   H504      1.0  0.21430  0.44660  0.73010  1.0000 0.1227404102
C   C1        1.0  0.20752  0.09342  0.63750  1.0000 0.5829716432
C   C2        1.0  0.95592  0.57002  0.86250  1.0000 0.5829716432
C   C3        1.0  0.54408  0.40658  0.61410  1.0000 0.5829716432
C   C4        1.0  0.29248  0.92998  0.88590  1.0000 0.5829716432
C   C5        1.0  0.63750  0.20752  0.09342  1.0000 0.5829716432
C   C6        1.0  0.86250  0.95592  0.57002  1.0000 0.5829716432
C   C7        1.0  0.61410  0.54408  0.40658  1.0000 0.5829716432
C   C8        1.0  0.88590  0.29248  0.92998  1.0000 0.5829716432
C   C9        1.0  0.09342  0.63750  0.20752  1.0000 0.5829716432
C   C10       1.0  0.57002  0.86250  0.95592  1.0000 0.5829716432
C   C11       1.0  0.40658  0.61410  0.54408  1.0000 0.5829716432
C   C12       1.0  0.92998  0.88590  0.29248  1.0000 0.5829716432
C   C13       1.0  0.79248  0.90658  0.36250  1.0000 0.5829716432
C   C14       1.0  0.04408  0.42998  0.13750  1.0000 0.5829716432
C   C15       1.0  0.45592  0.59342  0.38590  1.0000 0.5829716432
C   C16       1.0  0.70752  0.07002  0.11410  1.0000 0.5829716432
C   C17       1.0  0.36250  0.79248  0.90658  1.0000 0.5829716432
C   C18       1.0  0.13750  0.04408  0.42998  1.0000 0.5829716432
C   C19       1.0  0.38590  0.45592  0.59342  1.0000 0.5829716432
C   C20       1.0  0.11410  0.70752  0.07002  1.0000 0.5829716432
C   C21       1.0  0.90658  0.36250  0.79248  1.0000 0.5829716432
C   C22       1.0  0.42998  0.13750  0.04408  1.0000 0.5829716432
C   C23       1.0  0.59342  0.38590  0.45592  1.0000 0.5829716432
C   C24       1.0  0.07002  0.11410  0.70752  1.0000 0.5829716432
C   C25       1.0  0.18048  0.07208  0.64500  1.0000 0.0085040159
C   C26       1.0  0.92708  0.53548  0.85500  1.0000 0.0085040159
C   C27       1.0  0.57292  0.42792  0.60840  1.0000 0.0085040159
C   C28       1.0  0.31952  0.96452  0.89160  1.0000 0.0085040159
C   C29       1.0  0.64500  0.18048  0.07208  1.0000 0.0085040159
C   C30       1.0  0.85500  0.92708  0.53548  1.0000 0.0085040159
C   C31       1.0  0.60840  0.57292  0.42792  1.0000 0.0085040159
C   C32       1.0  0.89160  0.31952  0.96452  1.0000 0.0085040159
C   C33       1.0  0.07208  0.64500  0.18048  1.0000 0.0085040159
C   C34       1.0  0.53548  0.85500  0.92708  1.0000 0.0085040159
C   C35       1.0  0.42792  0.60840  0.57292  1.0000 0.0085040159
C   C36       1.0  0.96452  0.89160  0.31952  1.0000 0.0085040159
C   C37       1.0  0.81952  0.92792  0.35500  1.0000 0.0085040159
C   C38       1.0  0.07292  0.46452  0.14500  1.0000 0.0085040159
C   C39       1.0  0.42708  0.57208  0.39160  1.0000 0.0085040159
C   C40       1.0  0.68048  0.03548  0.10840  1.0000 0.0085040159
C   C41       1.0  0.35500  0.81952  0.92792  1.0000 0.0085040159
C   C42       1.0  0.14500  0.07292  0.46452  1.0000 0.0085040159
C   C43       1.0  0.39160  0.42708  0.57208  1.0000 0.0085040159
C   C44       1.0  0.10840  0.68048  0.03548  1.0000 0.0085040159
C   C45       1.0  0.92792  0.35500  0.81952  1.0000 0.0085040159
C   C46       1.0  0.46452  0.14500  0.07292  1.0000 0.0085040159
C   C47       1.0  0.57208  0.39160  0.42708  1.0000 0.0085040159
C   C48       1.0  0.03548  0.10840  0.68048  1.0000 0.0085040159
C   C49       1.0  0.17251  0.09051  0.66960  1.0000 -0.109551457
C   C50       1.0  0.92091  0.50291  0.83040  1.0000 -0.109551457
C   C51       1.0  0.57909  0.40949  0.58200  1.0000 -0.109551457
C   C52       1.0  0.32749  0.99709  0.91800  1.0000 -0.109551457
C   C53       1.0  0.66960  0.17251  0.09051  1.0000 -0.109551457
C   C54       1.0  0.83040  0.92091  0.50291  1.0000 -0.109551457
C   C55       1.0  0.58200  0.57909  0.40949  1.0000 -0.109551457
C   C56       1.0  0.91800  0.32749  0.99709  1.0000 -0.109551457
C   C57       1.0  0.09051  0.66960  0.17251  1.0000 -0.109551457
C   C58       1.0  0.50291  0.83040  0.92091  1.0000 -0.109551457
C   C59       1.0  0.40949  0.58200  0.57909  1.0000 -0.109551457
C   C60       1.0  0.99709  0.91800  0.32749  1.0000 -0.109551457
C   C61       1.0  0.82749  0.90949  0.33040  1.0000 -0.109551457
C   C62       1.0  0.07909  0.49709  0.16960  1.0000 -0.109551457
C   C63       1.0  0.42091  0.59051  0.41800  1.0000 -0.109551457
C   C64       1.0  0.67251  0.00291  0.08200  1.0000 -0.109551457
C   C65       1.0  0.33040  0.82749  0.90949  1.0000 -0.109551457
C   C66       1.0  0.16960  0.07909  0.49709  1.0000 -0.109551457
C   C67       1.0  0.41800  0.42091  0.59051  1.0000 -0.109551457
C   C68       1.0  0.08200  0.67251  0.00291  1.0000 -0.109551457
C   C69       1.0  0.90949  0.33040  0.82749  1.0000 -0.109551457
C   C70       1.0  0.49709  0.16960  0.07909  1.0000 -0.109551457
C   C71       1.0  0.59051  0.41800  0.42091  1.0000 -0.109551457
C   C72       1.0  0.00291  0.08200  0.67251  1.0000 -0.109551457
C   C73       1.0  0.14865  0.07161  0.67756  1.0000 -0.0032749511
C   C74       1.0  0.89405  0.47109  0.82244  1.0000 -0.0032749511
C   C75       1.0  0.60595  0.42839  0.57704  1.0000 -0.0032749511
C   C76       1.0  0.35135  0.02891  0.92296  1.0000 -0.0032749511
C   C77       1.0  0.67756  0.14865  0.07161  1.0000 -0.0032749511
C   C78       1.0  0.82244  0.89405  0.47109  1.0000 -0.0032749511
C   C79       1.0  0.57704  0.60595  0.42839  1.0000 -0.0032749511
C   C80       1.0  0.92296  0.35135  0.02891  1.0000 -0.0032749511
C   C81       1.0  0.07161  0.67756  0.14865  1.0000 -0.0032749511
C   C82       1.0  0.47109  0.82244  0.89405  1.0000 -0.0032749511
C   C83       1.0  0.42839  0.57704  0.60595  1.0000 -0.0032749511
C   C84       1.0  0.02891  0.92296  0.35135  1.0000 -0.0032749511
C   C85       1.0  0.85135  0.92839  0.32244  1.0000 -0.0032749511
C   C86       1.0  0.10595  0.52891  0.17756  1.0000 -0.0032749511
C   C87       1.0  0.39405  0.57161  0.42296  1.0000 -0.0032749511
C   C88       1.0  0.64865  0.97109  0.07704  1.0000 -0.0032749511
C   C89       1.0  0.32244  0.85135  0.92839  1.0000 -0.0032749511
C   C90       1.0  0.17756  0.10595  0.52891  1.0000 -0.0032749511
C   C91       1.0  0.42296  0.39405  0.57161  1.0000 -0.0032749511
C   C92       1.0  0.07704  0.64865  0.97109  1.0000 -0.0032749511
C   C93       1.0  0.92839  0.32244  0.85135  1.0000 -0.0032749511
C   C94       1.0  0.52891  0.17756  0.10595  1.0000 -0.0032749511
C   C95       1.0  0.57161  0.42296  0.39405  1.0000 -0.0032749511
C   C96       1.0  0.97109  0.07704  0.64865  1.0000 -0.0032749511
C   C97       1.0  0.14270  0.09308  0.70598  1.0000 0.5879355864
C   C98       1.0  0.88710  0.43672  0.79402  1.0000 0.5879355864
C   C99       1.0  0.61290  0.40692  0.54962  1.0000 0.5879355864
C   C100      1.0  0.35730  0.06328  0.95038  1.0000 0.5879355864
C   C101      1.0  0.70598  0.14270  0.09308  1.0000 0.5879355864
C   C102      1.0  0.79402  0.88710  0.43672  1.0000 0.5879355864
C   C103      1.0  0.54962  0.61290  0.40692  1.0000 0.5879355864
C   C104      1.0  0.95038  0.35730  0.06328  1.0000 0.5879355864
C   C105      1.0  0.09308  0.70598  0.14270  1.0000 0.5879355864
C   C106      1.0  0.43672  0.79402  0.88710  1.0000 0.5879355864
C   C107      1.0  0.40692  0.54962  0.61290  1.0000 0.5879355864
C   C108      1.0  0.06328  0.95038  0.35730  1.0000 0.5879355864
C   C109      1.0  0.85730  0.90692  0.29402  1.0000 0.5879355864
C   C110      1.0  0.11290  0.56328  0.20598  1.0000 0.5879355864
C   C111      1.0  0.38710  0.59308  0.45038  1.0000 0.5879355864
C   C112      1.0  0.64270  0.93672  0.04962  1.0000 0.5879355864
C   C113      1.0  0.29402  0.85730  0.90692  1.0000 0.5879355864
C   C114      1.0  0.20598  0.11290  0.56328  1.0000 0.5879355864
C   C115      1.0  0.45038  0.38710  0.59308  1.0000 0.5879355864
C   C116      1.0  0.04962  0.64270  0.93672  1.0000 0.5879355864
C   C117      1.0  0.90692  0.29402  0.85730  1.0000 0.5879355864
C   C118      1.0  0.56328  0.20598  0.11290  1.0000 0.5879355864
C   C119      1.0  0.59308  0.45038  0.38710  1.0000 0.5879355864
C   C120      1.0  0.93672  0.04962  0.64270  1.0000 0.5879355864
C   C121      1.0  0.13191  0.03441  0.66030  1.0000 -0.1390076974
C   C122      1.0  0.87411  0.47161  0.83970  1.0000 -0.1390076974
C   C123      1.0  0.62589  0.46559  0.59750  1.0000 -0.1390076974
C   C124      1.0  0.36809  0.02839  0.90250  1.0000 -0.1390076974
C   C125      1.0  0.66030  0.13191  0.03441  1.0000 -0.1390076974
C   C126      1.0  0.83970  0.87411  0.47161  1.0000 -0.1390076974
C   C127      1.0  0.59750  0.62589  0.46559  1.0000 -0.1390076974
C   C128      1.0  0.90250  0.36809  0.02839  1.0000 -0.1390076974
C   C129      1.0  0.03441  0.66030  0.13191  1.0000 -0.1390076974
C   C130      1.0  0.47161  0.83970  0.87411  1.0000 -0.1390076974
C   C131      1.0  0.46559  0.59750  0.62589  1.0000 -0.1390076974
C   C132      1.0  0.02839  0.90250  0.36809  1.0000 -0.1390076974
C   C133      1.0  0.86809  0.96559  0.33970  1.0000 -0.1390076974
C   C134      1.0  0.12589  0.52839  0.16030  1.0000 -0.1390076974
C   C135      1.0  0.37411  0.53441  0.40250  1.0000 -0.1390076974
C   C136      1.0  0.63191  0.97161  0.09750  1.0000 -0.1390076974
C   C137      1.0  0.33970  0.86809  0.96559  1.0000 -0.1390076974
C   C138      1.0  0.16030  0.12589  0.52839  1.0000 -0.1390076974
C   C139      1.0  0.40250  0.37411  0.53441  1.0000 -0.1390076974
C   C140      1.0  0.09750  0.63191  0.97161  1.0000 -0.1390076974
C   C141      1.0  0.96559  0.33970  0.86809  1.0000 -0.1390076974
C   C142      1.0  0.52839  0.16030  0.12589  1.0000 -0.1390076974
C   C143      1.0  0.53441  0.40250  0.37411  1.0000 -0.1390076974
C   C144      1.0  0.97161  0.09750  0.63191  1.0000 -0.1390076974
C   C145      1.0  0.16404  0.03482  0.62838  1.0000 -0.1390076974
C   C146      1.0  0.90644  0.53566  0.87162  1.0000 -0.1390076974
C   C147      1.0  0.59356  0.46518  0.62922  1.0000 -0.1390076974
C   C148      1.0  0.33596  0.96434  0.87078  1.0000 -0.1390076974
C   C149      1.0  0.62838  0.16404  0.03482  1.0000 -0.1390076974
C   C150      1.0  0.87162  0.90644  0.53566  1.0000 -0.1390076974
C   C151      1.0  0.62922  0.59356  0.46518  1.0000 -0.1390076974
C   C152      1.0  0.87078  0.33596  0.96434  1.0000 -0.1390076974
C   C153      1.0  0.03482  0.62838  0.16404  1.0000 -0.1390076974
C   C154      1.0  0.53566  0.87162  0.90644  1.0000 -0.1390076974
C   C155      1.0  0.46518  0.62922  0.59356  1.0000 -0.1390076974
C   C156      1.0  0.96434  0.87078  0.33596  1.0000 -0.1390076974
C   C157      1.0  0.83596  0.96518  0.37162  1.0000 -0.1390076974
C   C158      1.0  0.09356  0.46434  0.12838  1.0000 -0.1390076974
C   C159      1.0  0.40644  0.53482  0.37078  1.0000 -0.1390076974
C   C160      1.0  0.66404  0.03566  0.12922  1.0000 -0.1390076974
C   C161      1.0  0.37162  0.83596  0.96518  1.0000 -0.1390076974
C   C162      1.0  0.12838  0.09356  0.46434  1.0000 -0.1390076974
C   C163      1.0  0.37078  0.40644  0.53482  1.0000 -0.1390076974
C   C164      1.0  0.12922  0.66404  0.03566  1.0000 -0.1390076974
C   C165      1.0  0.96518  0.37162  0.83596  1.0000 -0.1390076974
C   C166      1.0  0.46434  0.12838  0.09356  1.0000 -0.1390076974
C   C167      1.0  0.53482  0.37078  0.40644  1.0000 -0.1390076974
C   C168      1.0  0.03566  0.12922  0.66404  1.0000 -0.1390076974
C   C169      1.0  0.13906  0.01539  0.63513  1.0000 0.0730122226
C   C170      1.0  0.88026  0.50393  0.86487  1.0000 0.0730122226
C   C171      1.0  0.61974  0.48461  0.62367  1.0000 0.0730122226
C   C172      1.0  0.36094  0.99607  0.87633  1.0000 0.0730122226
C   C173      1.0  0.63513  0.13906  0.01539  1.0000 0.0730122226
C   C174      1.0  0.86487  0.88026  0.50393  1.0000 0.0730122226
C   C175      1.0  0.62367  0.61974  0.48461  1.0000 0.0730122226
C   C176      1.0  0.87633  0.36094  0.99607  1.0000 0.0730122226
C   C177      1.0  0.01539  0.63513  0.13906  1.0000 0.0730122226
C   C178      1.0  0.50393  0.86487  0.88026  1.0000 0.0730122226
C   C179      1.0  0.48461  0.62367  0.61974  1.0000 0.0730122226
C   C180      1.0  0.99607  0.87633  0.36094  1.0000 0.0730122226
C   C181      1.0  0.86094  0.98461  0.36487  1.0000 0.0730122226
C   C182      1.0  0.11974  0.49607  0.13513  1.0000 0.0730122226
C   C183      1.0  0.38026  0.51539  0.37633  1.0000 0.0730122226
C   C184      1.0  0.63906  0.00393  0.12367  1.0000 0.0730122226
C   C185      1.0  0.36487  0.86094  0.98461  1.0000 0.0730122226
C   C186      1.0  0.13513  0.11974  0.49607  1.0000 0.0730122226
C   C187      1.0  0.37633  0.38026  0.51539  1.0000 0.0730122226
C   C188      1.0  0.12367  0.63906  0.00393  1.0000 0.0730122226
C   C189      1.0  0.98461  0.36487  0.86094  1.0000 0.0730122226
C   C190      1.0  0.49607  0.13513  0.11974  1.0000 0.0730122226
C   C191      1.0  0.51539  0.37633  0.38026  1.0000 0.0730122226
C   C192      1.0  0.00393  0.12367  0.63906  1.0000 0.0730122226
C   C193      1.0  0.12030  0.97526  0.61596  1.0000 0.0730122226
C   C194      1.0  0.85930  0.50434  0.88404  1.0000 0.0730122226
C   C195      1.0  0.64070  0.52474  0.64504  1.0000 0.0730122226
C   C196      1.0  0.37970  0.99566  0.85496  1.0000 0.0730122226
C   C197      1.0  0.61596  0.12030  0.97526  1.0000 0.0730122226
C   C198      1.0  0.88404  0.85930  0.50434  1.0000 0.0730122226
C   C199      1.0  0.64504  0.64070  0.52474  1.0000 0.0730122226
C   C200      1.0  0.85496  0.37970  0.99566  1.0000 0.0730122226
C   C201      1.0  0.97526  0.61596  0.12030  1.0000 0.0730122226
C   C202      1.0  0.50434  0.88404  0.85930  1.0000 0.0730122226
C   C203      1.0  0.52474  0.64504  0.64070  1.0000 0.0730122226
C   C204      1.0  0.99566  0.85496  0.37970  1.0000 0.0730122226
C   C205      1.0  0.87970  0.02474  0.38404  1.0000 0.0730122226
C   C206      1.0  0.14070  0.49566  0.11596  1.0000 0.0730122226
C   C207      1.0  0.35930  0.47526  0.35496  1.0000 0.0730122226
C   C208      1.0  0.62030  0.00434  0.14504  1.0000 0.0730122226
C   C209      1.0  0.38404  0.87970  0.02474  1.0000 0.0730122226
C   C210      1.0  0.11596  0.14070  0.49566  1.0000 0.0730122226
C   C211      1.0  0.35496  0.35930  0.47526  1.0000 0.0730122226
C   C212      1.0  0.14504  0.62030  0.00434  1.0000 0.0730122226
C   C213      1.0  0.02474  0.38404  0.87970  1.0000 0.0730122226
C   C214      1.0  0.49566  0.11596  0.14070  1.0000 0.0730122226
C   C215      1.0  0.47526  0.35496  0.35930  1.0000 0.0730122226
C   C216      1.0  0.00434  0.14504  0.62030  1.0000 0.0730122226
C   C217      1.0  0.09623  0.95575  0.62332  1.0000 -0.1321936653
C   C218      1.0  0.83243  0.47291  0.87668  1.0000 -0.1321936653
C   C219      1.0  0.66757  0.54425  0.64048  1.0000 -0.1321936653
C   C220      1.0  0.40377  0.02709  0.85952  1.0000 -0.1321936653
C   C221      1.0  0.62332  0.09623  0.95575  1.0000 -0.1321936653
C   C222      1.0  0.87668  0.83243  0.47291  1.0000 -0.1321936653
C   C223      1.0  0.64048  0.66757  0.54425  1.0000 -0.1321936653
C   C224      1.0  0.85952  0.40377  0.02709  1.0000 -0.1321936653
C   C225      1.0  0.95575  0.62332  0.09623  1.0000 -0.1321936653
C   C226      1.0  0.47291  0.87668  0.83243  1.0000 -0.1321936653
C   C227      1.0  0.54425  0.64048  0.66757  1.0000 -0.1321936653
C   C228      1.0  0.02709  0.85952  0.40377  1.0000 -0.1321936653
C   C229      1.0  0.90377  0.04425  0.37668  1.0000 -0.1321936653
C   C230      1.0  0.16757  0.52709  0.12332  1.0000 -0.1321936653
C   C231      1.0  0.33243  0.45575  0.35952  1.0000 -0.1321936653
C   C232      1.0  0.59623  0.97291  0.14048  1.0000 -0.1321936653
C   C233      1.0  0.37668  0.90377  0.04425  1.0000 -0.1321936653
C   C234      1.0  0.12332  0.16757  0.52709  1.0000 -0.1321936653
C   C235      1.0  0.35952  0.33243  0.45575  1.0000 -0.1321936653
C   C236      1.0  0.14048  0.59623  0.97291  1.0000 -0.1321936653
C   C237      1.0  0.04425  0.37668  0.90377  1.0000 -0.1321936653
C   C238      1.0  0.52709  0.12332  0.16757  1.0000 -0.1321936653
C   C239      1.0  0.45575  0.35952  0.33243  1.0000 -0.1321936653
C   C240      1.0  0.97291  0.14048  0.59623  1.0000 -0.1321936653
C   C241      1.0  0.12660  0.95545  0.59025  1.0000 -0.1390076974
C   C242      1.0  0.86520  0.53635  0.90975  1.0000 -0.1390076974
C   C243      1.0  0.63480  0.54455  0.67115  1.0000 -0.1390076974
C   C244      1.0  0.37340  0.96365  0.82885  1.0000 -0.1390076974
C   C245      1.0  0.59025  0.12660  0.95545  1.0000 -0.1390076974
C   C246      1.0  0.90975  0.86520  0.53635  1.0000 -0.1390076974
C   C247      1.0  0.67115  0.63480  0.54455  1.0000 -0.1390076974
C   C248      1.0  0.82885  0.37340  0.96365  1.0000 -0.1390076974
C   C249      1.0  0.95545  0.59025  0.12660  1.0000 -0.1390076974
C   C250      1.0  0.53635  0.90975  0.86520  1.0000 -0.1390076974
C   C251      1.0  0.54455  0.67115  0.63480  1.0000 -0.1390076974
C   C252      1.0  0.96365  0.82885  0.37340  1.0000 -0.1390076974
C   C253      1.0  0.87340  0.04455  0.40975  1.0000 -0.1390076974
C   C254      1.0  0.13480  0.46365  0.09025  1.0000 -0.1390076974
C   C255      1.0  0.36520  0.45545  0.32885  1.0000 -0.1390076974
C   C256      1.0  0.62660  0.03635  0.17115  1.0000 -0.1390076974
C   C257      1.0  0.40975  0.87340  0.04455  1.0000 -0.1390076974
C   C258      1.0  0.09025  0.13480  0.46365  1.0000 -0.1390076974
C   C259      1.0  0.32885  0.36520  0.45545  1.0000 -0.1390076974
C   C260      1.0  0.17115  0.62660  0.03635  1.0000 -0.1390076974
C   C261      1.0  0.04455  0.40975  0.87340  1.0000 -0.1390076974
C   C262      1.0  0.46365  0.09025  0.13480  1.0000 -0.1390076974
C   C263      1.0  0.45545  0.32885  0.36520  1.0000 -0.1390076974
C   C264      1.0  0.03635  0.17115  0.62660  1.0000 -0.1390076974
C   C265      1.0  0.11030  0.91837  0.57407  1.0000 -0.011056265
C   C266      1.0  0.84430  0.53623  0.92593  1.0000 -0.011056265
C   C267      1.0  0.65570  0.58163  0.69193  1.0000 -0.011056265
C   C268      1.0  0.38970  0.96377  0.80807  1.0000 -0.011056265
C   C269      1.0  0.57407  0.11030  0.91837  1.0000 -0.011056265
C   C270      1.0  0.92593  0.84430  0.53623  1.0000 -0.011056265
C   C271      1.0  0.69193  0.65570  0.58163  1.0000 -0.011056265
C   C272      1.0  0.80807  0.38970  0.96377  1.0000 -0.011056265
C   C273      1.0  0.91837  0.57407  0.11030  1.0000 -0.011056265
C   C274      1.0  0.53623  0.92593  0.84430  1.0000 -0.011056265
C   C275      1.0  0.58163  0.69193  0.65570  1.0000 -0.011056265
C   C276      1.0  0.96377  0.80807  0.38970  1.0000 -0.011056265
C   C277      1.0  0.88970  0.08163  0.42593  1.0000 -0.011056265
C   C278      1.0  0.15570  0.46377  0.07407  1.0000 -0.011056265
C   C279      1.0  0.34430  0.41837  0.30807  1.0000 -0.011056265
C   C280      1.0  0.61030  0.03623  0.19193  1.0000 -0.011056265
C   C281      1.0  0.42593  0.88970  0.08163  1.0000 -0.011056265
C   C282      1.0  0.07407  0.15570  0.46377  1.0000 -0.011056265
C   C283      1.0  0.30807  0.34430  0.41837  1.0000 -0.011056265
C   C284      1.0  0.19193  0.61030  0.03623  1.0000 -0.011056265
C   C285      1.0  0.08163  0.42593  0.88970  1.0000 -0.011056265
C   C286      1.0  0.46377  0.07407  0.15570  1.0000 -0.011056265
C   C287      1.0  0.41837  0.30807  0.34430  1.0000 -0.011056265
C   C288      1.0  0.03623  0.19193  0.61030  1.0000 -0.011056265
C   C289      1.0  0.11710  0.89690  0.54660  1.0000 0.6092052144
C   C290      1.0  0.85030  0.57050  0.95340  1.0000 0.6092052144
C   C291      1.0  0.64970  0.60310  0.72020  1.0000 0.6092052144
C   C292      1.0  0.38290  0.92950  0.77980  1.0000 0.6092052144
C   C293      1.0  0.54660  0.11710  0.89690  1.0000 0.6092052144
C   C294      1.0  0.95340  0.85030  0.57050  1.0000 0.6092052144
C   C295      1.0  0.72020  0.64970  0.60310  1.0000 0.6092052144
C   C296      1.0  0.77980  0.38290  0.92950  1.0000 0.6092052144
C   C297      1.0  0.89690  0.54660  0.11710  1.0000 0.6092052144
C   C298      1.0  0.57050  0.95340  0.85030  1.0000 0.6092052144
C   C299      1.0  0.60310  0.72020  0.64970  1.0000 0.6092052144
C   C300      1.0  0.92950  0.77980  0.38290  1.0000 0.6092052144
C   C301      1.0  0.88290  0.10310  0.45340  1.0000 0.6092052144
C   C302      1.0  0.14970  0.42950  0.04660  1.0000 0.6092052144
C   C303      1.0  0.35030  0.39690  0.27980  1.0000 0.6092052144
C   C304      1.0  0.61710  0.07050  0.22020  1.0000 0.6092052144
C   C305      1.0  0.45340  0.88290  0.10310  1.0000 0.6092052144
C   C306      1.0  0.04660  0.14970  0.42950  1.0000 0.6092052144
C   C307      1.0  0.27980  0.35030  0.39690  1.0000 0.6092052144
C   C308      1.0  0.22020  0.61710  0.07050  1.0000 0.6092052144
C   C309      1.0  0.10310  0.45340  0.88290  1.0000 0.6092052144
C   C310      1.0  0.42950  0.04660  0.14970  1.0000 0.6092052144
C   C311      1.0  0.39690  0.27980  0.35030  1.0000 0.6092052144
C   C312      1.0  0.07050  0.22020  0.61710  1.0000 0.6092052144
C   C313      1.0  0.08710  0.90040  0.58230  1.0000 -0.1001355717
C   C314      1.0  0.81810  0.50480  0.91770  1.0000 -0.1001355717
C   C315      1.0  0.68190  0.59960  0.68670  1.0000 -0.1001355717
C   C316      1.0  0.41290  0.99520  0.81330  1.0000 -0.1001355717
C   C317      1.0  0.58230  0.08710  0.90040  1.0000 -0.1001355717
C   C318      1.0  0.91770  0.81810  0.50480  1.0000 -0.1001355717
C   C319      1.0  0.68670  0.68190  0.59960  1.0000 -0.1001355717
C   C320      1.0  0.81330  0.41290  0.99520  1.0000 -0.1001355717
C   C321      1.0  0.90040  0.58230  0.08710  1.0000 -0.1001355717
C   C322      1.0  0.50480  0.91770  0.81810  1.0000 -0.1001355717
C   C323      1.0  0.59960  0.68670  0.68190  1.0000 -0.1001355717
C   C324      1.0  0.99520  0.81330  0.41290  1.0000 -0.1001355717
C   C325      1.0  0.91290  0.09960  0.41770  1.0000 -0.1001355717
C   C326      1.0  0.18190  0.49520  0.08230  1.0000 -0.1001355717
C   C327      1.0  0.31810  0.40040  0.31330  1.0000 -0.1001355717
C   C328      1.0  0.58710  0.00480  0.18670  1.0000 -0.1001355717
C   C329      1.0  0.41770  0.91290  0.09960  1.0000 -0.1001355717
C   C330      1.0  0.08230  0.18190  0.49520  1.0000 -0.1001355717
C   C331      1.0  0.31330  0.31810  0.40040  1.0000 -0.1001355717
C   C332      1.0  0.18670  0.58710  0.00480  1.0000 -0.1001355717
C   C333      1.0  0.09960  0.41770  0.91290  1.0000 -0.1001355717
C   C334      1.0  0.49520  0.08230  0.18190  1.0000 -0.1001355717
C   C335      1.0  0.40040  0.31330  0.31810  1.0000 -0.1001355717
C   C336      1.0  0.00480  0.18670  0.58710  1.0000 -0.1001355717
C   C337      1.0  0.07869  0.91864  0.60595  1.0000 -0.011056265
C   C338      1.0  0.81269  0.47274  0.89405  1.0000 -0.011056265
C   C339      1.0  0.68731  0.58136  0.66005  1.0000 -0.011056265
C   C340      1.0  0.42131  0.02726  0.83995  1.0000 -0.011056265
C   C341      1.0  0.60595  0.07869  0.91864  1.0000 -0.011056265
C   C342      1.0  0.89405  0.81269  0.47274  1.0000 -0.011056265
C   C343      1.0  0.66005  0.68731  0.58136  1.0000 -0.011056265
C   C344      1.0  0.83995  0.42131  0.02726  1.0000 -0.011056265
C   C345      1.0  0.91864  0.60595  0.07869  1.0000 -0.011056265
C   C346      1.0  0.47274  0.89405  0.81269  1.0000 -0.011056265
C   C347      1.0  0.58136  0.66005  0.68731  1.0000 -0.011056265
C   C348      1.0  0.02726  0.83995  0.42131  1.0000 -0.011056265
C   C349      1.0  0.92131  0.08136  0.39405  1.0000 -0.011056265
C   C350      1.0  0.18731  0.52726  0.10595  1.0000 -0.011056265
C   C351      1.0  0.31269  0.41864  0.33995  1.0000 -0.011056265
C   C352      1.0  0.57869  0.97274  0.16005  1.0000 -0.011056265
C   C353      1.0  0.39405  0.92131  0.08136  1.0000 -0.011056265
C   C354      1.0  0.10595  0.18731  0.52726  1.0000 -0.011056265
C   C355      1.0  0.33995  0.31269  0.41864  1.0000 -0.011056265
C   C356      1.0  0.16005  0.57869  0.97274  1.0000 -0.011056265
C   C357      1.0  0.08136  0.39405  0.92131  1.0000 -0.011056265
C   C358      1.0  0.52726  0.10595  0.18731  1.0000 -0.011056265
C   C359      1.0  0.41864  0.33995  0.31269  1.0000 -0.011056265
C   C360      1.0  0.97274  0.16005  0.57869  1.0000 -0.011056265
C   C361      1.0  0.05162  0.89792  0.61350  1.0000 0.6092052144
C   C362      1.0  0.78442  0.43812  0.88650  1.0000 0.6092052144
C   C363      1.0  0.71558  0.60208  0.65370  1.0000 0.6092052144
C   C364      1.0  0.44838  0.06188  0.84630  1.0000 0.6092052144
C   C365      1.0  0.61350  0.05162  0.89792  1.0000 0.6092052144
C   C366      1.0  0.88650  0.78442  0.43812  1.0000 0.6092052144
C   C367      1.0  0.65370  0.71558  0.60208  1.0000 0.6092052144
C   C368      1.0  0.84630  0.44838  0.06188  1.0000 0.6092052144
C   C369      1.0  0.89792  0.61350  0.05162  1.0000 0.6092052144
C   C370      1.0  0.43812  0.88650  0.78442  1.0000 0.6092052144
C   C371      1.0  0.60208  0.65370  0.71558  1.0000 0.6092052144
C   C372      1.0  0.06188  0.84630  0.44838  1.0000 0.6092052144
C   C373      1.0  0.94838  0.10208  0.38650  1.0000 0.6092052144
C   C374      1.0  0.21558  0.56188  0.11350  1.0000 0.6092052144
C   C375      1.0  0.28442  0.39792  0.34630  1.0000 0.6092052144
C   C376      1.0  0.55162  0.93812  0.15370  1.0000 0.6092052144
C   C377      1.0  0.38650  0.94838  0.10208  1.0000 0.6092052144
C   C378      1.0  0.11350  0.21558  0.56188  1.0000 0.6092052144
C   C379      1.0  0.34630  0.28442  0.39792  1.0000 0.6092052144
C   C380      1.0  0.15370  0.55162  0.93812  1.0000 0.6092052144
C   C381      1.0  0.10208  0.38650  0.94838  1.0000 0.6092052144
C   C382      1.0  0.56188  0.11350  0.21558  1.0000 0.6092052144
C   C383      1.0  0.39792  0.34630  0.28442  1.0000 0.6092052144
C   C384      1.0  0.93812  0.15370  0.55162  1.0000 0.6092052144
C   C385      1.0  0.28042  0.05371  0.62235  1.0000 0.6092052144
C   C386      1.0  0.93136  0.65807  0.87765  1.0000 0.6092052144
C   C387      1.0  0.56864  0.44629  0.72671  1.0000 0.6092052144
C   C388      1.0  0.21958  0.84193  0.77329  1.0000 0.6092052144
C   C389      1.0  0.62235  0.28042  0.05371  1.0000 0.6092052144
C   C390      1.0  0.87765  0.93136  0.65807  1.0000 0.6092052144
C   C391      1.0  0.72671  0.56864  0.44629  1.0000 0.6092052144
C   C392      1.0  0.77329  0.21958  0.84193  1.0000 0.6092052144
C   C393      1.0  0.05371  0.62235  0.28042  1.0000 0.6092052144
C   C394      1.0  0.65807  0.87765  0.93136  1.0000 0.6092052144
C   C395      1.0  0.44629  0.72671  0.56864  1.0000 0.6092052144
C   C396      1.0  0.84193  0.77329  0.21958  1.0000 0.6092052144
C   C397      1.0  0.71958  0.94629  0.37765  1.0000 0.6092052144
C   C398      1.0  0.06864  0.34193  0.12235  1.0000 0.6092052144
C   C399      1.0  0.43136  0.55371  0.27329  1.0000 0.6092052144
C   C400      1.0  0.78042  0.15807  0.22671  1.0000 0.6092052144
C   C401      1.0  0.37765  0.71958  0.94629  1.0000 0.6092052144
C   C402      1.0  0.12235  0.06864  0.34193  1.0000 0.6092052144
C   C403      1.0  0.27329  0.43136  0.55371  1.0000 0.6092052144
C   C404      1.0  0.22671  0.78042  0.15807  1.0000 0.6092052144
C   C405      1.0  0.94629  0.37765  0.71958  1.0000 0.6092052144
C   C406      1.0  0.34193  0.12235  0.06864  1.0000 0.6092052144
C   C407      1.0  0.55371  0.27329  0.43136  1.0000 0.6092052144
C   C408      1.0  0.15807  0.22671  0.78042  1.0000 0.6092052144
C   C409      1.0  0.28020  0.01916  0.61628  1.0000 -0.011056265
C   C410      1.0  0.90288  0.66392  0.88372  1.0000 -0.011056265
C   C411      1.0  0.59712  0.48084  0.76104  1.0000 -0.011056265
C   C412      1.0  0.21980  0.83608  0.73896  1.0000 -0.011056265
C   C413      1.0  0.61628  0.28020  0.01916  1.0000 -0.011056265
C   C414      1.0  0.88372  0.90288  0.66392  1.0000 -0.011056265
C   C415      1.0  0.76104  0.59712  0.48084  1.0000 -0.011056265
C   C416      1.0  0.73896  0.21980  0.83608  1.0000 -0.011056265
C   C417      1.0  0.01916  0.61628  0.28020  1.0000 -0.011056265
C   C418      1.0  0.66392  0.88372  0.90288  1.0000 -0.011056265
C   C419      1.0  0.48084  0.76104  0.59712  1.0000 -0.011056265
C   C420      1.0  0.83608  0.73896  0.21980  1.0000 -0.011056265
C   C421      1.0  0.71980  0.98084  0.38372  1.0000 -0.011056265
C   C422      1.0  0.09712  0.33608  0.11628  1.0000 -0.011056265
C   C423      1.0  0.40288  0.51916  0.23896  1.0000 -0.011056265
C   C424      1.0  0.78020  0.16392  0.26104  1.0000 -0.011056265
C   C425      1.0  0.38372  0.71980  0.98084  1.0000 -0.011056265
C   C426      1.0  0.11628  0.09712  0.33608  1.0000 -0.011056265
C   C427      1.0  0.23896  0.40288  0.51916  1.0000 -0.011056265
C   C428      1.0  0.26104  0.78020  0.16392  1.0000 -0.011056265
C   C429      1.0  0.98084  0.38372  0.71980  1.0000 -0.011056265
C   C430      1.0  0.33608  0.11628  0.09712  1.0000 -0.011056265
C   C431      1.0  0.51916  0.23896  0.40288  1.0000 -0.011056265
C   C432      1.0  0.16392  0.26104  0.78020  1.0000 -0.011056265
C   C433      1.0  0.25132  0.98693  0.58657  1.0000 -0.1001355717
C   C434      1.0  0.90036  0.66475  0.91343  1.0000 -0.1001355717
C   C435      1.0  0.59964  0.51307  0.76439  1.0000 -0.1001355717
C   C436      1.0  0.24868  0.83525  0.73561  1.0000 -0.1001355717
C   C437      1.0  0.58657  0.25132  0.98693  1.0000 -0.1001355717
C   C438      1.0  0.91343  0.90036  0.66475  1.0000 -0.1001355717
C   C439      1.0  0.76439  0.59964  0.51307  1.0000 -0.1001355717
C   C440      1.0  0.73561  0.24868  0.83525  1.0000 -0.1001355717
C   C441      1.0  0.98693  0.58657  0.25132  1.0000 -0.1001355717
C   C442      1.0  0.66475  0.91343  0.90036  1.0000 -0.1001355717
C   C443      1.0  0.51307  0.76439  0.59964  1.0000 -0.1001355717
C   C444      1.0  0.83525  0.73561  0.24868  1.0000 -0.1001355717
C   C445      1.0  0.74868  0.01307  0.41343  1.0000 -0.1001355717
C   C446      1.0  0.09964  0.33525  0.08657  1.0000 -0.1001355717
C   C447      1.0  0.40036  0.48693  0.23561  1.0000 -0.1001355717
C   C448      1.0  0.75132  0.16475  0.26439  1.0000 -0.1001355717
C   C449      1.0  0.41343  0.74868  0.01307  1.0000 -0.1001355717
C   C450      1.0  0.08657  0.09964  0.33525  1.0000 -0.1001355717
C   C451      1.0  0.23561  0.40036  0.48693  1.0000 -0.1001355717
C   C452      1.0  0.26439  0.75132  0.16475  1.0000 -0.1001355717
C   C453      1.0  0.01307  0.41343  0.74868  1.0000 -0.1001355717
C   C454      1.0  0.33525  0.08657  0.09964  1.0000 -0.1001355717
C   C455      1.0  0.48693  0.23561  0.40036  1.0000 -0.1001355717
C   C456      1.0  0.16475  0.26439  0.75132  1.0000 -0.1001355717
C   C457      1.0  0.25026  0.95510  0.58338  1.0000 -0.011056265
C   C458      1.0  0.87172  0.66688  0.91662  1.0000 -0.011056265
C   C459      1.0  0.62828  0.54490  0.79516  1.0000 -0.011056265
C   C460      1.0  0.24974  0.83312  0.70484  1.0000 -0.011056265
C   C461      1.0  0.58338  0.25026  0.95510  1.0000 -0.011056265
C   C462      1.0  0.91662  0.87172  0.66688  1.0000 -0.011056265
C   C463      1.0  0.79516  0.62828  0.54490  1.0000 -0.011056265
C   C464      1.0  0.70484  0.24974  0.83312  1.0000 -0.011056265
C   C465      1.0  0.95510  0.58338  0.25026  1.0000 -0.011056265
C   C466      1.0  0.66688  0.91662  0.87172  1.0000 -0.011056265
C   C467      1.0  0.54490  0.79516  0.62828  1.0000 -0.011056265
C   C468      1.0  0.83312  0.70484  0.24974  1.0000 -0.011056265
C   C469      1.0  0.74974  0.04490  0.41662  1.0000 -0.011056265
C   C470      1.0  0.12828  0.33312  0.08338  1.0000 -0.011056265
C   C471      1.0  0.37172  0.45510  0.20484  1.0000 -0.011056265
C   C472      1.0  0.75026  0.16688  0.29516  1.0000 -0.011056265
C   C473      1.0  0.41662  0.74974  0.04490  1.0000 -0.011056265
C   C474      1.0  0.08338  0.12828  0.33312  1.0000 -0.011056265
C   C475      1.0  0.20484  0.37172  0.45510  1.0000 -0.011056265
C   C476      1.0  0.29516  0.75026  0.16688  1.0000 -0.011056265
C   C477      1.0  0.04490  0.41662  0.74974  1.0000 -0.011056265
C   C478      1.0  0.33312  0.08338  0.12828  1.0000 -0.011056265
C   C479      1.0  0.45510  0.20484  0.37172  1.0000 -0.011056265
C   C480      1.0  0.16688  0.29516  0.75026  1.0000 -0.011056265
C   C481      1.0  0.21800  0.91978  0.55320  1.0000 0.6092052144
C   C482      1.0  0.86658  0.66480  0.94680  1.0000 0.6092052144
C   C483      1.0  0.63342  0.58022  0.79822  1.0000 0.6092052144
C   C484      1.0  0.28200  0.83520  0.70178  1.0000 0.6092052144
C   C485      1.0  0.55320  0.21800  0.91978  1.0000 0.6092052144
C   C486      1.0  0.94680  0.86658  0.66480  1.0000 0.6092052144
C   C487      1.0  0.79822  0.63342  0.58022  1.0000 0.6092052144
C   C488      1.0  0.70178  0.28200  0.83520  1.0000 0.6092052144
C   C489      1.0  0.91978  0.55320  0.21800  1.0000 0.6092052144
C   C490      1.0  0.66480  0.94680  0.86658  1.0000 0.6092052144
C   C491      1.0  0.58022  0.79822  0.63342  1.0000 0.6092052144
C   C492      1.0  0.83520  0.70178  0.28200  1.0000 0.6092052144
C   C493      1.0  0.78200  0.08022  0.44680  1.0000 0.6092052144
C   C494      1.0  0.13342  0.33520  0.05320  1.0000 0.6092052144
C   C495      1.0  0.36658  0.41978  0.20178  1.0000 0.6092052144
C   C496      1.0  0.71800  0.16480  0.29822  1.0000 0.6092052144
C   C497      1.0  0.44680  0.78200  0.08022  1.0000 0.6092052144
C   C498      1.0  0.05320  0.13342  0.33520  1.0000 0.6092052144
C   C499      1.0  0.20178  0.36658  0.41978  1.0000 0.6092052144
C   C500      1.0  0.29822  0.71800  0.16480  1.0000 0.6092052144
C   C501      1.0  0.08022  0.44680  0.78200  1.0000 0.6092052144
C   C502      1.0  0.33520  0.05320  0.13342  1.0000 0.6092052144
C   C503      1.0  0.41978  0.20178  0.36658  1.0000 0.6092052144
C   C504      1.0  0.16480  0.29822  0.71800  1.0000 0.6092052144
C   C505      1.0  0.27837  0.95580  0.60835  1.0000 -0.1321936653
C   C506      1.0  0.84745  0.67002  0.89165  1.0000 -0.1321936653
C   C507      1.0  0.65255  0.54420  0.82257  1.0000 -0.1321936653
C   C508      1.0  0.22163  0.82998  0.67743  1.0000 -0.1321936653
C   C509      1.0  0.60835  0.27837  0.95580  1.0000 -0.1321936653
C   C510      1.0  0.89165  0.84745  0.67002  1.0000 -0.1321936653
C   C511      1.0  0.82257  0.65255  0.54420  1.0000 -0.1321936653
C   C512      1.0  0.67743  0.22163  0.82998  1.0000 -0.1321936653
C   C513      1.0  0.95580  0.60835  0.27837  1.0000 -0.1321936653
C   C514      1.0  0.67002  0.89165  0.84745  1.0000 -0.1321936653
C   C515      1.0  0.54420  0.82257  0.65255  1.0000 -0.1321936653
C   C516      1.0  0.82998  0.67743  0.22163  1.0000 -0.1321936653
C   C517      1.0  0.72163  0.04420  0.39165  1.0000 -0.1321936653
C   C518      1.0  0.15255  0.32998  0.10835  1.0000 -0.1321936653
C   C519      1.0  0.34745  0.45580  0.17743  1.0000 -0.1321936653
C   C520      1.0  0.77837  0.17002  0.32257  1.0000 -0.1321936653
C   C521      1.0  0.39165  0.72163  0.04420  1.0000 -0.1321936653
C   C522      1.0  0.10835  0.15255  0.32998  1.0000 -0.1321936653
C   C523      1.0  0.17743  0.34745  0.45580  1.0000 -0.1321936653
C   C524      1.0  0.32257  0.77837  0.17002  1.0000 -0.1321936653
C   C525      1.0  0.04420  0.39165  0.72163  1.0000 -0.1321936653
C   C526      1.0  0.32998  0.10835  0.15255  1.0000 -0.1321936653
C   C527      1.0  0.45580  0.17743  0.34745  1.0000 -0.1321936653
C   C528      1.0  0.17002  0.32257  0.77837  1.0000 -0.1321936653
C   C529      1.0  0.30808  0.01969  0.64171  1.0000 -0.1390076974
C   C530      1.0  0.87798  0.66637  0.85829  1.0000 -0.1390076974
C   C531      1.0  0.62202  0.48031  0.78839  1.0000 -0.1390076974
C   C532      1.0  0.19192  0.83363  0.71161  1.0000 -0.1390076974
C   C533      1.0  0.64171  0.30808  0.01969  1.0000 -0.1390076974
C   C534      1.0  0.85829  0.87798  0.66637  1.0000 -0.1390076974
C   C535      1.0  0.78839  0.62202  0.48031  1.0000 -0.1390076974
C   C536      1.0  0.71161  0.19192  0.83363  1.0000 -0.1390076974
C   C537      1.0  0.01969  0.64171  0.30808  1.0000 -0.1390076974
C   C538      1.0  0.66637  0.85829  0.87798  1.0000 -0.1390076974
C   C539      1.0  0.48031  0.78839  0.62202  1.0000 -0.1390076974
C   C540      1.0  0.83363  0.71161  0.19192  1.0000 -0.1390076974
C   C541      1.0  0.69192  0.98031  0.35829  1.0000 -0.1390076974
C   C542      1.0  0.12202  0.33363  0.14171  1.0000 -0.1390076974
C   C543      1.0  0.37798  0.51969  0.21161  1.0000 -0.1390076974
C   C544      1.0  0.80808  0.16637  0.28839  1.0000 -0.1390076974
C   C545      1.0  0.35829  0.69192  0.98031  1.0000 -0.1390076974
C   C546      1.0  0.14171  0.12202  0.33363  1.0000 -0.1390076974
C   C547      1.0  0.21161  0.37798  0.51969  1.0000 -0.1390076974
C   C548      1.0  0.28839  0.80808  0.16637  1.0000 -0.1390076974
C   C549      1.0  0.98031  0.35829  0.69192  1.0000 -0.1390076974
C   C550      1.0  0.33363  0.14171  0.12202  1.0000 -0.1390076974
C   C551      1.0  0.51969  0.21161  0.37798  1.0000 -0.1390076974
C   C552      1.0  0.16637  0.28839  0.80808  1.0000 -0.1390076974
C   C553      1.0  0.30754  0.98824  0.63770  1.0000 0.0797482219
C   C554      1.0  0.85054  0.66984  0.86230  1.0000 0.0797482219
C   C555      1.0  0.64946  0.51176  0.81930  1.0000 0.0797482219
C   C556      1.0  0.19246  0.83016  0.68070  1.0000 0.0797482219
C   C557      1.0  0.63770  0.30754  0.98824  1.0000 0.0797482219
C   C558      1.0  0.86230  0.85054  0.66984  1.0000 0.0797482219
C   C559      1.0  0.81930  0.64946  0.51176  1.0000 0.0797482219
C   C560      1.0  0.68070  0.19246  0.83016  1.0000 0.0797482219
C   C561      1.0  0.98824  0.63770  0.30754  1.0000 0.0797482219
C   C562      1.0  0.66984  0.86230  0.85054  1.0000 0.0797482219
C   C563      1.0  0.51176  0.81930  0.64946  1.0000 0.0797482219
C   C564      1.0  0.83016  0.68070  0.19246  1.0000 0.0797482219
C   C565      1.0  0.69246  0.01176  0.36230  1.0000 0.0797482219
C   C566      1.0  0.14946  0.33016  0.13770  1.0000 0.0797482219
C   C567      1.0  0.35054  0.48824  0.18070  1.0000 0.0797482219
C   C568      1.0  0.80754  0.16984  0.31930  1.0000 0.0797482219
C   C569      1.0  0.36230  0.69246  0.01176  1.0000 0.0797482219
C   C570      1.0  0.13770  0.14946  0.33016  1.0000 0.0797482219
C   C571      1.0  0.18070  0.35054  0.48824  1.0000 0.0797482219
C   C572      1.0  0.31930  0.80754  0.16984  1.0000 0.0797482219
C   C573      1.0  0.01176  0.36230  0.69246  1.0000 0.0797482219
C   C574      1.0  0.33016  0.13770  0.14946  1.0000 0.0797482219
C   C575      1.0  0.48824  0.18070  0.35054  1.0000 0.0797482219
C   C576      1.0  0.16984  0.31930  0.80754  1.0000 0.0797482219
C   C577      1.0  0.33813  0.98841  0.66490  1.0000 0.0797482219
C   C578      1.0  0.82351  0.67323  0.83510  1.0000 0.0797482219
C   C579      1.0  0.67649  0.51159  0.84972  1.0000 0.0797482219
C   C580      1.0  0.16187  0.82677  0.65028  1.0000 0.0797482219
C   C581      1.0  0.66490  0.33813  0.98841  1.0000 0.0797482219
C   C582      1.0  0.83510  0.82351  0.67323  1.0000 0.0797482219
C   C583      1.0  0.84972  0.67649  0.51159  1.0000 0.0797482219
C   C584      1.0  0.65028  0.16187  0.82677  1.0000 0.0797482219
C   C585      1.0  0.98841  0.66490  0.33813  1.0000 0.0797482219
C   C586      1.0  0.67323  0.83510  0.82351  1.0000 0.0797482219
C   C587      1.0  0.51159  0.84972  0.67649  1.0000 0.0797482219
C   C588      1.0  0.82677  0.65028  0.16187  1.0000 0.0797482219
C   C589      1.0  0.66187  0.01159  0.33510  1.0000 0.0797482219
C   C590      1.0  0.17649  0.32677  0.16490  1.0000 0.0797482219
C   C591      1.0  0.32351  0.48841  0.15028  1.0000 0.0797482219
C   C592      1.0  0.83813  0.17323  0.34972  1.0000 0.0797482219
C   C593      1.0  0.33510  0.66187  0.01159  1.0000 0.0797482219
C   C594      1.0  0.16490  0.17649  0.32677  1.0000 0.0797482219
C   C595      1.0  0.15028  0.32351  0.48841  1.0000 0.0797482219
C   C596      1.0  0.34972  0.83813  0.17323  1.0000 0.0797482219
C   C597      1.0  0.01159  0.33510  0.66187  1.0000 0.0797482219
C   C598      1.0  0.32677  0.16490  0.17649  1.0000 0.0797482219
C   C599      1.0  0.48841  0.15028  0.32351  1.0000 0.0797482219
C   C600      1.0  0.17323  0.34972  0.83813  1.0000 0.0797482219
C   C601      1.0  0.33795  0.95674  0.66079  1.0000 -0.1390076974
C   C602      1.0  0.79595  0.67716  0.83921  1.0000 -0.1390076974
C   C603      1.0  0.70405  0.54326  0.88121  1.0000 -0.1321936653
C   C604      1.0  0.16205  0.82284  0.61879  1.0000 -0.1321936653
C   C605      1.0  0.66079  0.33795  0.95674  1.0000 -0.1321936653
C   C606      1.0  0.83921  0.79595  0.67716  1.0000 -0.1390076974
C   C607      1.0  0.88121  0.70405  0.54326  1.0000 -0.1390076974
C   C608      1.0  0.61879  0.16205  0.82284  1.0000 -0.1321936653
C   C609      1.0  0.95674  0.66079  0.33795  1.0000 -0.1321936653
C   C610      1.0  0.67716  0.83921  0.79595  1.0000 -0.1321936653
C   C611      1.0  0.54326  0.88121  0.70405  1.0000 -0.1321936653
C   C612      1.0  0.82284  0.61879  0.16205  1.0000 -0.1390076974
C   C613      1.0  0.66205  0.04326  0.33921  1.0000 -0.1390076974
C   C614      1.0  0.20405  0.32284  0.16079  1.0000 -0.1390076974
C   C615      1.0  0.29595  0.45674  0.11879  1.0000 -0.1390076974
C   C616      1.0  0.83795  0.17716  0.38121  1.0000 -0.1321936653
C   C617      1.0  0.33921  0.66205  0.04326  1.0000 -0.1390076974
C   C618      1.0  0.16079  0.20405  0.32284  1.0000 -0.1390076974
C   C619      1.0  0.11879  0.29595  0.45674  1.0000 -0.1321936653
C   C620      1.0  0.38121  0.83795  0.17716  1.0000 -0.1390076974
C   C621      1.0  0.04326  0.33921  0.66205  1.0000 -0.1321936653
C   C622      1.0  0.32284  0.16079  0.20405  1.0000 -0.1321936653
C   C623      1.0  0.45674  0.11879  0.29595  1.0000 -0.1390076974
C   C624      1.0  0.17716  0.38121  0.83795  1.0000 -0.1321936653
C   C625      1.0  0.36631  0.95706  0.68563  1.0000 -0.011056265
C   C626      1.0  0.77143  0.68068  0.81437  1.0000 -0.011056265
C   C627      1.0  0.72857  0.54294  0.90925  1.0000 -0.011056265
C   C628      1.0  0.13369  0.81932  0.59075  1.0000 -0.011056265
C   C629      1.0  0.68563  0.36631  0.95706  1.0000 -0.011056265
C   C630      1.0  0.81437  0.77143  0.68068  1.0000 -0.011056265
C   C631      1.0  0.90925  0.72857  0.54294  1.0000 -0.011056265
C   C632      1.0  0.59075  0.13369  0.81932  1.0000 -0.011056265
C   C633      1.0  0.95706  0.68563  0.36631  1.0000 -0.011056265
C   C634      1.0  0.68068  0.81437  0.77143  1.0000 -0.011056265
C   C635      1.0  0.54294  0.90925  0.72857  1.0000 -0.011056265
C   C636      1.0  0.81932  0.59075  0.13369  1.0000 -0.011056265
C   C637      1.0  0.63369  0.04294  0.31437  1.0000 -0.011056265
C   C638      1.0  0.22857  0.31932  0.18563  1.0000 -0.011056265
C   C639      1.0  0.27143  0.45706  0.09075  1.0000 -0.011056265
C   C640      1.0  0.86631  0.18068  0.40925  1.0000 -0.011056265
C   C641      1.0  0.31437  0.63369  0.04294  1.0000 -0.011056265
C   C642      1.0  0.18563  0.22857  0.31932  1.0000 -0.011056265
C   C643      1.0  0.09075  0.27143  0.45706  1.0000 -0.011056265
C   C644      1.0  0.40925  0.86631  0.18068  1.0000 -0.011056265
C   C645      1.0  0.04294  0.31437  0.63369  1.0000 -0.011056265
C   C646      1.0  0.31932  0.18563  0.22857  1.0000 -0.011056265
C   C647      1.0  0.45706  0.09075  0.27143  1.0000 -0.011056265
C   C648      1.0  0.18068  0.40925  0.86631  1.0000 -0.011056265
C   C649      1.0  0.39509  0.98927  0.71496  1.0000 -0.1001355717
C   C650      1.0  0.77431  0.68013  0.78504  1.0000 -0.1001355717
C   C651      1.0  0.72569  0.51073  0.90582  1.0000 -0.1001355717
C   C652      1.0  0.10491  0.81987  0.59418  1.0000 -0.1001355717
C   C653      1.0  0.71496  0.39509  0.98927  1.0000 -0.1001355717
C   C654      1.0  0.78504  0.77431  0.68013  1.0000 -0.1001355717
C   C655      1.0  0.90582  0.72569  0.51073  1.0000 -0.1001355717
C   C656      1.0  0.59418  0.10491  0.81987  1.0000 -0.1001355717
C   C657      1.0  0.98927  0.71496  0.39509  1.0000 -0.1001355717
C   C658      1.0  0.68013  0.78504  0.77431  1.0000 -0.1001355717
C   C659      1.0  0.51073  0.90582  0.72569  1.0000 -0.1001355717
C   C660      1.0  0.81987  0.59418  0.10491  1.0000 -0.1001355717
C   C661      1.0  0.60491  0.01073  0.28504  1.0000 -0.1001355717
C   C662      1.0  0.22569  0.31987  0.21496  1.0000 -0.1001355717
C   C663      1.0  0.27431  0.48927  0.09418  1.0000 -0.1001355717
C   C664      1.0  0.89509  0.18013  0.40582  1.0000 -0.1001355717
C   C665      1.0  0.28504  0.60491  0.01073  1.0000 -0.1001355717
C   C666      1.0  0.21496  0.22569  0.31987  1.0000 -0.1001355717
C   C667      1.0  0.09418  0.27431  0.48927  1.0000 -0.1001355717
C   C668      1.0  0.40582  0.89509  0.18013  1.0000 -0.1001355717
C   C669      1.0  0.01073  0.28504  0.60491  1.0000 -0.1001355717
C   C670      1.0  0.31987  0.21496  0.22569  1.0000 -0.1001355717
C   C671      1.0  0.48927  0.09418  0.27431  1.0000 -0.1001355717
C   C672      1.0  0.18013  0.40582  0.89509  1.0000 -0.1001355717
C   C673      1.0  0.39451  0.02060  0.72031  1.0000 -0.0206068733
C   C674      1.0  0.80029  0.67420  0.77969  1.0000 -0.0206068733
C   C675      1.0  0.69971  0.47940  0.87391  1.0000 -0.0206068733
C   C676      1.0  0.10549  0.82580  0.62609  1.0000 -0.0206068733
C   C677      1.0  0.72031  0.39451  0.02060  1.0000 -0.0206068733
C   C678      1.0  0.77969  0.80029  0.67420  1.0000 -0.0206068733
C   C679      1.0  0.87391  0.69971  0.47940  1.0000 -0.0206068733
C   C680      1.0  0.62609  0.10549  0.82580  1.0000 -0.0206068733
C   C681      1.0  0.02060  0.72031  0.39451  1.0000 -0.0206068733
C   C682      1.0  0.67420  0.77969  0.80029  1.0000 -0.0206068733
C   C683      1.0  0.47940  0.87391  0.69971  1.0000 -0.0206068733
C   C684      1.0  0.82580  0.62609  0.10549  1.0000 -0.0206068733
C   C685      1.0  0.60549  0.97940  0.27969  1.0000 -0.0206068733
C   C686      1.0  0.19971  0.32580  0.22031  1.0000 -0.0206068733
C   C687      1.0  0.30029  0.52060  0.12609  1.0000 -0.0206068733
C   C688      1.0  0.89451  0.17420  0.37391  1.0000 -0.0206068733
C   C689      1.0  0.27969  0.60549  0.97940  1.0000 -0.0206068733
C   C690      1.0  0.22031  0.19971  0.32580  1.0000 -0.0206068733
C   C691      1.0  0.12609  0.30029  0.52060  1.0000 -0.0206068733
C   C692      1.0  0.37391  0.89451  0.17420  1.0000 -0.0206068733
C   C693      1.0  0.97940  0.27969  0.60549  1.0000 -0.0206068733
C   C694      1.0  0.32580  0.22031  0.19971  1.0000 -0.0206068733
C   C695      1.0  0.52060  0.12609  0.30029  1.0000 -0.0206068733
C   C696      1.0  0.17420  0.37391  0.89451  1.0000 -0.0206068733
C   C697      1.0  0.42320  0.05480  0.75400  1.0000 0.6006200458
C   C698      1.0  0.80080  0.66920  0.74600  1.0000 0.6006200458
C   C699      1.0  0.69920  0.44520  0.86840  1.0000 0.6006200458
C   C700      1.0  0.07680  0.83080  0.63160  1.0000 0.6006200458
C   C701      1.0  0.75400  0.42320  0.05480  1.0000 0.6006200458
C   C702      1.0  0.74600  0.80080  0.66920  1.0000 0.6006200458
C   C703      1.0  0.86840  0.69920  0.44520  1.0000 0.6006200458
C   C704      1.0  0.63160  0.07680  0.83080  1.0000 0.6006200458
C   C705      1.0  0.05480  0.75400  0.42320  1.0000 0.6006200458
C   C706      1.0  0.66920  0.74600  0.80080  1.0000 0.6006200458
C   C707      1.0  0.44520  0.86840  0.69920  1.0000 0.6006200458
C   C708      1.0  0.83080  0.63160  0.07680  1.0000 0.6006200458
C   C709      1.0  0.57680  0.94520  0.24600  1.0000 0.6006200458
C   C710      1.0  0.19920  0.33080  0.25400  1.0000 0.6006200458
C   C711      1.0  0.30080  0.55480  0.13160  1.0000 0.6006200458
C   C712      1.0  0.92320  0.16920  0.36840  1.0000 0.6006200458
C   C713      1.0  0.24600  0.57680  0.94520  1.0000 0.6006200458
C   C714      1.0  0.25400  0.19920  0.33080  1.0000 0.6006200458
C   C715      1.0  0.13160  0.30080  0.55480  1.0000 0.6006200458
C   C716      1.0  0.36840  0.92320  0.16920  1.0000 0.6006200458
C   C717      1.0  0.94520  0.24600  0.57680  1.0000 0.6006200458
C   C718      1.0  0.33080  0.25400  0.19920  1.0000 0.6006200458
C   C719      1.0  0.55480  0.13160  0.30080  1.0000 0.6006200458
C   C720      1.0  0.16920  0.36840  0.92320  1.0000 0.6006200458
C   C721      1.0  0.36654  0.02000  0.69594  1.0000 -0.1321936653
C   C722      1.0  0.82406  0.67060  0.80406  1.0000 -0.1321936653
C   C723      1.0  0.67594  0.48000  0.84654  1.0000 -0.1321936653
C   C724      1.0  0.13346  0.82940  0.65346  1.0000 -0.1321936653
C   C725      1.0  0.69594  0.36654  0.02000  1.0000 -0.1321936653
C   C726      1.0  0.80406  0.82406  0.67060  1.0000 -0.1321936653
C   C727      1.0  0.84654  0.67594  0.48000  1.0000 -0.1321936653
C   C728      1.0  0.65346  0.13346  0.82940  1.0000 -0.1321936653
C   C729      1.0  0.02000  0.69594  0.36654  1.0000 -0.1321936653
C   C730      1.0  0.67060  0.80406  0.82406  1.0000 -0.1321936653
C   C731      1.0  0.48000  0.84654  0.67594  1.0000 -0.1321936653
C   C732      1.0  0.82940  0.65346  0.13346  1.0000 -0.1321936653
C   C733      1.0  0.63346  0.98000  0.30406  1.0000 -0.1321936653
C   C734      1.0  0.17594  0.32940  0.19594  1.0000 -0.1321936653
C   C735      1.0  0.32406  0.52000  0.15346  1.0000 -0.1321936653
C   C736      1.0  0.86654  0.17060  0.34654  1.0000 -0.1321936653
C   C737      1.0  0.30406  0.63346  0.98000  1.0000 -0.1321936653
C   C738      1.0  0.19594  0.17594  0.32940  1.0000 -0.1321936653
C   C739      1.0  0.15346  0.32406  0.52000  1.0000 -0.1321936653
C   C740      1.0  0.34654  0.86654  0.17060  1.0000 -0.1321936653
C   C741      1.0  0.98000  0.30406  0.63346  1.0000 -0.1321936653
C   C742      1.0  0.32940  0.19594  0.17594  1.0000 -0.1321936653
C   C743      1.0  0.52000  0.15346  0.32406  1.0000 -0.1321936653
C   C744      1.0  0.17060  0.34654  0.86654  1.0000 -0.1321936653
C   C745      1.0  0.30150  0.13220  0.57170  1.0000 0.6006200458
C   C746      1.0  0.06050  0.72980  0.92830  1.0000 0.6006200458
C   C747      1.0  0.43950  0.36780  0.66930  1.0000 0.6006200458
C   C748      1.0  0.19850  0.77020  0.83070  1.0000 0.6006200458
C   C749      1.0  0.57170  0.30150  0.13220  1.0000 0.6006200458
C   C750      1.0  0.92830  0.06050  0.72980  1.0000 0.6006200458
C   C751      1.0  0.66930  0.43950  0.36780  1.0000 0.6006200458
C   C752      1.0  0.83070  0.19850  0.77020  1.0000 0.6006200458
C   C753      1.0  0.13220  0.57170  0.30150  1.0000 0.6006200458
C   C754      1.0  0.72980  0.92830  0.06050  1.0000 0.6006200458
C   C755      1.0  0.36780  0.66930  0.43950  1.0000 0.6006200458
C   C756      1.0  0.77020  0.83070  0.19850  1.0000 0.6006200458
C   C757      1.0  0.69850  0.86780  0.42830  1.0000 0.6006200458
C   C758      1.0  0.93950  0.27020  0.07170  1.0000 0.6006200458
C   C759      1.0  0.56050  0.63220  0.33070  1.0000 0.6006200458
C   C760      1.0  0.80150  0.22980  0.16930  1.0000 0.6006200458
C   C761      1.0  0.42830  0.69850  0.86780  1.0000 0.6006200458
C   C762      1.0  0.07170  0.93950  0.27020  1.0000 0.6006200458
C   C763      1.0  0.33070  0.56050  0.63220  1.0000 0.6006200458
C   C764      1.0  0.16930  0.80150  0.22980  1.0000 0.6006200458
C   C765      1.0  0.86780  0.42830  0.69850  1.0000 0.6006200458
C   C766      1.0  0.27020  0.07170  0.93950  1.0000 0.6006200458
C   C767      1.0  0.63220  0.33070  0.56050  1.0000 0.6006200458
C   C768      1.0  0.22980  0.16930  0.80150  1.0000 0.6006200458
C   C769      1.0  0.29840  0.12820  0.53640  1.0000 -0.0032749511
C   C770      1.0  0.09180  0.76200  0.96360  1.0000 -0.0032749511
C   C771      1.0  0.40820  0.37180  0.67020  1.0000 -0.0032749511
C   C772      1.0  0.20160  0.73800  0.82980  1.0000 -0.0032749511
C   C773      1.0  0.53640  0.29840  0.12820  1.0000 -0.0032749511
C   C774      1.0  0.96360  0.09180  0.76200  1.0000 -0.0032749511
C   C775      1.0  0.67020  0.40820  0.37180  1.0000 -0.0032749511
C   C776      1.0  0.82980  0.20160  0.73800  1.0000 -0.0032749511
C   C777      1.0  0.12820  0.53640  0.29840  1.0000 -0.0032749511
C   C778      1.0  0.76200  0.96360  0.09180  1.0000 -0.0032749511
C   C779      1.0  0.37180  0.67020  0.40820  1.0000 -0.0032749511
C   C780      1.0  0.73800  0.82980  0.20160  1.0000 -0.0032749511
C   C781      1.0  0.70160  0.87180  0.46360  1.0000 -0.0032749511
C   C782      1.0  0.90820  0.23800  0.03640  1.0000 -0.0032749511
C   C783      1.0  0.59180  0.62820  0.32980  1.0000 -0.0032749511
C   C784      1.0  0.79840  0.26200  0.17020  1.0000 -0.0032749511
C   C785      1.0  0.46360  0.70160  0.87180  1.0000 -0.0032749511
C   C786      1.0  0.03640  0.90820  0.23800  1.0000 -0.0032749511
C   C787      1.0  0.32980  0.59180  0.62820  1.0000 -0.0032749511
C   C788      1.0  0.17020  0.79840  0.26200  1.0000 -0.0032749511
C   C789      1.0  0.87180  0.46360  0.70160  1.0000 -0.0032749511
C   C790      1.0  0.23800  0.03640  0.90820  1.0000 -0.0032749511
C   C791      1.0  0.62820  0.32980  0.59180  1.0000 -0.0032749511
C   C792      1.0  0.26200  0.17020  0.79840  1.0000 -0.0032749511
C   C793      1.0  0.26812  0.09902  0.50470  1.0000 -0.109551457
C   C794      1.0  0.09432  0.76342  0.99530  1.0000 -0.109551457
C   C795      1.0  0.40568  0.40098  0.66910  1.0000 -0.109551457
C   C796      1.0  0.23188  0.73658  0.83090  1.0000 -0.109551457
C   C797      1.0  0.50470  0.26812  0.09902  1.0000 -0.109551457
C   C798      1.0  0.99530  0.09432  0.76342  1.0000 -0.109551457
C   C799      1.0  0.66910  0.40568  0.40098  1.0000 -0.109551457
C   C800      1.0  0.83090  0.23188  0.73658  1.0000 -0.109551457
C   C801      1.0  0.09902  0.50470  0.26812  1.0000 -0.109551457
C   C802      1.0  0.76342  0.99530  0.09432  1.0000 -0.109551457
C   C803      1.0  0.40098  0.66910  0.40568  1.0000 -0.109551457
C   C804      1.0  0.73658  0.83090  0.23188  1.0000 -0.109551457
C   C805      1.0  0.73188  0.90098  0.49530  1.0000 -0.109551457
C   C806      1.0  0.90568  0.23658  0.00470  1.0000 -0.109551457
C   C807      1.0  0.59432  0.59902  0.33090  1.0000 -0.109551457
C   C808      1.0  0.76812  0.26342  0.16910  1.0000 -0.109551457
C   C809      1.0  0.49530  0.73188  0.90098  1.0000 -0.109551457
C   C810      1.0  0.00470  0.90568  0.23658  1.0000 -0.109551457
C   C811      1.0  0.33090  0.59432  0.59902  1.0000 -0.109551457
C   C812      1.0  0.16910  0.76812  0.26342  1.0000 -0.109551457
C   C813      1.0  0.90098  0.49530  0.73188  1.0000 -0.109551457
C   C814      1.0  0.23658  0.00470  0.90568  1.0000 -0.109551457
C   C815      1.0  0.59902  0.33090  0.59432  1.0000 -0.109551457
C   C816      1.0  0.26342  0.16910  0.76812  1.0000 -0.109551457
C   C817      1.0  0.26283  0.09833  0.47250  1.0000 -0.0032749511
C   C818      1.0  0.12583  0.79033  0.02750  1.0000 -0.0032749511
C   C819      1.0  0.37417  0.40167  0.66450  1.0000 -0.0032749511
C   C820      1.0  0.23717  0.70967  0.83550  1.0000 -0.0032749511
C   C821      1.0  0.47250  0.26283  0.09833  1.0000 -0.0032749511
C   C822      1.0  0.02750  0.12583  0.79033  1.0000 -0.0032749511
C   C823      1.0  0.66450  0.37417  0.40167  1.0000 -0.0032749511
C   C824      1.0  0.83550  0.23717  0.70967  1.0000 -0.0032749511
C   C825      1.0  0.09833  0.47250  0.26283  1.0000 -0.0032749511
C   C826      1.0  0.79033  0.02750  0.12583  1.0000 -0.0032749511
C   C827      1.0  0.40167  0.66450  0.37417  1.0000 -0.0032749511
C   C828      1.0  0.70967  0.83550  0.23717  1.0000 -0.0032749511
C   C829      1.0  0.73717  0.90167  0.52750  1.0000 -0.0032749511
C   C830      1.0  0.87417  0.20967  0.97250  1.0000 -0.0032749511
C   C831      1.0  0.62583  0.59833  0.33550  1.0000 -0.0032749511
C   C832      1.0  0.76283  0.29033  0.16450  1.0000 -0.0032749511
C   C833      1.0  0.52750  0.73717  0.90167  1.0000 -0.0032749511
C   C834      1.0  0.97250  0.87417  0.20967  1.0000 -0.0032749511
C   C835      1.0  0.33550  0.62583  0.59833  1.0000 -0.0032749511
C   C836      1.0  0.16450  0.76283  0.29033  1.0000 -0.0032749511
C   C837      1.0  0.90167  0.52750  0.73717  1.0000 -0.0032749511
C   C838      1.0  0.20967  0.97250  0.87417  1.0000 -0.0032749511
C   C839      1.0  0.59833  0.33550  0.62583  1.0000 -0.0032749511
C   C840      1.0  0.29033  0.16450  0.76283  1.0000 -0.0032749511
C   C841      1.0  0.22865  0.06965  0.43800  1.0000 0.5829716432
C   C842      1.0  0.13165  0.79065  0.06200  1.0000 0.5829716432
C   C843      1.0  0.36835  0.43035  0.65900  1.0000 0.5829716432
C   C844      1.0  0.27135  0.70935  0.84100  1.0000 0.5829716432
C   C845      1.0  0.43800  0.22865  0.06965  1.0000 0.5829716432
C   C846      1.0  0.06200  0.13165  0.79065  1.0000 0.5829716432
C   C847      1.0  0.65900  0.36835  0.43035  1.0000 0.5829716432
C   C848      1.0  0.84100  0.27135  0.70935  1.0000 0.5829716432
C   C849      1.0  0.06965  0.43800  0.22865  1.0000 0.5829716432
C   C850      1.0  0.79065  0.06200  0.13165  1.0000 0.5829716432
C   C851      1.0  0.43035  0.65900  0.36835  1.0000 0.5829716432
C   C852      1.0  0.70935  0.84100  0.27135  1.0000 0.5829716432
C   C853      1.0  0.77135  0.93035  0.56200  1.0000 0.5829716432
C   C854      1.0  0.86835  0.20935  0.93800  1.0000 0.5829716432
C   C855      1.0  0.63165  0.56965  0.34100  1.0000 0.5829716432
C   C856      1.0  0.72865  0.29065  0.15900  1.0000 0.5829716432
C   C857      1.0  0.56200  0.77135  0.93035  1.0000 0.5829716432
C   C858      1.0  0.93800  0.86835  0.20935  1.0000 0.5829716432
C   C859      1.0  0.34100  0.63165  0.56965  1.0000 0.5829716432
C   C860      1.0  0.15900  0.72865  0.29065  1.0000 0.5829716432
C   C861      1.0  0.93035  0.56200  0.77135  1.0000 0.5829716432
C   C862      1.0  0.20935  0.93800  0.86835  1.0000 0.5829716432
C   C863      1.0  0.56965  0.34100  0.63165  1.0000 0.5829716432
C   C864      1.0  0.29065  0.15900  0.72865  1.0000 0.5829716432
C   C865      1.0  0.28885  0.12585  0.47280  1.0000 -0.1390076974
C   C866      1.0  0.15305  0.81605  0.02720  1.0000 -0.1390076974
C   C867      1.0  0.34695  0.37415  0.66300  1.0000 -0.1390076974
C   C868      1.0  0.21115  0.68395  0.83700  1.0000 -0.1390076974
C   C869      1.0  0.47280  0.28885  0.12585  1.0000 -0.1390076974
C   C870      1.0  0.02720  0.15305  0.81605  1.0000 -0.1390076974
C   C871      1.0  0.66300  0.34695  0.37415  1.0000 -0.1390076974
C   C872      1.0  0.83700  0.21115  0.68395  1.0000 -0.1390076974
C   C873      1.0  0.12585  0.47280  0.28885  1.0000 -0.1390076974
C   C874      1.0  0.81605  0.02720  0.15305  1.0000 -0.1390076974
C   C875      1.0  0.37415  0.66300  0.34695  1.0000 -0.1390076974
C   C876      1.0  0.68395  0.83700  0.21115  1.0000 -0.1390076974
C   C877      1.0  0.71115  0.87415  0.52720  1.0000 -0.1390076974
C   C878      1.0  0.84695  0.18395  0.97280  1.0000 -0.1390076974
C   C879      1.0  0.65305  0.62585  0.33700  1.0000 -0.1390076974
C   C880      1.0  0.78885  0.31605  0.16300  1.0000 -0.1390076974
C   C881      1.0  0.52720  0.71115  0.87415  1.0000 -0.1390076974
C   C882      1.0  0.97280  0.84695  0.18395  1.0000 -0.1390076974
C   C883      1.0  0.33700  0.65305  0.62585  1.0000 -0.1390076974
C   C884      1.0  0.16300  0.78885  0.31605  1.0000 -0.1390076974
C   C885      1.0  0.87415  0.52720  0.71115  1.0000 -0.1390076974
C   C886      1.0  0.18395  0.97280  0.84695  1.0000 -0.1390076974
C   C887      1.0  0.62585  0.33700  0.65305  1.0000 -0.1390076974
C   C888      1.0  0.31605  0.16300  0.78885  1.0000 -0.1390076974
C   C889      1.0  0.32400  0.15562  0.53598  1.0000 -0.1390076974
C   C890      1.0  0.11964  0.78802  0.96402  1.0000 -0.1390076974
C   C891      1.0  0.38036  0.34438  0.66838  1.0000 -0.1390076974
C   C892      1.0  0.17600  0.71198  0.83162  1.0000 -0.1390076974
C   C893      1.0  0.53598  0.32400  0.15562  1.0000 -0.1390076974
C   C894      1.0  0.96402  0.11964  0.78802  1.0000 -0.1390076974
C   C895      1.0  0.66838  0.38036  0.34438  1.0000 -0.1390076974
C   C896      1.0  0.83162  0.17600  0.71198  1.0000 -0.1390076974
C   C897      1.0  0.15562  0.53598  0.32400  1.0000 -0.1390076974
C   C898      1.0  0.78802  0.96402  0.11964  1.0000 -0.1390076974
C   C899      1.0  0.34438  0.66838  0.38036  1.0000 -0.1390076974
C   C900      1.0  0.71198  0.83162  0.17600  1.0000 -0.1390076974
C   C901      1.0  0.67600  0.84438  0.46402  1.0000 -0.1390076974
C   C902      1.0  0.88036  0.21198  0.03598  1.0000 -0.1390076974
C   C903      1.0  0.61964  0.65562  0.33162  1.0000 -0.1390076974
C   C904      1.0  0.82400  0.28802  0.16838  1.0000 -0.1390076974
C   C905      1.0  0.46402  0.67600  0.84438  1.0000 -0.1390076974
C   C906      1.0  0.03598  0.88036  0.21198  1.0000 -0.1390076974
C   C907      1.0  0.33162  0.61964  0.65562  1.0000 -0.1390076974
C   C908      1.0  0.16838  0.82400  0.28802  1.0000 -0.1390076974
C   C909      1.0  0.84438  0.46402  0.67600  1.0000 -0.1390076974
C   C910      1.0  0.21198  0.03598  0.88036  1.0000 -0.1390076974
C   C911      1.0  0.65562  0.33162  0.61964  1.0000 -0.1390076974
C   C912      1.0  0.28802  0.16838  0.82400  1.0000 -0.1390076974
C   C913      1.0  0.31996  0.15415  0.50421  1.0000 0.0730122226
C   C914      1.0  0.14994  0.81575  0.99579  1.0000 0.0730122226
C   C915      1.0  0.35006  0.34585  0.66581  1.0000 0.0730122226
C   C916      1.0  0.18004  0.68425  0.83419  1.0000 0.0730122226
C   C917      1.0  0.50421  0.31996  0.15415  1.0000 0.0730122226
C   C918      1.0  0.99579  0.14994  0.81575  1.0000 0.0730122226
C   C919      1.0  0.66581  0.35006  0.34585  1.0000 0.0730122226
C   C920      1.0  0.83419  0.18004  0.68425  1.0000 0.0730122226
C   C921      1.0  0.15415  0.50421  0.31996  1.0000 0.0730122226
C   C922      1.0  0.81575  0.99579  0.14994  1.0000 0.0730122226
C   C923      1.0  0.34585  0.66581  0.35006  1.0000 0.0730122226
C   C924      1.0  0.68425  0.83419  0.18004  1.0000 0.0730122226
C   C925      1.0  0.68004  0.84585  0.49579  1.0000 0.0730122226
C   C926      1.0  0.85006  0.18425  0.00421  1.0000 0.0730122226
C   C927      1.0  0.64994  0.65415  0.33419  1.0000 0.0730122226
C   C928      1.0  0.81996  0.31575  0.16581  1.0000 0.0730122226
C   C929      1.0  0.49579  0.68004  0.84585  1.0000 0.0730122226
C   C930      1.0  0.00421  0.85006  0.18425  1.0000 0.0730122226
C   C931      1.0  0.33419  0.64994  0.65415  1.0000 0.0730122226
C   C932      1.0  0.16581  0.81996  0.31575  1.0000 0.0730122226
C   C933      1.0  0.84585  0.49579  0.68004  1.0000 0.0730122226
C   C934      1.0  0.18425  0.00421  0.85006  1.0000 0.0730122226
C   C935      1.0  0.65415  0.33419  0.64994  1.0000 0.0730122226
C   C936      1.0  0.31575  0.16581  0.81996  1.0000 0.0730122226
C   C937      1.0  0.34732  0.18346  0.50326  1.0000 0.0797482219
C   C938      1.0  0.18020  0.84406  0.99674  1.0000 0.0797482219
C   C939      1.0  0.31980  0.31654  0.66386  1.0000 0.0797482219
C   C940      1.0  0.15268  0.65594  0.83614  1.0000 0.0797482219
C   C941      1.0  0.50326  0.34732  0.18346  1.0000 0.0797482219
C   C942      1.0  0.99674  0.18020  0.84406  1.0000 0.0797482219
C   C943      1.0  0.66386  0.31980  0.31654  1.0000 0.0797482219
C   C944      1.0  0.83614  0.15268  0.65594  1.0000 0.0797482219
C   C945      1.0  0.18346  0.50326  0.34732  1.0000 0.0797482219
C   C946      1.0  0.84406  0.99674  0.18020  1.0000 0.0797482219
C   C947      1.0  0.31654  0.66386  0.31980  1.0000 0.0797482219
C   C948      1.0  0.65594  0.83614  0.15268  1.0000 0.0797482219
C   C949      1.0  0.65268  0.81654  0.49674  1.0000 0.0797482219
C   C950      1.0  0.81980  0.15594  0.00326  1.0000 0.0797482219
C   C951      1.0  0.68020  0.68346  0.33614  1.0000 0.0797482219
C   C952      1.0  0.84732  0.34406  0.16386  1.0000 0.0797482219
C   C953      1.0  0.49674  0.65268  0.81654  1.0000 0.0797482219
C   C954      1.0  0.00326  0.81980  0.15594  1.0000 0.0797482219
C   C955      1.0  0.33614  0.68020  0.68346  1.0000 0.0797482219
C   C956      1.0  0.16386  0.84732  0.34406  1.0000 0.0797482219
C   C957      1.0  0.81654  0.49674  0.65268  1.0000 0.0797482219
C   C958      1.0  0.15594  0.00326  0.81980  1.0000 0.0797482219
C   C959      1.0  0.68346  0.33614  0.68020  1.0000 0.0797482219
C   C960      1.0  0.34406  0.16386  0.84732  1.0000 0.0797482219
C   C961      1.0  0.37857  0.21258  0.53445  1.0000 -0.1321936653
C   C962      1.0  0.17813  0.84412  0.96555  1.0000 -0.1321936653
C   C963      1.0  0.32187  0.28742  0.66599  1.0000 -0.1321936653
C   C964      1.0  0.12143  0.65588  0.83401  1.0000 -0.1321936653
C   C965      1.0  0.53445  0.37857  0.21258  1.0000 -0.1321936653
C   C966      1.0  0.96555  0.17813  0.84412  1.0000 -0.1321936653
C   C967      1.0  0.66599  0.32187  0.28742  1.0000 -0.1321936653
C   C968      1.0  0.83401  0.12143  0.65588  1.0000 -0.1321936653
C   C969      1.0  0.21258  0.53445  0.37857  1.0000 -0.1321936653
C   C970      1.0  0.84412  0.96555  0.17813  1.0000 -0.1321936653
C   C971      1.0  0.28742  0.66599  0.32187  1.0000 -0.1321936653
C   C972      1.0  0.65588  0.83401  0.12143  1.0000 -0.1321936653
C   C973      1.0  0.62143  0.78742  0.46555  1.0000 -0.1321936653
C   C974      1.0  0.82187  0.15588  0.03445  1.0000 -0.1321936653
C   C975      1.0  0.67813  0.71258  0.33401  1.0000 -0.1321936653
C   C976      1.0  0.87857  0.34412  0.16599  1.0000 -0.1321936653
C   C977      1.0  0.46555  0.62143  0.78742  1.0000 -0.1321936653
C   C978      1.0  0.03445  0.82187  0.15588  1.0000 -0.1321936653
C   C979      1.0  0.33401  0.67813  0.71258  1.0000 -0.1321936653
C   C980      1.0  0.16599  0.87857  0.34412  1.0000 -0.1321936653
C   C981      1.0  0.78742  0.46555  0.62143  1.0000 -0.1321936653
C   C982      1.0  0.15588  0.03445  0.82187  1.0000 -0.1321936653
C   C983      1.0  0.71258  0.33401  0.67813  1.0000 -0.1321936653
C   C984      1.0  0.34412  0.16599  0.87857  1.0000 -0.1321936653
C   C985      1.0  0.40348  0.23936  0.53356  1.0000 -0.0206068733
C   C986      1.0  0.20580  0.86992  0.96644  1.0000 -0.0206068733
C   C987      1.0  0.29420  0.26064  0.66412  1.0000 -0.0206068733
C   C988      1.0  0.09652  0.63008  0.83588  1.0000 -0.0206068733
C   C989      1.0  0.53356  0.40348  0.23936  1.0000 -0.0206068733
C   C990      1.0  0.96644  0.20580  0.86992  1.0000 -0.0206068733
C   C991      1.0  0.66412  0.29420  0.26064  1.0000 -0.0206068733
C   C992      1.0  0.83588  0.09652  0.63008  1.0000 -0.0206068733
C   C993      1.0  0.23936  0.53356  0.40348  1.0000 -0.0206068733
C   C994      1.0  0.86992  0.96644  0.20580  1.0000 -0.0206068733
C   C995      1.0  0.26064  0.66412  0.29420  1.0000 -0.0206068733
C   C996      1.0  0.63008  0.83588  0.09652  1.0000 -0.0206068733
C   C997      1.0  0.59652  0.76064  0.46644  1.0000 -0.0206068733
C   C998      1.0  0.79420  0.13008  0.03356  1.0000 -0.0206068733
C   C999      1.0  0.70580  0.73936  0.33588  1.0000 -0.0206068733
C   C1000     1.0  0.90348  0.36992  0.16412  1.0000 -0.0206068733
C   C1001     1.0  0.46644  0.59652  0.76064  1.0000 -0.0206068733
C   C1002     1.0  0.03356  0.79420  0.13008  1.0000 -0.0206068733
C   C1003     1.0  0.33588  0.70580  0.73936  1.0000 -0.0206068733
C   C1004     1.0  0.16412  0.90348  0.36992  1.0000 -0.0206068733
C   C1005     1.0  0.76064  0.46644  0.59652  1.0000 -0.0206068733
C   C1006     1.0  0.13008  0.03356  0.79420  1.0000 -0.0206068733
C   C1007     1.0  0.73936  0.33588  0.70580  1.0000 -0.0206068733
C   C1008     1.0  0.36992  0.16412  0.90348  1.0000 -0.0206068733
C   C1009     1.0  0.43494  0.27199  0.56735  1.0000 0.6092052144
C   C1010     1.0  0.20464  0.86759  0.93265  1.0000 0.6092052144
C   C1011     1.0  0.29536  0.22801  0.66295  1.0000 0.6092052144
C   C1012     1.0  0.06506  0.63241  0.83705  1.0000 0.6092052144
C   C1013     1.0  0.56735  0.43494  0.27199  1.0000 0.6092052144
C   C1014     1.0  0.93265  0.20464  0.86759  1.0000 0.6092052144
C   C1015     1.0  0.66295  0.29536  0.22801  1.0000 0.6092052144
C   C1016     1.0  0.83705  0.06506  0.63241  1.0000 0.6092052144
C   C1017     1.0  0.27199  0.56735  0.43494  1.0000 0.6092052144
C   C1018     1.0  0.86759  0.93265  0.20464  1.0000 0.6092052144
C   C1019     1.0  0.22801  0.66295  0.29536  1.0000 0.6092052144
C   C1020     1.0  0.63241  0.83705  0.06506  1.0000 0.6092052144
C   C1021     1.0  0.56506  0.72801  0.43265  1.0000 0.6092052144
C   C1022     1.0  0.79536  0.13241  0.06735  1.0000 0.6092052144
C   C1023     1.0  0.70464  0.77199  0.33705  1.0000 0.6092052144
C   C1024     1.0  0.93494  0.36759  0.16295  1.0000 0.6092052144
C   C1025     1.0  0.43265  0.56506  0.72801  1.0000 0.6092052144
C   C1026     1.0  0.06735  0.79536  0.13241  1.0000 0.6092052144
C   C1027     1.0  0.33705  0.70464  0.77199  1.0000 0.6092052144
C   C1028     1.0  0.16295  0.93494  0.36759  1.0000 0.6092052144
C   C1029     1.0  0.72801  0.43265  0.56506  1.0000 0.6092052144
C   C1030     1.0  0.13241  0.06735  0.79536  1.0000 0.6092052144
C   C1031     1.0  0.77199  0.33705  0.70464  1.0000 0.6092052144
C   C1032     1.0  0.36759  0.16295  0.93494  1.0000 0.6092052144
C   C1033     1.0  0.39795  0.23754  0.50119  1.0000 -0.1001355717
C   C1034     1.0  0.23635  0.89676  0.99881  1.0000 -0.1001355717
C   C1035     1.0  0.26365  0.26246  0.66041  1.0000 -0.1001355717
C   C1036     1.0  0.10205  0.60324  0.83959  1.0000 -0.1001355717
C   C1037     1.0  0.50119  0.39795  0.23754  1.0000 -0.1001355717
C   C1038     1.0  0.99881  0.23635  0.89676  1.0000 -0.1001355717
C   C1039     1.0  0.66041  0.26365  0.26246  1.0000 -0.1001355717
C   C1040     1.0  0.83959  0.10205  0.60324  1.0000 -0.1001355717
C   C1041     1.0  0.23754  0.50119  0.39795  1.0000 -0.1001355717
C   C1042     1.0  0.89676  0.99881  0.23635  1.0000 -0.1001355717
C   C1043     1.0  0.26246  0.66041  0.26365  1.0000 -0.1001355717
C   C1044     1.0  0.60324  0.83959  0.10205  1.0000 -0.1001355717
C   C1045     1.0  0.60205  0.76246  0.49881  1.0000 -0.1001355717
C   C1046     1.0  0.76365  0.10324  0.00119  1.0000 -0.1001355717
C   C1047     1.0  0.73635  0.73754  0.33959  1.0000 -0.1001355717
C   C1048     1.0  0.89795  0.39676  0.16041  1.0000 -0.1001355717
C   C1049     1.0  0.49881  0.60205  0.76246  1.0000 -0.1001355717
C   C1050     1.0  0.00119  0.76365  0.10324  1.0000 -0.1001355717
C   C1051     1.0  0.33959  0.73635  0.73754  1.0000 -0.1001355717
C   C1052     1.0  0.16041  0.89795  0.39676  1.0000 -0.1001355717
C   C1053     1.0  0.76246  0.49881  0.60205  1.0000 -0.1001355717
C   C1054     1.0  0.10324  0.00119  0.76365  1.0000 -0.1001355717
C   C1055     1.0  0.73754  0.33959  0.73635  1.0000 -0.1001355717
C   C1056     1.0  0.39676  0.16041  0.89795  1.0000 -0.1001355717
C   C1057     1.0  0.36584  0.20885  0.46977  1.0000 -0.0032749511
C   C1058     1.0  0.23908  0.89607  0.03023  1.0000 -0.0032749511
C   C1059     1.0  0.26092  0.29115  0.65699  1.0000 -0.0032749511
C   C1060     1.0  0.13416  0.60393  0.84301  1.0000 -0.0032749511
C   C1061     1.0  0.46977  0.36584  0.20885  1.0000 -0.0032749511
C   C1062     1.0  0.03023  0.23908  0.89607  1.0000 -0.0032749511
C   C1063     1.0  0.65699  0.26092  0.29115  1.0000 -0.0032749511
C   C1064     1.0  0.84301  0.13416  0.60393  1.0000 -0.0032749511
C   C1065     1.0  0.20885  0.46977  0.36584  1.0000 -0.0032749511
C   C1066     1.0  0.89607  0.03023  0.23908  1.0000 -0.0032749511
C   C1067     1.0  0.29115  0.65699  0.26092  1.0000 -0.0032749511
C   C1068     1.0  0.60393  0.84301  0.13416  1.0000 -0.0032749511
C   C1069     1.0  0.63416  0.79115  0.53023  1.0000 -0.0032749511
C   C1070     1.0  0.76092  0.10393  0.96977  1.0000 -0.0032749511
C   C1071     1.0  0.73908  0.70885  0.34301  1.0000 -0.011056265
C   C1072     1.0  0.86584  0.39607  0.15699  1.0000 -0.0032749511
C   C1073     1.0  0.53023  0.63416  0.79115  1.0000 -0.0032749511
C   C1074     1.0  0.96977  0.76092  0.10393  1.0000 -0.0032749511
C   C1075     1.0  0.34301  0.73908  0.70885  1.0000 -0.0032749511
C   C1076     1.0  0.15699  0.86584  0.39607  1.0000 -0.0032749511
C   C1077     1.0  0.79115  0.53023  0.63416  1.0000 -0.0032749511
C   C1078     1.0  0.10393  0.96977  0.76092  1.0000 -0.0032749511
C   C1079     1.0  0.70885  0.34301  0.73908  1.0000 -0.0032749511
C   C1080     1.0  0.39607  0.15699  0.86584  1.0000 -0.0032749511
C   C1081     1.0  0.35800  0.20845  0.43473  1.0000 0.6006200458
C   C1082     1.0  0.27372  0.92327  0.06527  1.0000 0.6006200458
C   C1083     1.0  0.22628  0.29155  0.64955  1.0000 0.6006200458
C   C1084     1.0  0.14200  0.57673  0.85045  1.0000 0.6006200458
C   C1085     1.0  0.43473  0.35800  0.20845  1.0000 0.6006200458
C   C1086     1.0  0.06527  0.27372  0.92327  1.0000 0.6006200458
C   C1087     1.0  0.64955  0.22628  0.29155  1.0000 0.6006200458
C   C1088     1.0  0.85045  0.14200  0.57673  1.0000 0.5879355864
C   C1089     1.0  0.20845  0.43473  0.35800  1.0000 0.6006200458
C   C1090     1.0  0.92327  0.06527  0.27372  1.0000 0.5879355864
C   C1091     1.0  0.29155  0.64955  0.22628  1.0000 0.6006200458
C   C1092     1.0  0.57673  0.85045  0.14200  1.0000 0.6006200458
C   C1093     1.0  0.64200  0.79155  0.56527  1.0000 0.6006200458
C   C1094     1.0  0.72628  0.07673  0.93473  1.0000 0.6006200458
C   C1095     1.0  0.77372  0.70845  0.35045  1.0000 0.6006200458
C   C1096     1.0  0.85800  0.42327  0.14955  1.0000 0.6006200458
C   C1097     1.0  0.56527  0.64200  0.79155  1.0000 0.6006200458
C   C1098     1.0  0.93473  0.72628  0.07673  1.0000 0.6006200458
C   C1099     1.0  0.35045  0.77372  0.70845  1.0000 0.6006200458
C   C1100     1.0  0.14955  0.85800  0.42327  1.0000 0.6006200458
C   C1101     1.0  0.79155  0.56527  0.64200  1.0000 0.6006200458
C   C1102     1.0  0.07673  0.93473  0.72628  1.0000 0.6006200458
C   C1103     1.0  0.70845  0.35045  0.77372  1.0000 0.5879355864
C   C1104     1.0  0.42327  0.14955  0.85800  1.0000 0.5879355864
C   C1105     1.0  0.34094  0.18276  0.47118  1.0000 -0.1390076974
C   C1106     1.0  0.21158  0.86976  0.02882  1.0000 -0.1390076974
C   C1107     1.0  0.28842  0.31724  0.65818  1.0000 -0.1390076974
C   C1108     1.0  0.15906  0.63024  0.84182  1.0000 -0.1390076974
C   C1109     1.0  0.47118  0.34094  0.18276  1.0000 -0.1390076974
C   C1110     1.0  0.02882  0.21158  0.86976  1.0000 -0.1390076974
C   C1111     1.0  0.65818  0.28842  0.31724  1.0000 -0.1390076974
C   C1112     1.0  0.84182  0.15906  0.63024  1.0000 -0.1390076974
C   C1113     1.0  0.18276  0.47118  0.34094  1.0000 -0.1390076974
C   C1114     1.0  0.86976  0.02882  0.21158  1.0000 -0.1390076974
C   C1115     1.0  0.31724  0.65818  0.28842  1.0000 -0.1390076974
C   C1116     1.0  0.63024  0.84182  0.15906  1.0000 -0.1390076974
C   C1117     1.0  0.65906  0.81724  0.52882  1.0000 -0.1390076974
C   C1118     1.0  0.78842  0.13024  0.97118  1.0000 -0.1390076974
C   C1119     1.0  0.71158  0.68276  0.34182  1.0000 -0.1390076974
C   C1120     1.0  0.84094  0.36976  0.15818  1.0000 -0.1390076974
C   C1121     1.0  0.52882  0.65906  0.81724  1.0000 -0.1390076974
C   C1122     1.0  0.97118  0.78842  0.13024  1.0000 -0.1390076974
C   C1123     1.0  0.34182  0.71158  0.68276  1.0000 -0.1390076974
C   C1124     1.0  0.15818  0.84094  0.36976  1.0000 -0.1390076974
C   C1125     1.0  0.81724  0.52882  0.65906  1.0000 -0.1390076974
C   C1126     1.0  0.13024  0.97118  0.78842  1.0000 -0.1390076974
C   C1127     1.0  0.68276  0.34182  0.71158  1.0000 -0.1390076974
C   C1128     1.0  0.36976  0.15818  0.84094  1.0000 -0.1390076974
C   C1129     1.0  0.17781  0.78934  0.47455  1.0000 0.6006200458
C   C1130     1.0  0.81479  0.70326  0.02545  1.0000 0.6006200458
C   C1131     1.0  0.68521  0.71066  0.88847  1.0000 0.6006200458
C   C1132     1.0  0.32219  0.79674  0.61153  1.0000 0.6006200458
C   C1133     1.0  0.47455  0.17781  0.78934  1.0000 0.6006200458
C   C1134     1.0  0.02545  0.81479  0.70326  1.0000 0.6006200458
C   C1135     1.0  0.88847  0.68521  0.71066  1.0000 0.6006200458
C   C1136     1.0  0.61153  0.32219  0.79674  1.0000 0.6006200458
C   C1137     1.0  0.78934  0.47455  0.17781  1.0000 0.6006200458
C   C1138     1.0  0.70326  0.02545  0.81479  1.0000 0.6006200458
C   C1139     1.0  0.71066  0.88847  0.68521  1.0000 0.6006200458
C   C1140     1.0  0.79674  0.61153  0.32219  1.0000 0.6006200458
C   C1141     1.0  0.82219  0.21066  0.52545  1.0000 0.6006200458
C   C1142     1.0  0.18521  0.29674  0.97455  1.0000 0.6006200458
C   C1143     1.0  0.31479  0.28934  0.11153  1.0000 0.6006200458
C   C1144     1.0  0.67781  0.20326  0.38847  1.0000 0.6006200458
C   C1145     1.0  0.52545  0.82219  0.21066  1.0000 0.6006200458
C   C1146     1.0  0.97455  0.18521  0.29674  1.0000 0.6006200458
C   C1147     1.0  0.11153  0.31479  0.28934  1.0000 0.6006200458
C   C1148     1.0  0.38847  0.67781  0.20326  1.0000 0.6006200458
C   C1149     1.0  0.21066  0.52545  0.82219  1.0000 0.6006200458
C   C1150     1.0  0.29674  0.97455  0.18521  1.0000 0.6006200458
C   C1151     1.0  0.28934  0.11153  0.31479  1.0000 0.6006200458
C   C1152     1.0  0.20326  0.38847  0.67781  1.0000 0.6006200458
C   C1153     1.0  0.19344  0.76586  0.46490  1.0000 -0.0206068733
C   C1154     1.0  0.80096  0.72854  0.03510  1.0000 -0.0206068733
C   C1155     1.0  0.69904  0.73414  0.92758  1.0000 -0.0206068733
C   C1156     1.0  0.30656  0.77146  0.57242  1.0000 -0.0206068733
C   C1157     1.0  0.46490  0.19344  0.76586  1.0000 -0.0206068733
C   C1158     1.0  0.03510  0.80096  0.72854  1.0000 -0.0206068733
C   C1159     1.0  0.92758  0.69904  0.73414  1.0000 -0.0206068733
C   C1160     1.0  0.57242  0.30656  0.77146  1.0000 -0.0206068733
C   C1161     1.0  0.76586  0.46490  0.19344  1.0000 -0.0206068733
C   C1162     1.0  0.72854  0.03510  0.80096  1.0000 -0.0206068733
C   C1163     1.0  0.73414  0.92758  0.69904  1.0000 -0.0206068733
C   C1164     1.0  0.77146  0.57242  0.30656  1.0000 -0.0206068733
C   C1165     1.0  0.80656  0.23414  0.53510  1.0000 -0.0206068733
C   C1166     1.0  0.19904  0.27146  0.96490  1.0000 -0.0206068733
C   C1167     1.0  0.30096  0.26586  0.07242  1.0000 -0.0206068733
C   C1168     1.0  0.69344  0.22854  0.42758  1.0000 -0.0206068733
C   C1169     1.0  0.53510  0.80656  0.23414  1.0000 -0.0206068733
C   C1170     1.0  0.96490  0.19904  0.27146  1.0000 -0.0206068733
C   C1171     1.0  0.07242  0.30096  0.26586  1.0000 -0.0206068733
C   C1172     1.0  0.42758  0.69344  0.22854  1.0000 -0.0206068733
C   C1173     1.0  0.23414  0.53510  0.80656  1.0000 -0.0206068733
C   C1174     1.0  0.27146  0.96490  0.19904  1.0000 -0.0206068733
C   C1175     1.0  0.26586  0.07242  0.30096  1.0000 -0.0206068733
C   C1176     1.0  0.22854  0.42758  0.69344  1.0000 -0.0206068733
C   C1177     1.0  0.18064  0.74329  0.42893  1.0000 -0.1001355717
C   C1178     1.0  0.81436  0.75171  0.07107  1.0000 -0.1001355717
C   C1179     1.0  0.68564  0.75671  0.93735  1.0000 -0.1001355717
C   C1180     1.0  0.31936  0.74829  0.56265  1.0000 -0.1001355717
C   C1181     1.0  0.42893  0.18064  0.74329  1.0000 -0.1001355717
C   C1182     1.0  0.07107  0.81436  0.75171  1.0000 -0.1001355717
C   C1183     1.0  0.93735  0.68564  0.75671  1.0000 -0.1001355717
C   C1184     1.0  0.56265  0.31936  0.74829  1.0000 -0.1001355717
C   C1185     1.0  0.74329  0.42893  0.18064  1.0000 -0.1001355717
C   C1186     1.0  0.75171  0.07107  0.81436  1.0000 -0.1001355717
C   C1187     1.0  0.75671  0.93735  0.68564  1.0000 -0.1001355717
C   C1188     1.0  0.74829  0.56265  0.31936  1.0000 -0.1001355717
C   C1189     1.0  0.81936  0.25671  0.57107  1.0000 -0.1001355717
C   C1190     1.0  0.18564  0.24829  0.92893  1.0000 -0.1001355717
C   C1191     1.0  0.31436  0.24329  0.06265  1.0000 -0.1001355717
C   C1192     1.0  0.68064  0.25171  0.43735  1.0000 -0.1001355717
C   C1193     1.0  0.57107  0.81936  0.25671  1.0000 -0.1001355717
C   C1194     1.0  0.92893  0.18564  0.24829  1.0000 -0.1001355717
C   C1195     1.0  0.06265  0.31436  0.24329  1.0000 -0.1001355717
C   C1196     1.0  0.43735  0.68064  0.25171  1.0000 -0.1001355717
C   C1197     1.0  0.25671  0.57107  0.81936  1.0000 -0.1001355717
C   C1198     1.0  0.24829  0.92893  0.18564  1.0000 -0.1001355717
C   C1199     1.0  0.24329  0.06265  0.31436  1.0000 -0.1001355717
C   C1200     1.0  0.25171  0.43735  0.68064  1.0000 -0.1001355717
C   C1201     1.0  0.19532  0.72257  0.41989  1.0000 -0.0206068733
C   C1202     1.0  0.80268  0.77543  0.08011  1.0000 -0.0206068733
C   C1203     1.0  0.69732  0.77743  0.97275  1.0000 -0.0206068733
C   C1204     1.0  0.30468  0.72457  0.52725  1.0000 -0.0206068733
C   C1205     1.0  0.41989  0.19532  0.72257  1.0000 -0.0206068733
C   C1206     1.0  0.08011  0.80268  0.77543  1.0000 -0.0206068733
C   C1207     1.0  0.97275  0.69732  0.77743  1.0000 -0.0206068733
C   C1208     1.0  0.52725  0.30468  0.72457  1.0000 -0.0206068733
C   C1209     1.0  0.72257  0.41989  0.19532  1.0000 -0.0206068733
C   C1210     1.0  0.77543  0.08011  0.80268  1.0000 -0.0206068733
C   C1211     1.0  0.77743  0.97275  0.69732  1.0000 -0.0206068733
C   C1212     1.0  0.72457  0.52725  0.30468  1.0000 -0.0206068733
C   C1213     1.0  0.80468  0.27743  0.58011  1.0000 -0.0206068733
C   C1214     1.0  0.19732  0.22457  0.91989  1.0000 -0.0206068733
C   C1215     1.0  0.30268  0.22257  0.02725  1.0000 -0.0206068733
C   C1216     1.0  0.69532  0.27543  0.47275  1.0000 -0.0206068733
C   C1217     1.0  0.58011  0.80468  0.27743  1.0000 -0.0206068733
C   C1218     1.0  0.91989  0.19732  0.22457  1.0000 -0.0206068733
C   C1219     1.0  0.02725  0.30268  0.22257  1.0000 -0.0206068733
C   C1220     1.0  0.47275  0.69532  0.27543  1.0000 -0.0206068733
C   C1221     1.0  0.27743  0.58011  0.80468  1.0000 -0.0206068733
C   C1222     1.0  0.22457  0.91989  0.19732  1.0000 -0.0206068733
C   C1223     1.0  0.22257  0.02725  0.30268  1.0000 -0.0206068733
C   C1224     1.0  0.27543  0.47275  0.69532  1.0000 -0.0206068733
C   C1225     1.0  0.18082  0.69851  0.38093  1.0000 0.6092052144
C   C1226     1.0  0.81758  0.79989  0.11907  1.0000 0.6092052144
C   C1227     1.0  0.68242  0.80149  0.98231  1.0000 0.6092052144
C   C1228     1.0  0.31918  0.70011  0.51769  1.0000 0.6092052144
C   C1229     1.0  0.38093  0.18082  0.69851  1.0000 0.6092052144
C   C1230     1.0  0.11907  0.81758  0.79989  1.0000 0.6092052144
C   C1231     1.0  0.98231  0.68242  0.80149  1.0000 0.6092052144
C   C1232     1.0  0.51769  0.31918  0.70011  1.0000 0.6092052144
C   C1233     1.0  0.69851  0.38093  0.18082  1.0000 0.6092052144
C   C1234     1.0  0.79989  0.11907  0.81758  1.0000 0.6092052144
C   C1235     1.0  0.80149  0.98231  0.68242  1.0000 0.6092052144
C   C1236     1.0  0.70011  0.51769  0.31918  1.0000 0.6092052144
C   C1237     1.0  0.81918  0.30149  0.61907  1.0000 0.6092052144
C   C1238     1.0  0.18242  0.20011  0.88093  1.0000 0.6092052144
C   C1239     1.0  0.31758  0.19851  0.01769  1.0000 0.6092052144
C   C1240     1.0  0.68082  0.29989  0.48231  1.0000 0.6092052144
C   C1241     1.0  0.61907  0.81918  0.30149  1.0000 0.6092052144
C   C1242     1.0  0.88093  0.18242  0.20011  1.0000 0.6092052144
C   C1243     1.0  0.01769  0.31758  0.19851  1.0000 0.6092052144
C   C1244     1.0  0.48231  0.68082  0.29989  1.0000 0.6092052144
C   C1245     1.0  0.30149  0.61907  0.81918  1.0000 0.6092052144
C   C1246     1.0  0.20011  0.88093  0.18242  1.0000 0.6092052144
C   C1247     1.0  0.19851  0.01769  0.31758  1.0000 0.6092052144
C   C1248     1.0  0.29989  0.48231  0.68082  1.0000 0.6092052144
C   C1249     1.0  0.22250  0.72338  0.44588  1.0000 -0.1321936653
C   C1250     1.0  0.77750  0.77662  0.05412  1.0000 -0.1321936653
C   C1251     1.0  0.72250  0.77662  0.99912  1.0000 -0.1321936653
C   C1252     1.0  0.27750  0.72338  0.50088  1.0000 -0.1321936653
C   C1253     1.0  0.44588  0.22250  0.72338  1.0000 -0.1321936653
C   C1254     1.0  0.05412  0.77750  0.77662  1.0000 -0.1321936653
C   C1255     1.0  0.99912  0.72250  0.77662  1.0000 -0.1321936653
C   C1256     1.0  0.50088  0.27750  0.72338  1.0000 -0.1321936653
C   C1257     1.0  0.72338  0.44588  0.22250  1.0000 -0.1321936653
C   C1258     1.0  0.77662  0.05412  0.77750  1.0000 -0.1321936653
C   C1259     1.0  0.77662  0.99912  0.72250  1.0000 -0.1321936653
C   C1260     1.0  0.72338  0.50088  0.27750  1.0000 -0.1321936653
C   C1261     1.0  0.77750  0.27662  0.55412  1.0000 -0.1321936653
C   C1262     1.0  0.22250  0.22338  0.94588  1.0000 -0.1321936653
C   C1263     1.0  0.27750  0.22338  0.00088  1.0000 -0.1321936653
C   C1264     1.0  0.72250  0.27662  0.49912  1.0000 -0.1321936653
C   C1265     1.0  0.55412  0.77750  0.27662  1.0000 -0.1321936653
C   C1266     1.0  0.94588  0.22250  0.22338  1.0000 -0.1321936653
C   C1267     1.0  0.00088  0.27750  0.22338  1.0000 -0.1321936653
C   C1268     1.0  0.49912  0.72250  0.27662  1.0000 -0.1321936653
C   C1269     1.0  0.27662  0.55412  0.77750  1.0000 -0.1321936653
C   C1270     1.0  0.22338  0.94588  0.22250  1.0000 -0.1321936653
C   C1271     1.0  0.22338  0.00088  0.27750  1.0000 -0.1321936653
C   C1272     1.0  0.27662  0.49912  0.72250  1.0000 -0.1321936653
C   C1273     1.0  0.23498  0.74517  0.48215  1.0000 0.0797482219
C   C1274     1.0  0.76302  0.75283  0.01785  1.0000 0.0797482219
C   C1275     1.0  0.73698  0.75483  0.98981  1.0000 0.0797482219
C   C1276     1.0  0.26502  0.74717  0.51019  1.0000 0.0797482219
C   C1277     1.0  0.48215  0.23498  0.74517  1.0000 0.0797482219
C   C1278     1.0  0.01785  0.76302  0.75283  1.0000 0.0797482219
C   C1279     1.0  0.98981  0.73698  0.75483  1.0000 0.0797482219
C   C1280     1.0  0.51019  0.26502  0.74717  1.0000 0.0797482219
C   C1281     1.0  0.74517  0.48215  0.23498  1.0000 0.0797482219
C   C1282     1.0  0.75283  0.01785  0.76302  1.0000 0.0797482219
C   C1283     1.0  0.75483  0.98981  0.73698  1.0000 0.0797482219
C   C1284     1.0  0.74717  0.51019  0.26502  1.0000 0.0797482219
C   C1285     1.0  0.76502  0.25483  0.51785  1.0000 0.0797482219
C   C1286     1.0  0.23698  0.24717  0.98215  1.0000 0.0797482219
C   C1287     1.0  0.26302  0.24517  0.01019  1.0000 0.0797482219
C   C1288     1.0  0.73498  0.25283  0.48981  1.0000 0.0797482219
C   C1289     1.0  0.51785  0.76502  0.25483  1.0000 0.0797482219
C   C1290     1.0  0.98215  0.23698  0.24717  1.0000 0.0797482219
C   C1291     1.0  0.01019  0.26302  0.24517  1.0000 0.0797482219
C   C1292     1.0  0.48981  0.73498  0.25283  1.0000 0.0797482219
C   C1293     1.0  0.25483  0.51785  0.76502  1.0000 0.0797482219
C   C1294     1.0  0.24717  0.98215  0.23698  1.0000 0.0797482219
C   C1295     1.0  0.24517  0.01019  0.26302  1.0000 0.0797482219
C   C1296     1.0  0.25283  0.48981  0.73498  1.0000 0.0797482219
C   C1297     1.0  0.22080  0.76722  0.49122  1.0000 -0.1321936653
C   C1298     1.0  0.77600  0.72958  0.00878  1.0000 -0.1321936653
C   C1299     1.0  0.72400  0.73278  0.95358  1.0000 -0.1321936653
C   C1300     1.0  0.27920  0.77042  0.54642  1.0000 -0.1321936653
C   C1301     1.0  0.49122  0.22080  0.76722  1.0000 -0.1321936653
C   C1302     1.0  0.00878  0.77600  0.72958  1.0000 -0.1321936653
C   C1303     1.0  0.95358  0.72400  0.73278  1.0000 -0.1321936653
C   C1304     1.0  0.54642  0.27920  0.77042  1.0000 -0.1321936653
C   C1305     1.0  0.76722  0.49122  0.22080  1.0000 -0.1321936653
C   C1306     1.0  0.72958  0.00878  0.77600  1.0000 -0.1321936653
C   C1307     1.0  0.73278  0.95358  0.72400  1.0000 -0.1321936653
C   C1308     1.0  0.77042  0.54642  0.27920  1.0000 -0.1321936653
C   C1309     1.0  0.77920  0.23278  0.50878  1.0000 -0.1321936653
C   C1310     1.0  0.22400  0.27042  0.99122  1.0000 -0.1321936653
C   C1311     1.0  0.27600  0.26722  0.04642  1.0000 -0.1321936653
C   C1312     1.0  0.72080  0.22958  0.45358  1.0000 -0.1321936653
C   C1313     1.0  0.50878  0.77920  0.23278  1.0000 -0.1321936653
C   C1314     1.0  0.99122  0.22400  0.27042  1.0000 -0.1321936653
C   C1315     1.0  0.04642  0.27600  0.26722  1.0000 -0.1321936653
C   C1316     1.0  0.45358  0.72080  0.22958  1.0000 -0.1321936653
C   C1317     1.0  0.23278  0.50878  0.77920  1.0000 -0.1321936653
C   C1318     1.0  0.27042  0.99122  0.22400  1.0000 -0.1321936653
C   C1319     1.0  0.26722  0.04642  0.27600  1.0000 -0.1321936653
C   C1320     1.0  0.22958  0.45358  0.72080  1.0000 -0.1321936653
C   C1321     1.0  0.36396  0.92215  0.68171  1.0000 0.6092052144
C   C1322     1.0  0.74044  0.68225  0.81829  1.0000 0.6092052144
C   C1323     1.0  0.75956  0.57785  0.94181  1.0000 0.6092052144
C   C1324     1.0  0.13604  0.81775  0.55819  1.0000 0.6092052144
C   C1325     1.0  0.68171  0.36396  0.92215  1.0000 0.6092052144
C   C1326     1.0  0.81829  0.74044  0.68225  1.0000 0.6092052144
C   C1327     1.0  0.94181  0.75956  0.57785  1.0000 0.6092052144
C   C1328     1.0  0.55819  0.13604  0.81775  1.0000 0.6092052144
C   C1329     1.0  0.92215  0.68171  0.36396  1.0000 0.6092052144
C   C1330     1.0  0.68225  0.81829  0.74044  1.0000 0.6092052144
C   C1331     1.0  0.57785  0.94181  0.75956  1.0000 0.6092052144
C   C1332     1.0  0.81775  0.55819  0.13604  1.0000 0.6092052144
C   C1333     1.0  0.63604  0.07785  0.31829  1.0000 0.6092052144
C   C1334     1.0  0.25956  0.31775  0.18171  1.0000 0.6092052144
C   C1335     1.0  0.24044  0.42215  0.05819  1.0000 0.6092052144
C   C1336     1.0  0.86396  0.18225  0.44181  1.0000 0.6092052144
C   C1337     1.0  0.31829  0.63604  0.07785  1.0000 0.6092052144
C   C1338     1.0  0.18171  0.25956  0.31775  1.0000 0.6092052144
C   C1339     1.0  0.05819  0.24044  0.42215  1.0000 0.6092052144
C   C1340     1.0  0.44181  0.86396  0.18225  1.0000 0.6092052144
C   C1341     1.0  0.07785  0.31829  0.63604  1.0000 0.6092052144
C   C1342     1.0  0.31775  0.18171  0.25956  1.0000 0.6092052144
C   C1343     1.0  0.42215  0.05819  0.24044  1.0000 0.6092052144
C   C1344     1.0  0.18225  0.44181  0.86396  1.0000 0.6092052144
O   O1        1.0  0.22133  0.07920  0.62391  1.0000 -0.5111095135
O   O2        1.0  0.95529  0.59742  0.87609  1.0000 -0.5111095135
O   O3        1.0  0.54471  0.42080  0.64213  1.0000 -0.5111095135
O   O4        1.0  0.27867  0.90258  0.85787  1.0000 -0.5111095135
O   O5        1.0  0.62391  0.22133  0.07920  1.0000 -0.5111095135
O   O6        1.0  0.87609  0.95529  0.59742  1.0000 -0.5111095135
O   O7        1.0  0.64213  0.54471  0.42080  1.0000 -0.5111095135
O   O8        1.0  0.85787  0.27867  0.90258  1.0000 -0.5111095135
O   O9        1.0  0.07920  0.62391  0.22133  1.0000 -0.5111095135
O   O10       1.0  0.59742  0.87609  0.95529  1.0000 -0.5182369793
O   O11       1.0  0.42080  0.64213  0.54471  1.0000 -0.5111095135
O   O12       1.0  0.90258  0.85787  0.27867  1.0000 -0.5111095135
O   O13       1.0  0.77867  0.92080  0.37609  1.0000 -0.5111095135
O   O14       1.0  0.04471  0.40258  0.12391  1.0000 -0.5182369793
O   O15       1.0  0.45529  0.57920  0.35787  1.0000 -0.5111095135
O   O16       1.0  0.72133  0.09742  0.14213  1.0000 -0.5111095135
O   O17       1.0  0.37609  0.77867  0.92080  1.0000 -0.5182369793
O   O18       1.0  0.12391  0.04471  0.40258  1.0000 -0.5111095135
O   O19       1.0  0.35787  0.45529  0.57920  1.0000 -0.5111095135
O   O20       1.0  0.14213  0.72133  0.09742  1.0000 -0.5182369793
O   O21       1.0  0.92080  0.37609  0.77867  1.0000 -0.5111095135
O   O22       1.0  0.40258  0.12391  0.04471  1.0000 -0.5111095135
O   O23       1.0  0.57920  0.35787  0.45529  1.0000 -0.5111095135
O   O24       1.0  0.09742  0.14213  0.72133  1.0000 -0.5111095135
O   O25       1.0  0.15208  0.12475  0.71313  1.0000 -0.499674906
O   O26       1.0  0.91162  0.43895  0.78687  1.0000 -0.499674906
O   O27       1.0  0.58838  0.37525  0.52733  1.0000 -0.499674906
O   O28       1.0  0.34792  0.06105  0.97267  1.0000 -0.499674906
O   O29       1.0  0.71313  0.15208  0.12475  1.0000 -0.499674906
O   O30       1.0  0.78687  0.91162  0.43895  1.0000 -0.5111095135
O   O31       1.0  0.52733  0.58838  0.37525  1.0000 -0.499674906
O   O32       1.0  0.97267  0.34792  0.06105  1.0000 -0.499674906
O   O33       1.0  0.12475  0.71313  0.15208  1.0000 -0.499674906
O   O34       1.0  0.43895  0.78687  0.91162  1.0000 -0.499674906
O   O35       1.0  0.37525  0.52733  0.58838  1.0000 -0.499674906
O   O36       1.0  0.06105  0.97267  0.34792  1.0000 -0.5111095135
O   O37       1.0  0.84792  0.87525  0.28687  1.0000 -0.499674906
O   O38       1.0  0.08838  0.56105  0.21313  1.0000 -0.499674906
O   O39       1.0  0.41162  0.62475  0.47267  1.0000 -0.499674906
O   O40       1.0  0.65208  0.93895  0.02733  1.0000 -0.499674906
O   O41       1.0  0.28687  0.84792  0.87525  1.0000 -0.499674906
O   O42       1.0  0.21313  0.08838  0.56105  1.0000 -0.499674906
O   O43       1.0  0.47267  0.41162  0.62475  1.0000 -0.499674906
O   O44       1.0  0.02733  0.65208  0.93895  1.0000 -0.499674906
O   O45       1.0  0.87525  0.28687  0.84792  1.0000 -0.499674906
O   O46       1.0  0.56105  0.21313  0.08838  1.0000 -0.499674906
O   O47       1.0  0.62475  0.47267  0.41162  1.0000 -0.5111095135
O   O48       1.0  0.93895  0.02733  0.65208  1.0000 -0.499674906
O   O49       1.0  0.12766  0.07765  0.71933  1.0000 -0.5390799594
O   O50       1.0  0.85832  0.40833  0.78067  1.0000 -0.5390799594
O   O51       1.0  0.64168  0.42235  0.55001  1.0000 -0.5390799594
O   O52       1.0  0.37234  0.09167  0.94999  1.0000 -0.5390799594
O   O53       1.0  0.71933  0.12766  0.07765  1.0000 -0.5390799594
O   O54       1.0  0.78067  0.85832  0.40833  1.0000 -0.5390799594
O   O55       1.0  0.55001  0.64168  0.42235  1.0000 -0.5390799594
O   O56       1.0  0.94999  0.37234  0.09167  1.0000 -0.5390799594
O   O57       1.0  0.07765  0.71933  0.12766  1.0000 -0.5390799594
O   O58       1.0  0.40833  0.78067  0.85832  1.0000 -0.5390799594
O   O59       1.0  0.42235  0.55001  0.64168  1.0000 -0.5390799594
O   O60       1.0  0.09167  0.94999  0.37234  1.0000 -0.5390799594
O   O61       1.0  0.87234  0.92235  0.28067  1.0000 -0.5390799594
O   O62       1.0  0.14168  0.59167  0.21933  1.0000 -0.5390799594
O   O63       1.0  0.35832  0.57765  0.44999  1.0000 -0.5390799594
O   O64       1.0  0.62766  0.90833  0.05001  1.0000 -0.5390799594
O   O65       1.0  0.28067  0.87234  0.92235  1.0000 -0.5390799594
O   O66       1.0  0.21933  0.14168  0.59167  1.0000 -0.5390799594
O   O67       1.0  0.44999  0.35832  0.57765  1.0000 -0.5390799594
O   O68       1.0  0.05001  0.62766  0.90833  1.0000 -0.5390799594
O   O69       1.0  0.92235  0.28067  0.87234  1.0000 -0.5390799594
O   O70       1.0  0.59167  0.21933  0.14168  1.0000 -0.5390799594
O   O71       1.0  0.57765  0.44999  0.35832  1.0000 -0.5390799594
O   O72       1.0  0.90833  0.05001  0.62766  1.0000 -0.5390799594
O   O73       1.0  0.13128  0.91097  0.53177  1.0000 -0.5390799594
O   O74       1.0  0.87920  0.59951  0.96823  1.0000 -0.5390799594
O   O75       1.0  0.62080  0.58903  0.72031  1.0000 -0.5390799594
O   O76       1.0  0.36872  0.90049  0.77969  1.0000 -0.5390799594
O   O77       1.0  0.53177  0.13128  0.91097  1.0000 -0.5390799594
O   O78       1.0  0.96823  0.87920  0.59951  1.0000 -0.5390799594
O   O79       1.0  0.72031  0.62080  0.58903  1.0000 -0.5390799594
O   O80       1.0  0.77969  0.36872  0.90049  1.0000 -0.5390799594
O   O81       1.0  0.91097  0.53177  0.13128  1.0000 -0.5390799594
O   O82       1.0  0.59951  0.96823  0.87920  1.0000 -0.5390799594
O   O83       1.0  0.58903  0.72031  0.62080  1.0000 -0.5390799594
O   O84       1.0  0.90049  0.77969  0.36872  1.0000 -0.5390799594
O   O85       1.0  0.86872  0.08903  0.46823  1.0000 -0.5390799594
O   O86       1.0  0.12080  0.40049  0.03177  1.0000 -0.5390799594
O   O87       1.0  0.37920  0.41097  0.27969  1.0000 -0.5390799594
O   O88       1.0  0.63128  0.09951  0.22031  1.0000 -0.5390799594
O   O89       1.0  0.46823  0.86872  0.08903  1.0000 -0.5390799594
O   O90       1.0  0.03177  0.12080  0.40049  1.0000 -0.5390799594
O   O91       1.0  0.27969  0.37920  0.41097  1.0000 -0.5390799594
O   O92       1.0  0.22031  0.63128  0.09951  1.0000 -0.5390799594
O   O93       1.0  0.08903  0.46823  0.86872  1.0000 -0.52962398
O   O94       1.0  0.40049  0.03177  0.12080  1.0000 -0.5390799594
O   O95       1.0  0.41097  0.27969  0.37920  1.0000 -0.5390799594
O   O96       1.0  0.09951  0.22031  0.63128  1.0000 -0.5390799594
O   O97       1.0  0.10980  0.86581  0.54221  1.0000 -0.5390799594
O   O98       1.0  0.82360  0.56759  0.95779  1.0000 -0.5390799594
O   O99       1.0  0.67640  0.63419  0.74399  1.0000 -0.5390799594
O   O100      1.0  0.39020  0.93241  0.75601  1.0000 -0.5390799594
O   O101      1.0  0.54221  0.10980  0.86581  1.0000 -0.5390799594
O   O102      1.0  0.95779  0.82360  0.56759  1.0000 -0.5390799594
O   O103      1.0  0.74399  0.67640  0.63419  1.0000 -0.5390799594
O   O104      1.0  0.75601  0.39020  0.93241  1.0000 -0.5390799594
O   O105      1.0  0.86581  0.54221  0.10980  1.0000 -0.5390799594
O   O106      1.0  0.56759  0.95779  0.82360  1.0000 -0.5390799594
O   O107      1.0  0.63419  0.74399  0.67640  1.0000 -0.5390799594
O   O108      1.0  0.93241  0.75601  0.39020  1.0000 -0.5390799594
O   O109      1.0  0.89020  0.13419  0.45779  1.0000 -0.5390799594
O   O110      1.0  0.17640  0.43241  0.04221  1.0000 -0.5390799594
O   O111      1.0  0.32360  0.36581  0.25601  1.0000 -0.5390799594
O   O112      1.0  0.60980  0.06759  0.24399  1.0000 -0.5390799594
O   O113      1.0  0.45779  0.89020  0.13419  1.0000 -0.5390799594
O   O114      1.0  0.04221  0.17640  0.43241  1.0000 -0.5390799594
O   O115      1.0  0.25601  0.32360  0.36581  1.0000 -0.5390799594
O   O116      1.0  0.24399  0.60980  0.06759  1.0000 -0.5390799594
O   O117      1.0  0.13419  0.45779  0.89020  1.0000 -0.5390799594
O   O118      1.0  0.43241  0.04221  0.17640  1.0000 -0.5390799594
O   O119      1.0  0.36581  0.25601  0.32360  1.0000 -0.5390799594
O   O120      1.0  0.06759  0.24399  0.60980  1.0000 -0.5390799594
O   O121      1.0  0.04865  0.91490  0.63917  1.0000 -0.52962398
O   O122      1.0  0.77573  0.40948  0.86083  1.0000 -0.52962398
O   O123      1.0  0.72427  0.58510  0.63375  1.0000 -0.52962398
O   O124      1.0  0.45135  0.09052  0.86625  1.0000 -0.52962398
O   O125      1.0  0.63917  0.04865  0.91490  1.0000 -0.52962398
O   O126      1.0  0.86083  0.77573  0.40948  1.0000 -0.52962398
O   O127      1.0  0.63375  0.72427  0.58510  1.0000 -0.52962398
O   O128      1.0  0.86625  0.45135  0.09052  1.0000 -0.52962398
O   O129      1.0  0.91490  0.63917  0.04865  1.0000 -0.52962398
O   O130      1.0  0.40948  0.86083  0.77573  1.0000 -0.52962398
O   O131      1.0  0.58510  0.63375  0.72427  1.0000 -0.52962398
O   O132      1.0  0.09052  0.86625  0.45135  1.0000 -0.52962398
O   O133      1.0  0.95135  0.08510  0.36083  1.0000 -0.52962398
O   O134      1.0  0.22427  0.59052  0.13917  1.0000 -0.52962398
O   O135      1.0  0.27573  0.41490  0.36625  1.0000 -0.52962398
O   O136      1.0  0.54865  0.90948  0.13375  1.0000 -0.52962398
O   O137      1.0  0.36083  0.95135  0.08510  1.0000 -0.52962398
O   O138      1.0  0.13917  0.22427  0.59052  1.0000 -0.52962398
O   O139      1.0  0.36625  0.27573  0.41490  1.0000 -0.52962398
O   O140      1.0  0.13375  0.54865  0.90948  1.0000 -0.52962398
O   O141      1.0  0.08510  0.36083  0.95135  1.0000 -0.52962398
O   O142      1.0  0.59052  0.13917  0.22427  1.0000 -0.52962398
O   O143      1.0  0.41490  0.36625  0.27573  1.0000 -0.52962398
O   O144      1.0  0.90948  0.13375  0.54865  1.0000 -0.52962398
O   O145      1.0  0.03276  0.86496  0.59140  1.0000 -0.52962398
O   O146      1.0  0.77356  0.44136  0.90860  1.0000 -0.52962398
O   O147      1.0  0.72644  0.63504  0.66780  1.0000 -0.52962398
O   O148      1.0  0.46724  0.05864  0.83220  1.0000 -0.52962398
O   O149      1.0  0.59140  0.03276  0.86496  1.0000 -0.52962398
O   O150      1.0  0.90860  0.77356  0.44136  1.0000 -0.52962398
O   O151      1.0  0.66780  0.72644  0.63504  1.0000 -0.52962398
O   O152      1.0  0.83220  0.46724  0.05864  1.0000 -0.52962398
O   O153      1.0  0.86496  0.59140  0.03276  1.0000 -0.52962398
O   O154      1.0  0.44136  0.90860  0.77356  1.0000 -0.52962398
O   O155      1.0  0.63504  0.66780  0.72644  1.0000 -0.52962398
O   O156      1.0  0.05864  0.83220  0.46724  1.0000 -0.52962398
O   O157      1.0  0.96724  0.13504  0.40860  1.0000 -0.52962398
O   O158      1.0  0.22644  0.55864  0.09140  1.0000 -0.52962398
O   O159      1.0  0.27356  0.36496  0.33220  1.0000 -0.52962398
O   O160      1.0  0.53276  0.94136  0.16780  1.0000 -0.52962398
O   O161      1.0  0.40860  0.96724  0.13504  1.0000 -0.52962398
O   O162      1.0  0.09140  0.22644  0.55864  1.0000 -0.52962398
O   O163      1.0  0.33220  0.27356  0.36496  1.0000 -0.52962398
O   O164      1.0  0.16780  0.53276  0.94136  1.0000 -0.52962398
O   O165      1.0  0.13504  0.40860  0.96724  1.0000 -0.52962398
O   O166      1.0  0.55864  0.09140  0.22644  1.0000 -0.52962398
O   O167      1.0  0.36496  0.33220  0.27356  1.0000 -0.52962398
O   O168      1.0  0.94136  0.16780  0.53276  1.0000 -0.52962398
O   O169      1.0  0.26071  0.05409  0.59542  1.0000 -0.499674906
O   O170      1.0  0.95867  0.66529  0.90458  1.0000 -0.499674906
O   O171      1.0  0.54133  0.44591  0.70662  1.0000 -0.499674906
O   O172      1.0  0.23929  0.83471  0.79338  1.0000 -0.499674906
O   O173      1.0  0.59542  0.26071  0.05409  1.0000 -0.499674906
O   O174      1.0  0.90458  0.95867  0.66529  1.0000 -0.499674906
O   O175      1.0  0.70662  0.54133  0.44591  1.0000 -0.499674906
O   O176      1.0  0.79338  0.23929  0.83471  1.0000 -0.499674906
O   O177      1.0  0.05409  0.59542  0.26071  1.0000 -0.499674906
O   O178      1.0  0.66529  0.90458  0.95867  1.0000 -0.499674906
O   O179      1.0  0.44591  0.70662  0.54133  1.0000 -0.499674906
O   O180      1.0  0.83471  0.79338  0.23929  1.0000 -0.499674906
O   O181      1.0  0.73929  0.94591  0.40458  1.0000 -0.499674906
O   O182      1.0  0.04133  0.33471  0.09542  1.0000 -0.499674906
O   O183      1.0  0.45867  0.55409  0.29338  1.0000 -0.499674906
O   O184      1.0  0.76071  0.16529  0.20662  1.0000 -0.499674906
O   O185      1.0  0.40458  0.73929  0.94591  1.0000 -0.499674906
O   O186      1.0  0.09542  0.04133  0.33471  1.0000 -0.499674906
O   O187      1.0  0.29338  0.45867  0.55409  1.0000 -0.499674906
O   O188      1.0  0.20662  0.76071  0.16529  1.0000 -0.499674906
O   O189      1.0  0.94591  0.40458  0.73929  1.0000 -0.499674906
O   O190      1.0  0.33471  0.09542  0.04133  1.0000 -0.499674906
O   O191      1.0  0.55409  0.29338  0.45867  1.0000 -0.499674906
O   O192      1.0  0.16529  0.20662  0.76071  1.0000 -0.499674906
O   O193      1.0  0.30055  0.07999  0.65364  1.0000 -0.52962398
O   O194      1.0  0.92635  0.64691  0.84636  1.0000 -0.52962398
O   O195      1.0  0.57365  0.42001  0.72056  1.0000 -0.52962398
O   O196      1.0  0.19945  0.85309  0.77944  1.0000 -0.52962398
O   O197      1.0  0.65364  0.30055  0.07999  1.0000 -0.52962398
O   O198      1.0  0.84636  0.92635  0.64691  1.0000 -0.52962398
O   O199      1.0  0.72056  0.57365  0.42001  1.0000 -0.52962398
O   O200      1.0  0.77944  0.19945  0.85309  1.0000 -0.52962398
O   O201      1.0  0.07999  0.65364  0.30055  1.0000 -0.52962398
O   O202      1.0  0.64691  0.84636  0.92635  1.0000 -0.52962398
O   O203      1.0  0.42001  0.72056  0.57365  1.0000 -0.52962398
O   O204      1.0  0.85309  0.77944  0.19945  1.0000 -0.52962398
O   O205      1.0  0.69945  0.92001  0.34636  1.0000 -0.52962398
O   O206      1.0  0.07365  0.35309  0.15364  1.0000 -0.52962398
O   O207      1.0  0.42635  0.57999  0.27944  1.0000 -0.52962398
O   O208      1.0  0.80055  0.14691  0.22056  1.0000 -0.52962398
O   O209      1.0  0.34636  0.69945  0.92001  1.0000 -0.52962398
O   O210      1.0  0.15364  0.07365  0.35309  1.0000 -0.52962398
O   O211      1.0  0.27944  0.42635  0.57999  1.0000 -0.52962398
O   O212      1.0  0.22056  0.80055  0.14691  1.0000 -0.52962398
O   O213      1.0  0.92001  0.34636  0.69945  1.0000 -0.52962398
O   O214      1.0  0.35309  0.15364  0.07365  1.0000 -0.52962398
O   O215      1.0  0.57999  0.27944  0.42635  1.0000 -0.52962398
O   O216      1.0  0.14691  0.22056  0.80055  1.0000 -0.52962398
O   O217      1.0  0.19572  0.92057  0.52899  1.0000 -0.5182369793
O   O218      1.0  0.89158  0.66667  0.97101  1.0000 -0.5182369793
O   O219      1.0  0.60842  0.57943  0.77515  1.0000 -0.5182369793
O   O220      1.0  0.30428  0.83327  0.72485  1.0000 -0.5182369793
O   O221      1.0  0.52899  0.19572  0.92057  1.0000 -0.5182369793
O   O222      1.0  0.97101  0.89158  0.66667  1.0000 -0.5182369793
O   O223      1.0  0.77515  0.60842  0.57943  1.0000 -0.5182369793
O   O224      1.0  0.72485  0.30428  0.83327  1.0000 -0.5182369793
O   O225      1.0  0.92057  0.52899  0.19572  1.0000 -0.5182369793
O   O226      1.0  0.66667  0.97101  0.89158  1.0000 -0.5182369793
O   O227      1.0  0.57943  0.77515  0.60842  1.0000 -0.5182369793
O   O228      1.0  0.83327  0.72485  0.30428  1.0000 -0.5182369793
O   O229      1.0  0.80428  0.07943  0.47101  1.0000 -0.5182369793
O   O230      1.0  0.10842  0.33327  0.02899  1.0000 -0.5182369793
O   O231      1.0  0.39158  0.42057  0.22485  1.0000 -0.5182369793
O   O232      1.0  0.69572  0.16673  0.27515  1.0000 -0.5182369793
O   O233      1.0  0.47101  0.80428  0.07943  1.0000 -0.5182369793
O   O234      1.0  0.02899  0.10842  0.33327  1.0000 -0.5182369793
O   O235      1.0  0.22485  0.39158  0.42057  1.0000 -0.5182369793
O   O236      1.0  0.27515  0.69572  0.16673  1.0000 -0.5182369793
O   O237      1.0  0.07943  0.47101  0.80428  1.0000 -0.5182369793
O   O238      1.0  0.33327  0.02899  0.10842  1.0000 -0.5182369793
O   O239      1.0  0.42057  0.22485  0.39158  1.0000 -0.5182369793
O   O240      1.0  0.16673  0.27515  0.69572  1.0000 -0.5182369793
O   O241      1.0  0.21619  0.89238  0.55497  1.0000 -0.52962398
O   O242      1.0  0.83741  0.66122  0.94503  1.0000 -0.52962398
O   O243      1.0  0.66259  0.60762  0.82381  1.0000 -0.52962398
O   O244      1.0  0.28381  0.83878  0.67619  1.0000 -0.52962398
O   O245      1.0  0.55497  0.21619  0.89238  1.0000 -0.52962398
O   O246      1.0  0.94503  0.83741  0.66122  1.0000 -0.52962398
O   O247      1.0  0.82381  0.66259  0.60762  1.0000 -0.52962398
O   O248      1.0  0.67619  0.28381  0.83878  1.0000 -0.52962398
O   O249      1.0  0.89238  0.55497  0.21619  1.0000 -0.52962398
O   O250      1.0  0.66122  0.94503  0.83741  1.0000 -0.52962398
O   O251      1.0  0.60762  0.82381  0.66259  1.0000 -0.52962398
O   O252      1.0  0.83878  0.67619  0.28381  1.0000 -0.52962398
O   O253      1.0  0.78381  0.10762  0.44503  1.0000 -0.52962398
O   O254      1.0  0.16259  0.33878  0.05497  1.0000 -0.52962398
O   O255      1.0  0.33741  0.39238  0.17619  1.0000 -0.52962398
O   O256      1.0  0.71619  0.16122  0.32381  1.0000 -0.52962398
O   O257      1.0  0.44503  0.78381  0.10762  1.0000 -0.52962398
O   O258      1.0  0.05497  0.16259  0.33878  1.0000 -0.52962398
O   O259      1.0  0.17619  0.33741  0.39238  1.0000 -0.52962398
O   O260      1.0  0.32381  0.71619  0.16122  1.0000 -0.52962398
O   O261      1.0  0.10762  0.44503  0.78381  1.0000 -0.52962398
O   O262      1.0  0.33878  0.05497  0.16259  1.0000 -0.52962398
O   O263      1.0  0.39238  0.17619  0.33741  1.0000 -0.52962398
O   O264      1.0  0.16122  0.32381  0.71619  1.0000 -0.52962398
O   O265      1.0  0.33353  0.89582  0.66721  1.0000 -0.5182369793
O   O266      1.0  0.72861  0.66632  0.83279  1.0000 -0.5182369793
O   O267      1.0  0.77139  0.60418  0.93771  1.0000 -0.5182369793
O   O268      1.0  0.16647  0.83368  0.56229  1.0000 -0.5182369793
O   O269      1.0  0.66721  0.33353  0.89582  1.0000 -0.5182369793
O   O270      1.0  0.83279  0.72861  0.66632  1.0000 -0.5182369793
O   O271      1.0  0.93771  0.77139  0.60418  1.0000 -0.5182369793
O   O272      1.0  0.56229  0.16647  0.83368  1.0000 -0.5182369793
O   O273      1.0  0.89582  0.66721  0.33353  1.0000 -0.5182369793
O   O274      1.0  0.66632  0.83279  0.72861  1.0000 -0.5182369793
O   O275      1.0  0.60418  0.93771  0.77139  1.0000 -0.5182369793
O   O276      1.0  0.83368  0.56229  0.16647  1.0000 -0.5182369793
O   O277      1.0  0.66647  0.10418  0.33279  1.0000 -0.5182369793
O   O278      1.0  0.27139  0.33368  0.16721  1.0000 -0.5182369793
O   O279      1.0  0.22861  0.39582  0.06229  1.0000 -0.5182369793
O   O280      1.0  0.83353  0.16632  0.43771  1.0000 -0.5182369793
O   O281      1.0  0.33279  0.66647  0.10418  1.0000 -0.5182369793
O   O282      1.0  0.16721  0.27139  0.33368  1.0000 -0.5182369793
O   O283      1.0  0.06229  0.22861  0.39582  1.0000 -0.5182369793
O   O284      1.0  0.43771  0.83353  0.16632  1.0000 -0.5182369793
O   O285      1.0  0.10418  0.33279  0.66647  1.0000 -0.5182369793
O   O286      1.0  0.33368  0.16721  0.27139  1.0000 -0.5182369793
O   O287      1.0  0.39582  0.06229  0.22861  1.0000 -0.5182369793
O   O288      1.0  0.16632  0.43771  0.83353  1.0000 -0.5182369793
O   O289      1.0  0.45410  0.05988  0.76822  1.0000 -0.499674906
O   O290      1.0  0.79166  0.68588  0.73178  1.0000 -0.499674906
O   O291      1.0  0.70834  0.44012  0.89422  1.0000 -0.499674906
O   O292      1.0  0.04590  0.81412  0.60578  1.0000 -0.499674906
O   O293      1.0  0.76822  0.45410  0.05988  1.0000 -0.499674906
O   O294      1.0  0.73178  0.79166  0.68588  1.0000 -0.499674906
O   O295      1.0  0.89422  0.70834  0.44012  1.0000 -0.499674906
O   O296      1.0  0.60578  0.04590  0.81412  1.0000 -0.499674906
O   O297      1.0  0.05988  0.76822  0.45410  1.0000 -0.499674906
O   O298      1.0  0.68588  0.73178  0.79166  1.0000 -0.499674906
O   O299      1.0  0.44012  0.89422  0.70834  1.0000 -0.499674906
O   O300      1.0  0.81412  0.60578  0.04590  1.0000 -0.499674906
O   O301      1.0  0.54590  0.94012  0.23178  1.0000 -0.499674906
O   O302      1.0  0.20834  0.31412  0.26822  1.0000 -0.499674906
O   O303      1.0  0.29166  0.55988  0.10578  1.0000 -0.499674906
O   O304      1.0  0.95410  0.18588  0.39422  1.0000 -0.499674906
O   O305      1.0  0.23178  0.54590  0.94012  1.0000 -0.499674906
O   O306      1.0  0.26822  0.20834  0.31412  1.0000 -0.499674906
O   O307      1.0  0.10578  0.29166  0.55988  1.0000 -0.499674906
O   O308      1.0  0.39422  0.95410  0.18588  1.0000 -0.499674906
O   O309      1.0  0.94012  0.23178  0.54590  1.0000 -0.499674906
O   O310      1.0  0.31412  0.26822  0.20834  1.0000 -0.499674906
O   O311      1.0  0.55988  0.10578  0.29166  1.0000 -0.499674906
O   O312      1.0  0.18588  0.39422  0.95410  1.0000 -0.499674906
O   O313      1.0  0.41240  0.07593  0.76693  1.0000 -0.52962398
O   O314      1.0  0.80900  0.64547  0.73307  1.0000 -0.52962398
O   O315      1.0  0.69100  0.42407  0.83647  1.0000 -0.52962398
O   O316      1.0  0.08760  0.85453  0.66353  1.0000 -0.52962398
O   O317      1.0  0.76693  0.41240  0.07593  1.0000 -0.52962398
O   O318      1.0  0.73307  0.80900  0.64547  1.0000 -0.52962398
O   O319      1.0  0.83647  0.69100  0.42407  1.0000 -0.52962398
O   O320      1.0  0.66353  0.08760  0.85453  1.0000 -0.52962398
O   O321      1.0  0.07593  0.76693  0.41240  1.0000 -0.52962398
O   O322      1.0  0.64547  0.73307  0.80900  1.0000 -0.52962398
O   O323      1.0  0.42407  0.83647  0.69100  1.0000 -0.52962398
O   O324      1.0  0.85453  0.66353  0.08760  1.0000 -0.52962398
O   O325      1.0  0.58760  0.92407  0.23307  1.0000 -0.52962398
O   O326      1.0  0.19100  0.35453  0.26693  1.0000 -0.52962398
O   O327      1.0  0.30900  0.57593  0.16353  1.0000 -0.52962398
O   O328      1.0  0.91240  0.14547  0.33647  1.0000 -0.52962398
O   O329      1.0  0.23307  0.58760  0.92407  1.0000 -0.52962398
O   O330      1.0  0.26693  0.19100  0.35453  1.0000 -0.52962398
O   O331      1.0  0.16353  0.30900  0.57593  1.0000 -0.52962398
O   O332      1.0  0.33647  0.91240  0.14547  1.0000 -0.52962398
O   O333      1.0  0.92407  0.23307  0.58760  1.0000 -0.52962398
O   O334      1.0  0.35453  0.26693  0.19100  1.0000 -0.52962398
O   O335      1.0  0.57593  0.16353  0.30900  1.0000 -0.52962398
O   O336      1.0  0.14547  0.33647  0.91240  1.0000 -0.52962398
O   O337      1.0  0.28330  0.10545  0.57173  1.0000 -0.5111095135
O   O338      1.0  0.03372  0.71157  0.92827  1.0000 -0.5111095135
O   O339      1.0  0.46628  0.39455  0.67785  1.0000 -0.5111095135
O   O340      1.0  0.21670  0.78843  0.82215  1.0000 -0.5111095135
O   O341      1.0  0.57173  0.28330  0.10545  1.0000 -0.5111095135
O   O342      1.0  0.92827  0.03372  0.71157  1.0000 -0.5111095135
O   O343      1.0  0.67785  0.46628  0.39455  1.0000 -0.5111095135
O   O344      1.0  0.82215  0.21670  0.78843  1.0000 -0.5111095135
O   O345      1.0  0.10545  0.57173  0.28330  1.0000 -0.5111095135
O   O346      1.0  0.71157  0.92827  0.03372  1.0000 -0.5111095135
O   O347      1.0  0.39455  0.67785  0.46628  1.0000 -0.5111095135
O   O348      1.0  0.78843  0.82215  0.21670  1.0000 -0.5111095135
O   O349      1.0  0.71670  0.89455  0.42827  1.0000 -0.5111095135
O   O350      1.0  0.96628  0.28843  0.07173  1.0000 -0.5111095135
O   O351      1.0  0.53372  0.60545  0.32215  1.0000 -0.5111095135
O   O352      1.0  0.78330  0.21157  0.17785  1.0000 -0.5111095135
O   O353      1.0  0.42827  0.71670  0.89455  1.0000 -0.5111095135
O   O354      1.0  0.07173  0.96628  0.28843  1.0000 -0.5111095135
O   O355      1.0  0.32215  0.53372  0.60545  1.0000 -0.5111095135
O   O356      1.0  0.17785  0.78330  0.21157  1.0000 -0.5111095135
O   O357      1.0  0.89455  0.42827  0.71670  1.0000 -0.5111095135
O   O358      1.0  0.28843  0.07173  0.96628  1.0000 -0.5111095135
O   O359      1.0  0.60545  0.32215  0.53372  1.0000 -0.5111095135
O   O360      1.0  0.21157  0.17785  0.78330  1.0000 -0.5111095135
O   O361      1.0  0.32155  0.16431  0.59862  1.0000 -0.5390799594
O   O362      1.0  0.06569  0.72293  0.90138  1.0000 -0.5390799594
O   O363      1.0  0.43431  0.33569  0.65724  1.0000 -0.5390799594
O   O364      1.0  0.17845  0.77707  0.84276  1.0000 -0.5390799594
O   O365      1.0  0.59862  0.32155  0.16431  1.0000 -0.5390799594
O   O366      1.0  0.90138  0.06569  0.72293  1.0000 -0.5390799594
O   O367      1.0  0.65724  0.43431  0.33569  1.0000 -0.5390799594
O   O368      1.0  0.84276  0.17845  0.77707  1.0000 -0.5390799594
O   O369      1.0  0.16431  0.59862  0.32155  1.0000 -0.5390799594
O   O370      1.0  0.72293  0.90138  0.06569  1.0000 -0.5390799594
O   O371      1.0  0.33569  0.65724  0.43431  1.0000 -0.5390799594
O   O372      1.0  0.77707  0.84276  0.17845  1.0000 -0.5390799594
O   O373      1.0  0.67845  0.83569  0.40138  1.0000 -0.5390799594
O   O374      1.0  0.93431  0.27707  0.09862  1.0000 -0.5390799594
O   O375      1.0  0.56569  0.66431  0.34276  1.0000 -0.5390799594
O   O376      1.0  0.82155  0.22293  0.15724  1.0000 -0.5390799594
O   O377      1.0  0.40138  0.67845  0.83569  1.0000 -0.5390799594
O   O378      1.0  0.09862  0.93431  0.27707  1.0000 -0.5390799594
O   O379      1.0  0.34276  0.56569  0.66431  1.0000 -0.5390799594
O   O380      1.0  0.15724  0.82155  0.22293  1.0000 -0.5390799594
O   O381      1.0  0.83569  0.40138  0.67845  1.0000 -0.5390799594
O   O382      1.0  0.27707  0.09862  0.93431  1.0000 -0.5390799594
O   O383      1.0  0.66431  0.34276  0.56569  1.0000 -0.5390799594
O   O384      1.0  0.22293  0.15724  0.82155  1.0000 -0.5390799594
O   O385      1.0  0.21735  0.07978  0.41557  1.0000 -0.52962398
O   O386      1.0  0.16421  0.80178  0.08443  1.0000 -0.52962398
O   O387      1.0  0.33579  0.42022  0.63757  1.0000 -0.52962398
O   O388      1.0  0.28265  0.69822  0.86243  1.0000 -0.52962398
O   O389      1.0  0.41557  0.21735  0.07978  1.0000 -0.52962398
O   O390      1.0  0.08443  0.16421  0.80178  1.0000 -0.52962398
O   O391      1.0  0.63757  0.33579  0.42022  1.0000 -0.5390799594
O   O392      1.0  0.86243  0.28265  0.69822  1.0000 -0.52962398
O   O393      1.0  0.07978  0.41557  0.21735  1.0000 -0.52962398
O   O394      1.0  0.80178  0.08443  0.16421  1.0000 -0.52962398
O   O395      1.0  0.42022  0.63757  0.33579  1.0000 -0.5390799594
O   O396      1.0  0.69822  0.86243  0.28265  1.0000 -0.52962398
O   O397      1.0  0.78265  0.92022  0.58443  1.0000 -0.5390799594
O   O398      1.0  0.83579  0.19822  0.91557  1.0000 -0.52962398
O   O399      1.0  0.66421  0.57978  0.36243  1.0000 -0.52962398
O   O400      1.0  0.71735  0.30178  0.13757  1.0000 -0.52962398
O   O401      1.0  0.58443  0.78265  0.92022  1.0000 -0.52962398
O   O402      1.0  0.91557  0.83579  0.19822  1.0000 -0.5390799594
O   O403      1.0  0.36243  0.66421  0.57978  1.0000 -0.5390799594
O   O404      1.0  0.13757  0.71735  0.30178  1.0000 -0.52962398
O   O405      1.0  0.92022  0.58443  0.78265  1.0000 -0.52962398
O   O406      1.0  0.19822  0.91557  0.83579  1.0000 -0.52962398
O   O407      1.0  0.57978  0.36243  0.66421  1.0000 -0.52962398
O   O408      1.0  0.30178  0.13757  0.71735  1.0000 -0.52962398
O   O409      1.0  0.21274  0.03945  0.43381  1.0000 -0.5111095135
O   O410      1.0  0.10564  0.77893  0.06619  1.0000 -0.5111095135
O   O411      1.0  0.39436  0.46055  0.67329  1.0000 -0.5111095135
O   O412      1.0  0.28726  0.72107  0.82671  1.0000 -0.5111095135
O   O413      1.0  0.43381  0.21274  0.03945  1.0000 -0.5111095135
O   O414      1.0  0.06619  0.10564  0.77893  1.0000 -0.5111095135
O   O415      1.0  0.67329  0.39436  0.46055  1.0000 -0.5111095135
O   O416      1.0  0.82671  0.28726  0.72107  1.0000 -0.5111095135
O   O417      1.0  0.03945  0.43381  0.21274  1.0000 -0.5111095135
O   O418      1.0  0.77893  0.06619  0.10564  1.0000 -0.5111095135
O   O419      1.0  0.46055  0.67329  0.39436  1.0000 -0.5111095135
O   O420      1.0  0.72107  0.82671  0.28726  1.0000 -0.5111095135
O   O421      1.0  0.78726  0.96055  0.56619  1.0000 -0.5111095135
O   O422      1.0  0.89436  0.22107  0.93381  1.0000 -0.5111095135
O   O423      1.0  0.60564  0.53945  0.32671  1.0000 -0.5111095135
O   O424      1.0  0.71274  0.27893  0.17329  1.0000 -0.5182369793
O   O425      1.0  0.56619  0.78726  0.96055  1.0000 -0.5111095135
O   O426      1.0  0.93381  0.89436  0.22107  1.0000 -0.5111095135
O   O427      1.0  0.32671  0.60564  0.53945  1.0000 -0.5111095135
O   O428      1.0  0.17329  0.71274  0.27893  1.0000 -0.5111095135
O   O429      1.0  0.96055  0.56619  0.78726  1.0000 -0.5111095135
O   O430      1.0  0.22107  0.93381  0.89436  1.0000 -0.5111095135
O   O431      1.0  0.53945  0.32671  0.60564  1.0000 -0.5111095135
O   O432      1.0  0.27893  0.17329  0.71274  1.0000 -0.5111095135
O   O433      1.0  0.45830  0.29266  0.56312  1.0000 -0.5111095135
O   O434      1.0  0.22954  0.89518  0.93688  1.0000 -0.5111095135
O   O435      1.0  0.27046  0.20734  0.66564  1.0000 -0.5111095135
O   O436      1.0  0.04170  0.60482  0.83436  1.0000 -0.5111095135
O   O437      1.0  0.56312  0.45830  0.29266  1.0000 -0.5111095135
O   O438      1.0  0.93688  0.22954  0.89518  1.0000 -0.5111095135
O   O439      1.0  0.66564  0.27046  0.20734  1.0000 -0.5111095135
O   O440      1.0  0.83436  0.04170  0.60482  1.0000 -0.5111095135
O   O441      1.0  0.29266  0.56312  0.45830  1.0000 -0.5111095135
O   O442      1.0  0.89518  0.93688  0.22954  1.0000 -0.5111095135
O   O443      1.0  0.20734  0.66564  0.27046  1.0000 -0.5111095135
O   O444      1.0  0.60482  0.83436  0.04170  1.0000 -0.5111095135
O   O445      1.0  0.54170  0.70734  0.43688  1.0000 -0.5111095135
O   O446      1.0  0.77046  0.10482  0.06312  1.0000 -0.5111095135
O   O447      1.0  0.72954  0.79266  0.33436  1.0000 -0.5111095135
O   O448      1.0  0.95830  0.39518  0.16564  1.0000 -0.5111095135
O   O449      1.0  0.43688  0.54170  0.70734  1.0000 -0.5111095135
O   O450      1.0  0.06312  0.77046  0.10482  1.0000 -0.5111095135
O   O451      1.0  0.33436  0.72954  0.79266  1.0000 -0.5111095135
O   O452      1.0  0.16564  0.95830  0.39518  1.0000 -0.5111095135
O   O453      1.0  0.70734  0.43688  0.54170  1.0000 -0.5111095135
O   O454      1.0  0.10482  0.06312  0.77046  1.0000 -0.5111095135
O   O455      1.0  0.79266  0.33436  0.72954  1.0000 -0.5111095135
O   O456      1.0  0.39518  0.16564  0.95830  1.0000 -0.5111095135
O   O457      1.0  0.43557  0.27694  0.59627  1.0000 -0.52962398
O   O458      1.0  0.18067  0.83930  0.90373  1.0000 -0.52962398
O   O459      1.0  0.31933  0.22306  0.65863  1.0000 -0.52962398
O   O460      1.0  0.06443  0.66070  0.84137  1.0000 -0.52962398
O   O461      1.0  0.59627  0.43557  0.27694  1.0000 -0.52962398
O   O462      1.0  0.90373  0.18067  0.83930  1.0000 -0.52962398
O   O463      1.0  0.65863  0.31933  0.22306  1.0000 -0.52962398
O   O464      1.0  0.84137  0.06443  0.66070  1.0000 -0.52962398
O   O465      1.0  0.27694  0.59627  0.43557  1.0000 -0.52962398
O   O466      1.0  0.83930  0.90373  0.18067  1.0000 -0.52962398
O   O467      1.0  0.22306  0.65863  0.31933  1.0000 -0.52962398
O   O468      1.0  0.66070  0.84137  0.06443  1.0000 -0.52962398
O   O469      1.0  0.56443  0.72306  0.40373  1.0000 -0.52962398
O   O470      1.0  0.81933  0.16070  0.09627  1.0000 -0.52962398
O   O471      1.0  0.68067  0.77694  0.34137  1.0000 -0.52962398
O   O472      1.0  0.93557  0.33930  0.15863  1.0000 -0.52962398
O   O473      1.0  0.40373  0.56443  0.72306  1.0000 -0.52962398
O   O474      1.0  0.09627  0.81933  0.16070  1.0000 -0.52962398
O   O475      1.0  0.34137  0.68067  0.77694  1.0000 -0.52962398
O   O476      1.0  0.15863  0.93557  0.33930  1.0000 -0.52962398
O   O477      1.0  0.72306  0.40373  0.56443  1.0000 -0.52962398
O   O478      1.0  0.16070  0.09627  0.81933  1.0000 -0.52962398
O   O479      1.0  0.77694  0.34137  0.68067  1.0000 -0.52962398
O   O480      1.0  0.33930  0.15863  0.93557  1.0000 -0.52962398
O   O481      1.0  0.32545  0.18957  0.41080  1.0000 -0.5182369793
O   O482      1.0  0.27877  0.91465  0.08920  1.0000 -0.5182369793
O   O483      1.0  0.22123  0.31043  0.63588  1.0000 -0.5182369793
O   O484      1.0  0.17455  0.58535  0.86412  1.0000 -0.5182369793
O   O485      1.0  0.41080  0.32545  0.18957  1.0000 -0.5182369793
O   O486      1.0  0.08920  0.27877  0.91465  1.0000 -0.5182369793
O   O487      1.0  0.63588  0.22123  0.31043  1.0000 -0.5182369793
O   O488      1.0  0.86412  0.17455  0.58535  1.0000 -0.5182369793
O   O489      1.0  0.18957  0.41080  0.32545  1.0000 -0.5182369793
O   O490      1.0  0.91465  0.08920  0.27877  1.0000 -0.5182369793
O   O491      1.0  0.31043  0.63588  0.22123  1.0000 -0.5182369793
O   O492      1.0  0.58535  0.86412  0.17455  1.0000 -0.5182369793
O   O493      1.0  0.67455  0.81043  0.58920  1.0000 -0.5182369793
O   O494      1.0  0.72123  0.08535  0.91080  1.0000 -0.5182369793
O   O495      1.0  0.77877  0.68957  0.36412  1.0000 -0.5182369793
O   O496      1.0  0.82545  0.41465  0.13588  1.0000 -0.5182369793
O   O497      1.0  0.58920  0.67455  0.81043  1.0000 -0.5182369793
O   O498      1.0  0.91080  0.72123  0.08535  1.0000 -0.5182369793
O   O499      1.0  0.36412  0.77877  0.68957  1.0000 -0.5182369793
O   O500      1.0  0.13588  0.82545  0.41465  1.0000 -0.5182369793
O   O501      1.0  0.81043  0.58920  0.67455  1.0000 -0.5182369793
O   O502      1.0  0.08535  0.91080  0.72123  1.0000 -0.5182369793
O   O503      1.0  0.68957  0.36412  0.77877  1.0000 -0.5182369793
O   O504      1.0  0.41465  0.13588  0.82545  1.0000 -0.5182369793
O   O505      1.0  0.38280  0.22574  0.43172  1.0000 -0.499674906
O   O506      1.0  0.29402  0.95108  0.06828  1.0000 -0.499674906
O   O507      1.0  0.20598  0.27426  0.65706  1.0000 -0.499674906
O   O508      1.0  0.11720  0.54892  0.84294  1.0000 -0.499674906
O   O509      1.0  0.43172  0.38280  0.22574  1.0000 -0.499674906
O   O510      1.0  0.06828  0.29402  0.95108  1.0000 -0.499674906
O   O511      1.0  0.65706  0.20598  0.27426  1.0000 -0.499674906
O   O512      1.0  0.84294  0.11720  0.54892  1.0000 -0.499674906
O   O513      1.0  0.22574  0.43172  0.38280  1.0000 -0.499674906
O   O514      1.0  0.95108  0.06828  0.29402  1.0000 -0.499674906
O   O515      1.0  0.27426  0.65706  0.20598  1.0000 -0.499674906
O   O516      1.0  0.54892  0.84294  0.11720  1.0000 -0.499674906
O   O517      1.0  0.61720  0.77426  0.56828  1.0000 -0.499674906
O   O518      1.0  0.70598  0.04892  0.93172  1.0000 -0.499674906
O   O519      1.0  0.79402  0.72574  0.34294  1.0000 -0.499674906
O   O520      1.0  0.88280  0.45108  0.15706  1.0000 -0.499674906
O   O521      1.0  0.56828  0.61720  0.77426  1.0000 -0.499674906
O   O522      1.0  0.93172  0.70598  0.04892  1.0000 -0.499674906
O   O523      1.0  0.34294  0.79402  0.72574  1.0000 -0.499674906
O   O524      1.0  0.15706  0.88280  0.45108  1.0000 -0.499674906
O   O525      1.0  0.77426  0.56828  0.61720  1.0000 -0.499674906
O   O526      1.0  0.04892  0.93172  0.70598  1.0000 -0.499674906
O   O527      1.0  0.72574  0.34294  0.79402  1.0000 -0.499674906
O   O528      1.0  0.45108  0.15706  0.88280  1.0000 -0.499674906
O   O529      1.0  0.15166  0.78398  0.44904  1.0000 -0.5182369793
O   O530      1.0  0.83494  0.70262  0.05096  1.0000 -0.5182369793
O   O531      1.0  0.66506  0.71602  0.86768  1.0000 -0.5182369793
O   O532      1.0  0.34834  0.79738  0.63232  1.0000 -0.5182369793
O   O533      1.0  0.44904  0.15166  0.78398  1.0000 -0.5182369793
O   O534      1.0  0.05096  0.83494  0.70262  1.0000 -0.5182369793
O   O535      1.0  0.86768  0.66506  0.71602  1.0000 -0.5182369793
O   O536      1.0  0.63232  0.34834  0.79738  1.0000 -0.5182369793
O   O537      1.0  0.78398  0.44904  0.15166  1.0000 -0.5182369793
O   O538      1.0  0.70262  0.05096  0.83494  1.0000 -0.5182369793
O   O539      1.0  0.71602  0.86768  0.66506  1.0000 -0.5182369793
O   O540      1.0  0.79738  0.63232  0.34834  1.0000 -0.5182369793
O   O541      1.0  0.84834  0.21602  0.55096  1.0000 -0.5182369793
O   O542      1.0  0.16506  0.29738  0.94904  1.0000 -0.5182369793
O   O543      1.0  0.33494  0.28398  0.13232  1.0000 -0.5182369793
O   O544      1.0  0.65166  0.20262  0.36768  1.0000 -0.5182369793
O   O545      1.0  0.55096  0.84834  0.21602  1.0000 -0.5182369793
O   O546      1.0  0.94904  0.16506  0.29738  1.0000 -0.5182369793
O   O547      1.0  0.13232  0.33494  0.28398  1.0000 -0.5182369793
O   O548      1.0  0.36768  0.65166  0.20262  1.0000 -0.5182369793
O   O549      1.0  0.21602  0.55096  0.84834  1.0000 -0.5182369793
O   O550      1.0  0.29738  0.94904  0.16506  1.0000 -0.5182369793
O   O551      1.0  0.28398  0.13232  0.33494  1.0000 -0.5182369793
O   O552      1.0  0.20262  0.36768  0.65166  1.0000 -0.5182369793
O   O553      1.0  0.19117  0.81127  0.50682  1.0000 -0.5111095135
O   O554      1.0  0.80445  0.68435  0.99318  1.0000 -0.5111095135
O   O555      1.0  0.69555  0.68873  0.87990  1.0000 -0.5111095135
O   O556      1.0  0.30883  0.81565  0.62010  1.0000 -0.5111095135
O   O557      1.0  0.50682  0.19117  0.81127  1.0000 -0.5111095135
O   O558      1.0  0.99318  0.80445  0.68435  1.0000 -0.5111095135
O   O559      1.0  0.87990  0.69555  0.68873  1.0000 -0.5111095135
O   O560      1.0  0.62010  0.30883  0.81565  1.0000 -0.5111095135
O   O561      1.0  0.81127  0.50682  0.19117  1.0000 -0.5111095135
O   O562      1.0  0.68435  0.99318  0.80445  1.0000 -0.5111095135
O   O563      1.0  0.68873  0.87990  0.69555  1.0000 -0.5111095135
O   O564      1.0  0.81565  0.62010  0.30883  1.0000 -0.5111095135
O   O565      1.0  0.80883  0.18873  0.49318  1.0000 -0.5111095135
O   O566      1.0  0.19555  0.31565  0.00682  1.0000 -0.5111095135
O   O567      1.0  0.30445  0.31127  0.12010  1.0000 -0.5111095135
O   O568      1.0  0.69117  0.18435  0.37990  1.0000 -0.5111095135
O   O569      1.0  0.49318  0.80883  0.18873  1.0000 -0.5111095135
O   O570      1.0  0.00682  0.19555  0.31565  1.0000 -0.5111095135
O   O571      1.0  0.12010  0.30445  0.31127  1.0000 -0.5111095135
O   O572      1.0  0.37990  0.69117  0.18435  1.0000 -0.5111095135
O   O573      1.0  0.18873  0.49318  0.80883  1.0000 -0.5111095135
O   O574      1.0  0.31565  0.00682  0.19555  1.0000 -0.5111095135
O   O575      1.0  0.31127  0.12010  0.30445  1.0000 -0.5111095135
O   O576      1.0  0.18435  0.37990  0.69117  1.0000 -0.5111095135
O   O577      1.0  0.15460  0.69797  0.35901  1.0000 -0.52962398
O   O578      1.0  0.83896  0.79559  0.14099  1.0000 -0.52962398
O   O579      1.0  0.66104  0.80203  0.95663  1.0000 -0.52962398
O   O580      1.0  0.34540  0.70441  0.54337  1.0000 -0.52962398
O   O581      1.0  0.35901  0.15460  0.69797  1.0000 -0.52962398
O   O582      1.0  0.14099  0.83896  0.79559  1.0000 -0.52962398
O   O583      1.0  0.95663  0.66104  0.80203  1.0000 -0.52962398
O   O584      1.0  0.54337  0.34540  0.70441  1.0000 -0.52962398
O   O585      1.0  0.69797  0.35901  0.15460  1.0000 -0.52962398
O   O586      1.0  0.79559  0.14099  0.83896  1.0000 -0.52962398
O   O587      1.0  0.80203  0.95663  0.66104  1.0000 -0.52962398
O   O588      1.0  0.70441  0.54337  0.34540  1.0000 -0.52962398
O   O589      1.0  0.84540  0.30203  0.64099  1.0000 -0.52962398
O   O590      1.0  0.16104  0.20441  0.85901  1.0000 -0.52962398
O   O591      1.0  0.33896  0.19797  0.04337  1.0000 -0.52962398
O   O592      1.0  0.65460  0.29559  0.45663  1.0000 -0.52962398
O   O593      1.0  0.64099  0.84540  0.30203  1.0000 -0.52962398
O   O594      1.0  0.85901  0.16104  0.20441  1.0000 -0.52962398
O   O595      1.0  0.04337  0.33896  0.19797  1.0000 -0.52962398
O   O596      1.0  0.45663  0.65460  0.29559  1.0000 -0.52962398
O   O597      1.0  0.30203  0.64099  0.84540  1.0000 -0.52962398
O   O598      1.0  0.20441  0.85901  0.16104  1.0000 -0.52962398
O   O599      1.0  0.19797  0.04337  0.33896  1.0000 -0.52962398
O   O600      1.0  0.29559  0.45663  0.65460  1.0000 -0.52962398
O   O601      1.0  0.19533  0.68020  0.37243  1.0000 -0.52962398
O   O602      1.0  0.80777  0.82290  0.12757  1.0000 -0.52962398
O   O603      1.0  0.69223  0.81980  0.01513  1.0000 -0.52962398
O   O604      1.0  0.30467  0.67710  0.48487  1.0000 -0.52962398
O   O605      1.0  0.37243  0.19533  0.68020  1.0000 -0.52962398
O   O606      1.0  0.12757  0.80777  0.82290  1.0000 -0.52962398
O   O607      1.0  0.01513  0.69223  0.81980  1.0000 -0.52962398
O   O608      1.0  0.48487  0.30467  0.67710  1.0000 -0.52962398
O   O609      1.0  0.68020  0.37243  0.19533  1.0000 -0.52962398
O   O610      1.0  0.82290  0.12757  0.80777  1.0000 -0.52962398
O   O611      1.0  0.81980  0.01513  0.69223  1.0000 -0.52962398
O   O612      1.0  0.67710  0.48487  0.30467  1.0000 -0.52962398
O   O613      1.0  0.80467  0.31980  0.62757  1.0000 -0.52962398
O   O614      1.0  0.19223  0.17710  0.87243  1.0000 -0.52962398
O   O615      1.0  0.30777  0.18020  0.98487  1.0000 -0.52962398
O   O616      1.0  0.69533  0.32290  0.51513  1.0000 -0.52962398
O   O617      1.0  0.62757  0.80467  0.31980  1.0000 -0.52962398
O   O618      1.0  0.87243  0.19223  0.17710  1.0000 -0.52962398
O   O619      1.0  0.98487  0.30777  0.18020  1.0000 -0.52962398
O   O620      1.0  0.51513  0.69533  0.32290  1.0000 -0.52962398
O   O621      1.0  0.31980  0.62757  0.80467  1.0000 -0.52962398
O   O622      1.0  0.17710  0.87243  0.19223  1.0000 -0.52962398
O   O623      1.0  0.18020  0.98487  0.30777  1.0000 -0.52962398
O   O624      1.0  0.32290  0.51513  0.69533  1.0000 -0.52962398
O   O625      1.0  0.13543  0.84121  0.49064  1.0000 -0.9976045161
O   O626      1.0  0.85057  0.64479  0.00936  1.0000 -1.007345255
O   O627      1.0  0.64943  0.65879  0.79422  1.0000 -1.007345255
O   O628      1.0  0.36457  0.85521  0.70578  1.0000 -1.007345255
O   O629      1.0  0.49064  0.13543  0.84121  1.0000 -1.007345255
O   O630      1.0  0.00936  0.85057  0.64479  1.0000 -1.007345255
O   O631      1.0  0.79422  0.64943  0.65879  1.0000 -1.007345255
O   O632      1.0  0.70578  0.36457  0.85521  1.0000 -0.9976045161
O   O633      1.0  0.84121  0.49064  0.13543  1.0000 -1.007345255
O   O634      1.0  0.64479  0.00936  0.85057  1.0000 -1.007345255
O   O635      1.0  0.65879  0.79422  0.64943  1.0000 -1.007345255
O   O636      1.0  0.85521  0.70578  0.36457  1.0000 -1.007345255
O   O637      1.0  0.86457  0.15879  0.50936  1.0000 -1.007345255
O   O638      1.0  0.14943  0.35521  0.99064  1.0000 -1.007345255
O   O639      1.0  0.35057  0.34121  0.20578  1.0000 -1.007345255
O   O640      1.0  0.63543  0.14479  0.29422  1.0000 -1.007345255
O   O641      1.0  0.50936  0.86457  0.15879  1.0000 -1.007345255
O   O642      1.0  0.99064  0.14943  0.35521  1.0000 -1.007345255
O   O643      1.0  0.20578  0.35057  0.34121  1.0000 -0.9976045161
O   O644      1.0  0.29422  0.63543  0.14479  1.0000 -1.007345255
O   O645      1.0  0.15879  0.50936  0.86457  1.0000 -1.007345255
O   O646      1.0  0.35521  0.99064  0.14943  1.0000 -1.007345255
O   O647      1.0  0.34121  0.20578  0.35057  1.0000 -0.9976045161
O   O648      1.0  0.14479  0.29422  0.63543  1.0000 -1.007345255
O   O649      1.0  0.28707  0.14218  0.64313  1.0000 -0.9976045161
O   O650      1.0  0.99905  0.64394  0.85687  1.0000 -0.9976045161
O   O651      1.0  0.50095  0.35782  0.64489  1.0000 -0.9976045161
O   O652      1.0  0.21293  0.85606  0.85511  1.0000 -0.9976045161
O   O653      1.0  0.64313  0.28707  0.14218  1.0000 -0.9976045161
O   O654      1.0  0.85687  0.99905  0.64394  1.0000 -0.9976045161
O   O655      1.0  0.64489  0.50095  0.35782  1.0000 -0.9945319445
O   O656      1.0  0.85511  0.21293  0.85606  1.0000 -0.9976045161
O   O657      1.0  0.14218  0.64313  0.28707  1.0000 -0.9976045161
O   O658      1.0  0.64394  0.85687  0.99905  1.0000 -0.9976045161
O   O659      1.0  0.35782  0.64489  0.50095  1.0000 -0.9976045161
O   O660      1.0  0.85606  0.85511  0.21293  1.0000 -0.9945319445
O   O661      1.0  0.71293  0.85782  0.35687  1.0000 -0.9945319445
O   O662      1.0  0.00095  0.35606  0.14313  1.0000 -0.9945319445
O   O663      1.0  0.49905  0.64218  0.35511  1.0000 -0.9945319445
O   O664      1.0  0.78707  0.14394  0.14489  1.0000 -0.9945319445
O   O665      1.0  0.35687  0.71293  0.85782  1.0000 -0.9976045161
O   O666      1.0  0.14313  0.00095  0.35606  1.0000 -0.9945319445
O   O667      1.0  0.35511  0.49905  0.64218  1.0000 -0.9976045161
O   O668      1.0  0.14489  0.78707  0.14394  1.0000 -0.9976045161
O   O669      1.0  0.85782  0.35687  0.71293  1.0000 -0.9976045161
O   O670      1.0  0.35606  0.14313  0.00095  1.0000 -0.9976045161
O   O671      1.0  0.64218  0.35511  0.49905  1.0000 -0.9945319445
O   O672      1.0  0.14394  0.14489  0.78707  1.0000 -0.9945319445
O   O673      1.0  0.39305  0.92204  0.69441  1.0000 -0.5182369793
O   O674      1.0  0.72763  0.69864  0.80559  1.0000 -0.5182369793
O   O675      1.0  0.77237  0.57796  0.97101  1.0000 -0.5182369793
O   O676      1.0  0.10695  0.80136  0.52899  1.0000 -0.5182369793
O   O677      1.0  0.69441  0.39305  0.92204  1.0000 -0.5182369793
O   O678      1.0  0.80559  0.72763  0.69864  1.0000 -0.5182369793
O   O679      1.0  0.97101  0.77237  0.57796  1.0000 -0.5182369793
O   O680      1.0  0.52899  0.10695  0.80136  1.0000 -0.5182369793
O   O681      1.0  0.92204  0.69441  0.39305  1.0000 -0.5182369793
O   O682      1.0  0.69864  0.80559  0.72763  1.0000 -0.5182369793
O   O683      1.0  0.57796  0.97101  0.77237  1.0000 -0.5182369793
O   O684      1.0  0.80136  0.52899  0.10695  1.0000 -0.5182369793
O   O685      1.0  0.60695  0.07796  0.30559  1.0000 -0.5182369793
O   O686      1.0  0.27237  0.30136  0.19441  1.0000 -0.5182369793
O   O687      1.0  0.22763  0.42204  0.02899  1.0000 -0.5182369793
O   O688      1.0  0.89305  0.19864  0.47101  1.0000 -0.5182369793
O   O689      1.0  0.30559  0.60695  0.07796  1.0000 -0.5182369793
O   O690      1.0  0.19441  0.27237  0.30136  1.0000 -0.5182369793
O   O691      1.0  0.02899  0.22763  0.42204  1.0000 -0.5182369793
O   O692      1.0  0.47101  0.89305  0.19864  1.0000 -0.5182369793
O   O693      1.0  0.07796  0.30559  0.60695  1.0000 -0.5182369793
O   O694      1.0  0.30136  0.19441  0.27237  1.0000 -0.5182369793
O   O695      1.0  0.42204  0.02899  0.22763  1.0000 -0.5182369793
O   O696      1.0  0.19864  0.47101  0.89305  1.0000 -0.5182369793
O   O697      1.0  0.21240  0.12451  0.64625  1.0000 -0.499674906
O   O698      1.0  0.97826  0.56615  0.85375  1.0000 -0.499674906
O   O699      1.0  0.52174  0.37549  0.58789  1.0000 -0.499674906
O   O700      1.0  0.28760  0.93385  0.91211  1.0000 -0.499674906
O   O701      1.0  0.64625  0.21240  0.12451  1.0000 -0.499674906
O   O702      1.0  0.85375  0.97826  0.56615  1.0000 -0.499674906
O   O703      1.0  0.58789  0.52174  0.37549  1.0000 -0.499674906
O   O704      1.0  0.91211  0.28760  0.93385  1.0000 -0.499674906
O   O705      1.0  0.12451  0.64625  0.21240  1.0000 -0.499674906
O   O706      1.0  0.56615  0.85375  0.97826  1.0000 -0.499674906
O   O707      1.0  0.37549  0.58789  0.52174  1.0000 -0.499674906
O   O708      1.0  0.93385  0.91211  0.28760  1.0000 -0.499674906
O   O709      1.0  0.78760  0.87549  0.35375  1.0000 -0.499674906
O   O710      1.0  0.02174  0.43385  0.14625  1.0000 -0.499674906
O   O711      1.0  0.47826  0.62451  0.41211  1.0000 -0.499674906
O   O712      1.0  0.71240  0.06615  0.08789  1.0000 -0.499674906
O   O713      1.0  0.35375  0.78760  0.87549  1.0000 -0.499674906
O   O714      1.0  0.14625  0.02174  0.43385  1.0000 -0.499674906
O   O715      1.0  0.41211  0.47826  0.62451  1.0000 -0.499674906
O   O716      1.0  0.08789  0.71240  0.06615  1.0000 -0.499674906
O   O717      1.0  0.87549  0.35375  0.78760  1.0000 -0.499674906
O   O718      1.0  0.43385  0.14625  0.02174  1.0000 -0.499674906
O   O719      1.0  0.62451  0.41211  0.47826  1.0000 -0.499674906
O   O720      1.0  0.06615  0.08789  0.71240  1.0000 -0.499674906
