# DDEC6 charges by PACMAN v1.1 (https://github.com/mtap-research/PACMAN-charge/)
data_2015[Cu][nts]3[ASR]1
_chemical_formula_sum              "Cu24 H136 C288 N72 O112"
_cell_length_a       31.5582
_cell_length_b       31.5582
_cell_length_c       31.5582
_cell_angle_alpha    120.288
_cell_angle_beta     120.288
_cell_angle_gamma    89.5013

_symmetry_space_group_name_H-M    "P 1"
_symmetry_Int_Tables_number       1

loop_
  _symmetry_equiv_pos_as_xyz
  'x, y, z'

loop_
  _atom_site_type_symbol
  _atom_site_label
  _atom_site_symmetry_multiplicity
  _atom_site_fract_x
  _atom_site_fract_y
  _atom_site_fract_z
  _atom_site_occupancy
  _atom_site_charge
Cu  Cu1       1.0  0.02646  0.97251  0.33421  1.0000 0.9132028827
Cu  Cu2       1.0  0.97251  0.63830  0.94605  1.0000 0.9132028827
Cu  Cu3       1.0  0.63830  0.69225  0.66579  1.0000 0.9132028827
Cu  Cu4       1.0  0.69225  0.02646  0.05395  1.0000 0.9132028827
Cu  Cu5       1.0  0.97354  0.02749  0.66579  1.0000 0.9132028827
Cu  Cu6       1.0  0.02749  0.36170  0.05395  1.0000 0.9132028827
Cu  Cu7       1.0  0.36170  0.30775  0.33421  1.0000 0.9132028827
Cu  Cu8       1.0  0.30775  0.97354  0.94605  1.0000 0.9132028827
Cu  Cu9       1.0  0.01983  0.97898  0.25097  1.0000 0.9132028827
Cu  Cu10      1.0  0.97898  0.72801  0.95915  1.0000 0.9132028827
Cu  Cu11      1.0  0.72801  0.76886  0.74903  1.0000 0.9132028827
Cu  Cu12      1.0  0.76886  0.01983  0.04085  1.0000 0.9132028827
Cu  Cu13      1.0  0.98017  0.02102  0.74903  1.0000 0.9132028827
Cu  Cu14      1.0  0.02102  0.27199  0.04085  1.0000 0.9132028827
Cu  Cu15      1.0  0.27199  0.23114  0.25097  1.0000 0.9132028827
Cu  Cu16      1.0  0.23114  0.98017  0.95915  1.0000 0.9132028827
Cu  Cu17      1.0  0.74863  0.03886  0.78749  1.0000 0.8632678398
Cu  Cu18      1.0  0.03886  0.25137  0.29023  1.0000 0.8632678398
Cu  Cu19      1.0  0.25137  0.96114  0.21251  1.0000 0.8632678398
Cu  Cu20      1.0  0.96114  0.74863  0.70977  1.0000 0.8632678398
Cu  Cu21      1.0  0.66548  0.05112  0.71660  1.0000 0.8632678398
Cu  Cu22      1.0  0.05112  0.33452  0.38564  1.0000 0.8632678398
Cu  Cu23      1.0  0.33452  0.94888  0.28340  1.0000 0.8632678398
Cu  Cu24      1.0  0.94888  0.66548  0.61436  1.0000 0.8632678398
H   H1        1.0  0.80860  0.00420  0.56160  1.0000 0.1495686588
H   H2        1.0  0.00420  0.44260  0.19560  1.0000 0.1495686588
H   H3        1.0  0.44260  0.24700  0.43840  1.0000 0.1495686588
H   H4        1.0  0.24700  0.80860  0.80440  1.0000 0.1495686588
H   H5        1.0  0.19140  0.99580  0.43840  1.0000 0.1495686588
H   H6        1.0  0.99580  0.55740  0.80440  1.0000 0.1495686588
H   H7        1.0  0.55740  0.75300  0.56160  1.0000 0.1495686588
H   H8        1.0  0.75300  0.19140  0.19560  1.0000 0.1495686588
H   H9        1.0  0.75080  0.98860  0.46840  1.0000 0.1391691438
H   H10       1.0  0.98860  0.52020  0.23780  1.0000 0.1391691438
H   H11       1.0  0.52020  0.28240  0.53160  1.0000 0.1391691438
H   H12       1.0  0.28240  0.75080  0.76220  1.0000 0.1391691438
H   H13       1.0  0.24920  0.01140  0.53160  1.0000 0.1391691438
H   H14       1.0  0.01140  0.47980  0.76220  1.0000 0.1391691438
H   H15       1.0  0.47980  0.71760  0.46840  1.0000 0.1391691438
H   H16       1.0  0.71760  0.24920  0.23780  1.0000 0.1391691438
H   H17       1.0  0.03150  0.96630  0.17180  1.0000 0.4390277469
H   H18       1.0  0.96630  0.79450  0.93480  1.0000 0.4342973167
H   H19       1.0  0.79450  0.85970  0.82820  1.0000 0.4342973167
H   H20       1.0  0.85970  0.03150  0.06520  1.0000 0.4342973167
H   H21       1.0  0.96850  0.03370  0.82820  1.0000 0.4342973167
H   H22       1.0  0.03370  0.20550  0.06520  1.0000 0.4342973167
H   H23       1.0  0.20550  0.14030  0.17180  1.0000 0.4390277469
H   H24       1.0  0.14030  0.96850  0.93480  1.0000 0.4342973167
H   H25       1.0  0.01880  0.98450  0.41570  1.0000 0.4390277469
H   H26       1.0  0.98450  0.56880  0.96570  1.0000 0.4390277469
H   H27       1.0  0.56880  0.60310  0.58430  1.0000 0.4390277469
H   H28       1.0  0.60310  0.01880  0.03430  1.0000 0.4390277469
H   H29       1.0  0.98120  0.01550  0.58430  1.0000 0.4390277469
H   H30       1.0  0.01550  0.43120  0.03430  1.0000 0.4390277469
H   H31       1.0  0.43120  0.39690  0.41570  1.0000 0.4390277469
H   H32       1.0  0.39690  0.98120  0.96570  1.0000 0.4390277469
H   H33       1.0  0.82870  0.02360  0.70710  1.0000 0.1495686588
H   H34       1.0  0.02360  0.31650  0.19490  1.0000 0.1495686588
H   H35       1.0  0.31650  0.12160  0.29290  1.0000 0.1495686588
H   H36       1.0  0.12160  0.82870  0.80510  1.0000 0.1495686588
H   H37       1.0  0.17130  0.97640  0.29290  1.0000 0.1495686588
H   H38       1.0  0.97640  0.68350  0.80510  1.0000 0.1495686588
H   H39       1.0  0.68350  0.87840  0.70710  1.0000 0.1495686588
H   H40       1.0  0.87840  0.17130  0.19490  1.0000 0.1495686588
H   H41       1.0  0.86420  0.98340  0.16520  1.0000 0.1620970134
H   H42       1.0  0.98340  0.81820  0.11920  1.0000 0.1620970134
H   H43       1.0  0.81820  0.69900  0.83480  1.0000 0.1620970134
H   H44       1.0  0.69900  0.86420  0.88080  1.0000 0.1620970134
H   H45       1.0  0.13580  0.01660  0.83480  1.0000 0.1620970134
H   H46       1.0  0.01660  0.18180  0.88080  1.0000 0.1620970134
H   H47       1.0  0.18180  0.30100  0.16520  1.0000 0.1620970134
H   H48       1.0  0.30100  0.13580  0.11920  1.0000 0.1620970134
H   H49       1.0  0.69070  0.01240  0.57970  1.0000 0.1495686588
H   H50       1.0  0.01240  0.43270  0.32170  1.0000 0.1495686588
H   H51       1.0  0.43270  0.11100  0.42030  1.0000 0.1495686588
H   H52       1.0  0.11100  0.69070  0.67830  1.0000 0.1495686588
H   H53       1.0  0.30930  0.98760  0.42030  1.0000 0.1495686588
H   H54       1.0  0.98760  0.56730  0.67830  1.0000 0.1495686588
H   H55       1.0  0.56730  0.88900  0.57970  1.0000 0.1495686588
H   H56       1.0  0.88900  0.30930  0.32170  1.0000 0.1495686588
H   H57       1.0  0.41430  0.93250  0.20180  1.0000 0.1495686588
H   H58       1.0  0.93250  0.73070  0.51820  1.0000 0.1495686588
H   H59       1.0  0.73070  0.21250  0.79820  1.0000 0.1495686588
H   H60       1.0  0.21250  0.41430  0.48180  1.0000 0.1495686588
H   H61       1.0  0.58570  0.06750  0.79820  1.0000 0.1495686588
H   H62       1.0  0.06750  0.26930  0.48180  1.0000 0.1495686588
H   H63       1.0  0.26930  0.78750  0.20180  1.0000 0.1495686588
H   H64       1.0  0.78750  0.58570  0.51820  1.0000 0.1495686588
H   H65       1.0  0.87030  0.96190  0.28280  1.0000 0.1495686588
H   H66       1.0  0.96190  0.67910  0.09160  1.0000 0.1495686588
H   H67       1.0  0.67910  0.58750  0.71720  1.0000 0.1495686588
H   H68       1.0  0.58750  0.87030  0.90840  1.0000 0.1495686588
H   H69       1.0  0.12970  0.03810  0.71720  1.0000 0.1495686588
H   H70       1.0  0.03810  0.32090  0.90840  1.0000 0.1495686588
H   H71       1.0  0.32090  0.41250  0.28280  1.0000 0.1495686588
H   H72       1.0  0.41250  0.12970  0.09160  1.0000 0.1495686588
H   H73       1.0  0.40510  0.94320  0.07610  1.0000 0.1495686588
H   H74       1.0  0.94320  0.86710  0.53810  1.0000 0.1495686588
H   H75       1.0  0.86710  0.32900  0.92390  1.0000 0.1495686588
H   H76       1.0  0.32900  0.40510  0.46190  1.0000 0.1495686588
H   H77       1.0  0.59490  0.05680  0.92390  1.0000 0.1495686588
H   H78       1.0  0.05680  0.13290  0.46190  1.0000 0.1495686588
H   H79       1.0  0.13290  0.67100  0.07610  1.0000 0.1495686588
H   H80       1.0  0.67100  0.59490  0.53810  1.0000 0.1495686588
H   H81       1.0  0.74410  0.98440  0.17930  1.0000 0.1495686588
H   H82       1.0  0.98440  0.80510  0.24030  1.0000 0.1495686588
H   H83       1.0  0.80510  0.56480  0.82070  1.0000 0.1495686588
H   H84       1.0  0.56480  0.74410  0.75970  1.0000 0.1495686588
H   H85       1.0  0.25590  0.01560  0.82070  1.0000 0.1495686588
H   H86       1.0  0.01560  0.19490  0.75970  1.0000 0.1495686588
H   H87       1.0  0.19490  0.43520  0.17930  1.0000 0.1495686588
H   H88       1.0  0.43520  0.25590  0.24030  1.0000 0.1495686588
H   H89       1.0  0.70810  0.96800  0.22090  1.0000 0.1391691438
H   H90       1.0  0.96800  0.74710  0.25990  1.0000 0.1391691438
H   H91       1.0  0.74710  0.48720  0.77910  1.0000 0.1391691438
H   H92       1.0  0.48720  0.70810  0.74010  1.0000 0.1391691438
H   H93       1.0  0.29190  0.03200  0.77910  1.0000 0.1391691438
H   H94       1.0  0.03200  0.25290  0.74010  1.0000 0.1391691438
H   H95       1.0  0.25290  0.51280  0.22090  1.0000 0.1391691438
H   H96       1.0  0.51280  0.29190  0.25990  1.0000 0.1391691438
H   H97       1.0  0.63450  0.94810  0.21960  1.0000 0.123988366
H   H98       1.0  0.94810  0.72850  0.31360  1.0000 0.1256729522
H   H99       1.0  0.72850  0.41490  0.78040  1.0000 0.1256729522
H   H100      1.0  0.41490  0.63450  0.68640  1.0000 0.1256729522
H   H101      1.0  0.36550  0.05190  0.78040  1.0000 0.1256729522
H   H102      1.0  0.05190  0.27150  0.68640  1.0000 0.123988366
H   H103      1.0  0.27150  0.58510  0.21960  1.0000 0.1256729522
H   H104      1.0  0.58510  0.36550  0.31360  1.0000 0.1256729522
H   H105      1.0  0.73640  0.97740  0.38220  1.0000 0.123988366
H   H106      1.0  0.97740  0.59520  0.24100  1.0000 0.123988366
H   H107      1.0  0.59520  0.35420  0.61780  1.0000 0.123988366
H   H108      1.0  0.35420  0.73640  0.75900  1.0000 0.123988366
H   H109      1.0  0.26360  0.02260  0.61780  1.0000 0.123988366
H   H110      1.0  0.02260  0.40480  0.75900  1.0000 0.123988366
H   H111      1.0  0.40480  0.64580  0.38220  1.0000 0.123988366
H   H112      1.0  0.64580  0.26360  0.24100  1.0000 0.123988366
H   H113      1.0  0.50530  0.95350  0.24660  1.0000 0.1391691438
H   H114      1.0  0.95350  0.70690  0.44820  1.0000 0.1391691438
H   H115      1.0  0.70690  0.25870  0.75340  1.0000 0.1391691438
H   H116      1.0  0.25870  0.50530  0.55180  1.0000 0.1391691438
H   H117      1.0  0.49470  0.04650  0.75340  1.0000 0.1391691438
H   H118      1.0  0.04650  0.29310  0.55180  1.0000 0.1391691438
H   H119      1.0  0.29310  0.74130  0.24660  1.0000 0.1391691438
H   H120      1.0  0.74130  0.49470  0.44820  1.0000 0.1391691438
H   H121      1.0  0.58750  0.96210  0.32220  1.0000 0.123988366
H   H122      1.0  0.96210  0.63990  0.37460  1.0000 0.123988366
H   H123      1.0  0.63990  0.26530  0.67780  1.0000 0.123988366
H   H124      1.0  0.26530  0.58750  0.62540  1.0000 0.123988366
H   H125      1.0  0.41250  0.03790  0.67780  1.0000 0.123988366
H   H126      1.0  0.03790  0.36010  0.62540  1.0000 0.123988366
H   H127      1.0  0.36010  0.73470  0.32220  1.0000 0.123988366
H   H128      1.0  0.73470  0.41250  0.37460  1.0000 0.123988366
H   H129      1.0  0.28540  0.94660  0.09080  1.0000 0.1620970134
H   H130      1.0  0.94660  0.85580  0.66120  1.0000 0.1620970134
H   H131      1.0  0.85580  0.19460  0.90920  1.0000 0.1620970134
H   H132      1.0  0.19460  0.28540  0.33880  1.0000 0.1620970134
H   H133      1.0  0.71460  0.05340  0.90920  1.0000 0.1620970134
H   H134      1.0  0.05340  0.14420  0.33880  1.0000 0.1620970134
H   H135      1.0  0.14420  0.80540  0.09080  1.0000 0.1620970134
H   H136      1.0  0.80540  0.71460  0.66120  1.0000 0.1620970134
C   C1        1.0  0.88243  0.01669  0.66260  1.0000 0.5822023405
C   C2        1.0  0.01669  0.35409  0.13426  1.0000 0.5822023405
C   C3        1.0  0.35409  0.21983  0.33740  1.0000 0.5822023405
C   C4        1.0  0.21983  0.88243  0.86574  1.0000 0.5822023405
C   C5        1.0  0.11757  0.98331  0.33740  1.0000 0.5822023405
C   C6        1.0  0.98331  0.64591  0.86574  1.0000 0.5822023405
C   C7        1.0  0.64591  0.78017  0.66260  1.0000 0.5822023405
C   C8        1.0  0.78017  0.11757  0.13426  1.0000 0.5822023405
C   C9        1.0  0.82682  0.01396  0.63774  1.0000 0.0096282775
C   C10       1.0  0.01396  0.37622  0.18714  1.0000 0.0096282775
C   C11       1.0  0.37622  0.18908  0.36226  1.0000 0.0096282775
C   C12       1.0  0.18908  0.82682  0.81286  1.0000 0.0096282775
C   C13       1.0  0.17318  0.98604  0.36226  1.0000 0.0096282775
C   C14       1.0  0.98604  0.62378  0.81286  1.0000 0.0096282775
C   C15       1.0  0.62378  0.81092  0.63774  1.0000 0.0096282775
C   C16       1.0  0.81092  0.17318  0.18714  1.0000 0.0096282775
C   C17       1.0  0.79552  0.00726  0.58322  1.0000 -0.1686144609
C   C18       1.0  0.00726  0.42404  0.21174  1.0000 -0.1686144609
C   C19       1.0  0.42404  0.21230  0.41678  1.0000 -0.1686144609
C   C20       1.0  0.21230  0.79552  0.78826  1.0000 -0.1686144609
C   C21       1.0  0.20448  0.99274  0.41678  1.0000 -0.1686144609
C   C22       1.0  0.99274  0.57596  0.78826  1.0000 -0.1686144609
C   C23       1.0  0.57596  0.78770  0.58322  1.0000 -0.1686144609
C   C24       1.0  0.78770  0.20448  0.21174  1.0000 -0.1686144609
C   C25       1.0  0.74396  0.00519  0.56103  1.0000 0.1495686588
C   C26       1.0  0.00519  0.44416  0.26123  1.0000 0.1495686588
C   C27       1.0  0.44416  0.18293  0.43897  1.0000 0.1495686588
C   C28       1.0  0.18293  0.74396  0.73877  1.0000 0.1495686588
C   C29       1.0  0.25604  0.99481  0.43897  1.0000 0.1495686588
C   C30       1.0  0.99481  0.55584  0.73877  1.0000 0.1495686588
C   C31       1.0  0.55584  0.81707  0.56103  1.0000 0.1495686588
C   C32       1.0  0.81707  0.25604  0.26123  1.0000 0.1495686588
C   C33       1.0  0.71935  0.98862  0.46385  1.0000 -0.1761217928
C   C34       1.0  0.98862  0.52477  0.26927  1.0000 -0.1761217928
C   C35       1.0  0.52477  0.25550  0.53615  1.0000 -0.1761217928
C   C36       1.0  0.25550  0.71935  0.73073  1.0000 -0.1761217928
C   C37       1.0  0.28065  0.01138  0.53615  1.0000 -0.1761217928
C   C38       1.0  0.01138  0.47523  0.73073  1.0000 -0.1761217928
C   C39       1.0  0.47523  0.74450  0.46385  1.0000 -0.1761217928
C   C40       1.0  0.74450  0.28065  0.26927  1.0000 -0.1761217928
C   C41       1.0  0.80768  0.01973  0.67075  1.0000 -0.1004717369
C   C42       1.0  0.01973  0.34898  0.21205  1.0000 -0.1004717369
C   C43       1.0  0.34898  0.13693  0.32925  1.0000 -0.1004717369
C   C44       1.0  0.13693  0.80768  0.78795  1.0000 -0.1004717369
C   C45       1.0  0.19232  0.98027  0.32925  1.0000 -0.1004717369
C   C46       1.0  0.98027  0.65102  0.78795  1.0000 -0.1004717369
C   C47       1.0  0.65102  0.86307  0.67075  1.0000 -0.1004717369
C   C48       1.0  0.86307  0.19232  0.21205  1.0000 -0.1004717369
C   C49       1.0  0.84907  0.98109  0.18310  1.0000 -0.1004717369
C   C50       1.0  0.98109  0.79799  0.13202  1.0000 -0.1004717369
C   C51       1.0  0.79799  0.66597  0.81690  1.0000 -0.1004717369
C   C52       1.0  0.66597  0.84907  0.86798  1.0000 -0.1004717369
C   C53       1.0  0.15093  0.01891  0.81690  1.0000 -0.1004717369
C   C54       1.0  0.01891  0.20201  0.86798  1.0000 -0.1004717369
C   C55       1.0  0.20201  0.33403  0.18310  1.0000 -0.1004717369
C   C56       1.0  0.33403  0.15093  0.13202  1.0000 -0.1004717369
C   C57       1.0  0.87546  0.97272  0.22738  1.0000 0.0096282775
C   C58       1.0  0.97272  0.74534  0.09726  1.0000 0.0096282775
C   C59       1.0  0.74534  0.64808  0.77262  1.0000 0.0096282775
C   C60       1.0  0.64808  0.87546  0.90274  1.0000 0.0096282775
C   C61       1.0  0.12454  0.02728  0.77262  1.0000 0.0096282775
C   C62       1.0  0.02728  0.25466  0.90274  1.0000 0.0096282775
C   C63       1.0  0.25466  0.35192  0.22738  1.0000 0.0096282775
C   C64       1.0  0.35192  0.12454  0.09726  1.0000 0.0096282775
C   C65       1.0  0.79987  0.98609  0.16508  1.0000 0.0096282775
C   C66       1.0  0.98609  0.82101  0.18622  1.0000 0.0096282775
C   C67       1.0  0.82101  0.63479  0.83492  1.0000 0.0096282775
C   C68       1.0  0.63479  0.79987  0.81378  1.0000 0.0096282775
C   C69       1.0  0.20013  0.01391  0.83492  1.0000 0.0096282775
C   C70       1.0  0.01391  0.17899  0.81378  1.0000 0.0096282775
C   C71       1.0  0.17899  0.36521  0.16508  1.0000 0.0096282775
C   C72       1.0  0.36521  0.20013  0.18622  1.0000 0.0096282775
C   C73       1.0  0.77296  0.99849  0.12017  1.0000 0.5822023405
C   C74       1.0  0.99849  0.87832  0.22553  1.0000 0.5822023405
C   C75       1.0  0.87832  0.65279  0.87983  1.0000 0.5822023405
C   C76       1.0  0.65279  0.77296  0.77447  1.0000 0.5822023405
C   C77       1.0  0.22704  0.00151  0.87983  1.0000 0.5822023405
C   C78       1.0  0.00151  0.12168  0.77447  1.0000 0.5822023405
C   C79       1.0  0.12168  0.34721  0.12017  1.0000 0.5822023405
C   C80       1.0  0.34721  0.22704  0.22553  1.0000 0.5822023405
C   C81       1.0  0.75730  0.01960  0.64942  1.0000 -0.0005517226
C   C82       1.0  0.01960  0.37018  0.26230  1.0000 -0.0005517226
C   C83       1.0  0.37018  0.10788  0.35058  1.0000 -0.0005517226
C   C84       1.0  0.10788  0.75730  0.73770  1.0000 -0.0005517226
C   C85       1.0  0.24270  0.98040  0.35058  1.0000 -0.0005517226
C   C86       1.0  0.98040  0.62982  0.73770  1.0000 -0.0005517226
C   C87       1.0  0.62982  0.89212  0.64942  1.0000 -0.0005517226
C   C88       1.0  0.89212  0.24270  0.26230  1.0000 -0.0005517226
C   C89       1.0  0.72461  0.01235  0.59396  1.0000 -0.1502667988
C   C90       1.0  0.01235  0.41839  0.28774  1.0000 -0.1502667988
C   C91       1.0  0.41839  0.13065  0.40604  1.0000 -0.1502667988
C   C92       1.0  0.13065  0.72461  0.71226  1.0000 -0.1502667988
C   C93       1.0  0.27539  0.98765  0.40604  1.0000 -0.1502667988
C   C94       1.0  0.98765  0.58161  0.71226  1.0000 -0.1502667988
C   C95       1.0  0.58161  0.86935  0.59396  1.0000 -0.1502667988
C   C96       1.0  0.86935  0.27539  0.28774  1.0000 -0.1502667988
C   C97       1.0  0.39581  0.93575  0.17010  1.0000 -0.1686144609
C   C98       1.0  0.93575  0.76565  0.53994  1.0000 -0.1686144609
C   C99       1.0  0.76565  0.22571  0.82990  1.0000 -0.1596422216
C   C100      1.0  0.22571  0.39581  0.46006  1.0000 -0.1686144609
C   C101      1.0  0.60419  0.06425  0.82990  1.0000 -0.1686144609
C   C102      1.0  0.06425  0.23435  0.46006  1.0000 -0.1686144609
C   C103      1.0  0.23435  0.77429  0.17010  1.0000 -0.1686144609
C   C104      1.0  0.77429  0.60419  0.53994  1.0000 -0.1686144609
C   C105      1.0  0.85293  0.96827  0.25366  1.0000 -0.1502667988
C   C106      1.0  0.96827  0.71461  0.11534  1.0000 -0.1502667988
C   C107      1.0  0.71461  0.59927  0.74634  1.0000 -0.1502667988
C   C108      1.0  0.59927  0.85293  0.88466  1.0000 -0.1502667988
C   C109      1.0  0.14707  0.03173  0.74634  1.0000 -0.1502667988
C   C110      1.0  0.03173  0.28539  0.88466  1.0000 -0.1502667988
C   C111      1.0  0.28539  0.40073  0.25366  1.0000 -0.1502667988
C   C112      1.0  0.40073  0.14707  0.11534  1.0000 -0.1502667988
C   C113      1.0  0.92985  0.97095  0.24964  1.0000 0.5822023405
C   C114      1.0  0.97095  0.72131  0.04110  1.0000 0.5822023405
C   C115      1.0  0.72131  0.68021  0.75036  1.0000 0.5822023405
C   C116      1.0  0.68021  0.92985  0.95890  1.0000 0.5822023405
C   C117      1.0  0.07015  0.02905  0.75036  1.0000 0.5822023405
C   C118      1.0  0.02905  0.27869  0.95890  1.0000 0.5822023405
C   C119      1.0  0.27869  0.31979  0.24964  1.0000 0.5822023405
C   C120      1.0  0.31979  0.07015  0.04110  1.0000 0.5822023405
C   C121      1.0  0.73736  0.02863  0.68649  1.0000 0.5918385507
C   C122      1.0  0.02863  0.34214  0.29127  1.0000 0.5918385507
C   C123      1.0  0.34214  0.05087  0.31351  1.0000 0.5918385507
C   C124      1.0  0.05087  0.73736  0.70873  1.0000 0.5918385507
C   C125      1.0  0.26264  0.97137  0.31351  1.0000 0.5918385507
C   C126      1.0  0.97137  0.65786  0.70873  1.0000 0.5918385507
C   C127      1.0  0.65786  0.94913  0.68649  1.0000 0.5918385507
C   C128      1.0  0.94913  0.26264  0.29127  1.0000 0.5918385507
C   C129      1.0  0.41740  0.93669  0.14153  1.0000 0.1495686588
C   C130      1.0  0.93669  0.79516  0.51929  1.0000 0.1495686588
C   C131      1.0  0.79516  0.27587  0.85847  1.0000 0.1495686588
C   C132      1.0  0.27587  0.41740  0.48071  1.0000 0.1495686588
C   C133      1.0  0.58260  0.06331  0.85847  1.0000 0.1495686588
C   C134      1.0  0.06331  0.20484  0.48071  1.0000 0.1495686588
C   C135      1.0  0.20484  0.72413  0.14153  1.0000 0.1495686588
C   C136      1.0  0.72413  0.58260  0.51929  1.0000 0.1495686588
C   C137      1.0  0.39021  0.94195  0.09466  1.0000 -0.1502667988
C   C138      1.0  0.94195  0.84729  0.55174  1.0000 -0.1502667988
C   C139      1.0  0.84729  0.29555  0.90534  1.0000 -0.1502667988
C   C140      1.0  0.29555  0.39021  0.44826  1.0000 -0.1502667988
C   C141      1.0  0.60979  0.05805  0.90534  1.0000 -0.1502667988
C   C142      1.0  0.05805  0.15271  0.44826  1.0000 -0.1502667988
C   C143      1.0  0.15271  0.70445  0.09466  1.0000 -0.1502667988
C   C144      1.0  0.70445  0.60979  0.55174  1.0000 -0.1502667988
C   C145      1.0  0.77713  0.98174  0.19137  1.0000 -0.1686144609
C   C146      1.0  0.98174  0.79037  0.20461  1.0000 -0.1686144609
C   C147      1.0  0.79037  0.58576  0.80863  1.0000 -0.1686144609
C   C148      1.0  0.58576  0.77713  0.79539  1.0000 -0.1686144609
C   C149      1.0  0.22287  0.01826  0.80863  1.0000 -0.1686144609
C   C150      1.0  0.01826  0.20963  0.79539  1.0000 -0.1686144609
C   C151      1.0  0.20963  0.41424  0.19137  1.0000 -0.1686144609
C   C152      1.0  0.41424  0.22287  0.20461  1.0000 -0.1686144609
C   C153      1.0  0.80435  0.97338  0.23589  1.0000 0.1495686588
C   C154      1.0  0.97338  0.73749  0.16903  1.0000 0.1495686588
C   C155      1.0  0.73749  0.56846  0.76411  1.0000 0.1495686588
C   C156      1.0  0.56846  0.80435  0.83097  1.0000 0.1495686588
C   C157      1.0  0.19565  0.02662  0.76411  1.0000 0.1495686588
C   C158      1.0  0.02662  0.26251  0.83097  1.0000 0.1495686588
C   C159      1.0  0.26251  0.43154  0.23589  1.0000 0.1495686588
C   C160      1.0  0.43154  0.19565  0.16903  1.0000 0.1495686588
C   C161      1.0  0.73382  0.96650  0.29352  1.0000 0.1687482853
C   C162      1.0  0.96650  0.67298  0.23268  1.0000 0.1620970134
C   C163      1.0  0.67298  0.44030  0.70648  1.0000 0.1620970134
C   C164      1.0  0.44030  0.73382  0.76732  1.0000 0.1687482853
C   C165      1.0  0.26618  0.03350  0.70648  1.0000 0.1620970134
C   C166      1.0  0.03350  0.32702  0.76732  1.0000 0.1687482853
C   C167      1.0  0.32702  0.55970  0.29352  1.0000 0.1687482853
C   C168      1.0  0.55970  0.26618  0.23268  1.0000 0.1620970134
C   C169      1.0  0.73542  0.96824  0.25252  1.0000 -0.1596422216
C   C170      1.0  0.96824  0.71572  0.23282  1.0000 -0.1596422216
C   C171      1.0  0.71572  0.48290  0.74748  1.0000 -0.1596422216
C   C172      1.0  0.48290  0.73542  0.76718  1.0000 -0.1596422216
C   C173      1.0  0.26458  0.03176  0.74748  1.0000 -0.1596422216
C   C174      1.0  0.03176  0.28428  0.76718  1.0000 -0.1596422216
C   C175      1.0  0.28428  0.51710  0.25252  1.0000 -0.1596422216
C   C176      1.0  0.51710  0.26458  0.23282  1.0000 -0.1596422216
C   C177      1.0  0.54999  0.94277  0.21502  1.0000 0.1620970134
C   C178      1.0  0.94277  0.72775  0.39278  1.0000 0.1687482853
C   C179      1.0  0.72775  0.33497  0.78498  1.0000 0.1687482853
C   C180      1.0  0.33497  0.54999  0.60722  1.0000 0.1620970134
C   C181      1.0  0.45001  0.05723  0.78498  1.0000 0.1620970134
C   C182      1.0  0.05723  0.27225  0.60722  1.0000 0.1687482853
C   C183      1.0  0.27225  0.66503  0.21502  1.0000 0.1620970134
C   C184      1.0  0.66503  0.45001  0.39278  1.0000 0.1687482853
C   C185      1.0  0.64192  0.95436  0.25512  1.0000 -0.1596422216
C   C186      1.0  0.95436  0.69924  0.31244  1.0000 -0.1502667988
C   C187      1.0  0.69924  0.38680  0.74488  1.0000 -0.1502667988
C   C188      1.0  0.38680  0.64192  0.68756  1.0000 -0.1502667988
C   C189      1.0  0.35808  0.04564  0.74488  1.0000 -0.1502667988
C   C190      1.0  0.04564  0.30076  0.68756  1.0000 -0.1502667988
C   C191      1.0  0.30076  0.61320  0.25512  1.0000 -0.1502667988
C   C192      1.0  0.61320  0.35808  0.31244  1.0000 -0.1502667988
C   C193      1.0  0.70302  0.97263  0.35299  1.0000 -0.1502667988
C   C194      1.0  0.97263  0.61964  0.26961  1.0000 -0.1502667988
C   C195      1.0  0.61964  0.35003  0.64701  1.0000 -0.1502667988
C   C196      1.0  0.35003  0.70302  0.73039  1.0000 -0.1502667988
C   C197      1.0  0.29698  0.02737  0.64701  1.0000 -0.1502667988
C   C198      1.0  0.02737  0.38036  0.73039  1.0000 -0.1502667988
C   C199      1.0  0.38036  0.64997  0.35299  1.0000 -0.1502667988
C   C200      1.0  0.64997  0.29698  0.26961  1.0000 -0.1502667988
C   C201      1.0  0.50738  0.94588  0.21532  1.0000 -0.1686144609
C   C202      1.0  0.94588  0.73056  0.43850  1.0000 -0.1686144609
C   C203      1.0  0.73056  0.29206  0.78468  1.0000 -0.1686144609
C   C204      1.0  0.29206  0.50738  0.56150  1.0000 -0.1686144609
C   C205      1.0  0.49262  0.05412  0.78468  1.0000 -0.1686144609
C   C206      1.0  0.05412  0.26944  0.56150  1.0000 -0.1686144609
C   C207      1.0  0.26944  0.70794  0.21532  1.0000 -0.1686144609
C   C208      1.0  0.70794  0.49262  0.43850  1.0000 -0.1686144609
C   C209      1.0  0.60257  0.95389  0.26348  1.0000 0.077996131
C   C210      1.0  0.95389  0.69041  0.35132  1.0000 0.077996131
C   C211      1.0  0.69041  0.33909  0.73652  1.0000 0.077996131
C   C212      1.0  0.33909  0.60257  0.64868  1.0000 0.077996131
C   C213      1.0  0.39743  0.04611  0.73652  1.0000 0.077996131
C   C214      1.0  0.04611  0.30959  0.64868  1.0000 0.077996131
C   C215      1.0  0.30959  0.66091  0.26348  1.0000 0.077996131
C   C216      1.0  0.66091  0.39743  0.35132  1.0000 0.077996131
C   C217      1.0  0.67422  0.98100  0.41542  1.0000 0.1687482853
C   C218      1.0  0.98100  0.56558  0.30678  1.0000 0.1687482853
C   C219      1.0  0.56558  0.25880  0.58458  1.0000 0.1687482853
C   C220      1.0  0.25880  0.67422  0.69322  1.0000 0.1687482853
C   C221      1.0  0.32578  0.01900  0.58458  1.0000 0.1687482853
C   C222      1.0  0.01900  0.43442  0.69322  1.0000 0.1687482853
C   C223      1.0  0.43442  0.74120  0.41542  1.0000 0.1687482853
C   C224      1.0  0.74120  0.32578  0.30678  1.0000 0.1687482853
C   C225      1.0  0.69211  0.96418  0.30013  1.0000 0.0678268591
C   C226      1.0  0.96418  0.66405  0.27207  1.0000 0.0678268591
C   C227      1.0  0.66405  0.39198  0.69987  1.0000 0.0678268591
C   C228      1.0  0.39198  0.69211  0.72793  1.0000 0.0678268591
C   C229      1.0  0.30789  0.03582  0.69987  1.0000 0.0678268591
C   C230      1.0  0.03582  0.33595  0.72793  1.0000 0.0678268591
C   C231      1.0  0.33595  0.60802  0.30013  1.0000 0.0678268591
C   C232      1.0  0.60802  0.30789  0.27207  1.0000 0.0678268591
C   C233      1.0  0.61392  0.96314  0.31706  1.0000 -0.1502667988
C   C234      1.0  0.96314  0.64608  0.34922  1.0000 -0.1502667988
C   C235      1.0  0.64608  0.29686  0.68294  1.0000 -0.1502667988
C   C236      1.0  0.29686  0.61392  0.65078  1.0000 -0.1502667988
C   C237      1.0  0.38608  0.03686  0.68294  1.0000 -0.1502667988
C   C238      1.0  0.03686  0.35392  0.65078  1.0000 -0.1502667988
C   C239      1.0  0.35392  0.70314  0.31706  1.0000 -0.1502667988
C   C240      1.0  0.70314  0.38608  0.34922  1.0000 -0.1502667988
C   C241      1.0  0.66425  0.97386  0.36219  1.0000 0.0678268591
C   C242      1.0  0.97386  0.61167  0.30961  1.0000 0.0678268591
C   C243      1.0  0.61167  0.30206  0.63781  1.0000 0.0678268591
C   C244      1.0  0.30206  0.66425  0.69039  1.0000 0.0678268591
C   C245      1.0  0.33575  0.02614  0.63781  1.0000 0.0678268591
C   C246      1.0  0.02614  0.38833  0.69039  1.0000 0.0678268591
C   C247      1.0  0.38833  0.69794  0.36219  1.0000 0.0678268591
C   C248      1.0  0.69794  0.33575  0.30961  1.0000 0.0678268591
C   C249      1.0  0.32463  0.94222  0.18497  1.0000 0.5918385507
C   C250      1.0  0.94222  0.75725  0.61759  1.0000 0.5918385507
C   C251      1.0  0.75725  0.13966  0.81503  1.0000 0.5918385507
C   C252      1.0  0.13966  0.32463  0.38241  1.0000 0.5918385507
C   C253      1.0  0.67537  0.05778  0.81503  1.0000 0.5918385507
C   C254      1.0  0.05778  0.24275  0.38241  1.0000 0.5918385507
C   C255      1.0  0.24275  0.86034  0.18497  1.0000 0.5918385507
C   C256      1.0  0.86034  0.67537  0.61759  1.0000 0.5918385507
C   C257      1.0  0.34670  0.93967  0.15141  1.0000 0.0096282775
C   C258      1.0  0.93967  0.78826  0.59297  1.0000 0.0096282775
C   C259      1.0  0.78826  0.19529  0.84859  1.0000 0.0096282775
C   C260      1.0  0.19529  0.34670  0.40703  1.0000 0.0096282775
C   C261      1.0  0.65330  0.06033  0.84859  1.0000 0.0096282775
C   C262      1.0  0.06033  0.21174  0.40703  1.0000 0.0096282775
C   C263      1.0  0.21174  0.80471  0.15141  1.0000 0.0096282775
C   C264      1.0  0.80471  0.65330  0.59297  1.0000 0.0096282775
C   C265      1.0  0.31864  0.94431  0.10369  1.0000 -0.1004717369
C   C266      1.0  0.94431  0.84062  0.62567  1.0000 -0.1004717369
C   C267      1.0  0.84062  0.21495  0.89631  1.0000 -0.1004717369
C   C268      1.0  0.21495  0.31864  0.37433  1.0000 -0.1004717369
C   C269      1.0  0.68136  0.05569  0.89631  1.0000 -0.1004717369
C   C270      1.0  0.05569  0.15938  0.37433  1.0000 -0.1004717369
C   C271      1.0  0.15938  0.78505  0.10369  1.0000 -0.1004717369
C   C272      1.0  0.78505  0.68136  0.62567  1.0000 -0.1004717369
C   C273      1.0  0.34082  0.94546  0.07554  1.0000 0.0096282775
C   C274      1.0  0.94546  0.86992  0.60464  1.0000 0.0096282775
C   C275      1.0  0.86992  0.26528  0.92446  1.0000 0.0096282775
C   C276      1.0  0.26528  0.34082  0.39536  1.0000 0.0096282775
C   C277      1.0  0.65918  0.05454  0.92446  1.0000 0.0096282775
C   C278      1.0  0.05454  0.13008  0.39536  1.0000 0.0096282775
C   C279      1.0  0.13008  0.73472  0.07554  1.0000 0.0096282775
C   C280      1.0  0.73472  0.65918  0.60464  1.0000 0.0096282775
C   C281      1.0  0.31281  0.95418  0.02689  1.0000 0.5822023405
C   C282      1.0  0.95418  0.92729  0.64137  1.0000 0.5822023405
C   C283      1.0  0.92729  0.28592  0.97311  1.0000 0.5822023405
C   C284      1.0  0.28592  0.31281  0.35863  1.0000 0.5822023405
C   C285      1.0  0.68719  0.04582  0.97311  1.0000 0.5822023405
C   C286      1.0  0.04582  0.07271  0.35863  1.0000 0.5822023405
C   C287      1.0  0.07271  0.71408  0.02689  1.0000 0.5822023405
C   C288      1.0  0.71408  0.68719  0.64137  1.0000 0.5822023405
N   N1        1.0  0.71003  0.99619  0.50390  1.0000 0.1620970134
N   N2        1.0  0.99619  0.49229  0.28616  1.0000 0.1620970134
N   N3        1.0  0.49229  0.20613  0.49610  1.0000 0.1620970134
N   N4        1.0  0.20613  0.71003  0.71384  1.0000 0.1620970134
N   N5        1.0  0.28997  0.00381  0.49610  1.0000 0.1620970134
N   N6        1.0  0.00381  0.50771  0.71384  1.0000 0.1620970134
N   N7        1.0  0.50771  0.79387  0.50390  1.0000 0.1620970134
N   N8        1.0  0.79387  0.28997  0.28616  1.0000 0.1620970134
N   N9        1.0  0.46862  0.93599  0.16227  1.0000 0.1620970134
N   N10       1.0  0.93599  0.77372  0.46737  1.0000 0.1620970134
N   N11       1.0  0.77372  0.30635  0.83773  1.0000 0.1620970134
N   N12       1.0  0.30635  0.46862  0.53263  1.0000 0.1620970134
N   N13       1.0  0.53138  0.06401  0.83773  1.0000 0.1620970134
N   N14       1.0  0.06401  0.22628  0.53263  1.0000 0.1620970134
N   N15       1.0  0.22628  0.69365  0.16227  1.0000 0.1620970134
N   N16       1.0  0.69365  0.53138  0.46737  1.0000 0.1620970134
N   N17       1.0  0.78276  0.97023  0.26495  1.0000 0.1620970134
N   N18       1.0  0.97023  0.70528  0.18747  1.0000 0.1620970134
N   N19       1.0  0.70528  0.51781  0.73505  1.0000 0.1620970134
N   N20       1.0  0.51781  0.78276  0.81253  1.0000 0.1620970134
N   N21       1.0  0.21724  0.02977  0.73505  1.0000 0.1687482853
N   N22       1.0  0.02977  0.29472  0.81253  1.0000 0.1620970134
N   N23       1.0  0.29472  0.48219  0.26495  1.0000 0.1687482853
N   N24       1.0  0.48219  0.21724  0.18747  1.0000 0.1620970134
N   N25       1.0  0.63966  0.98377  0.42709  1.0000 -0.2293657264
N   N26       1.0  0.98377  0.55668  0.34411  1.0000 -0.2293657264
N   N27       1.0  0.55668  0.21257  0.57291  1.0000 -0.2293657264
N   N28       1.0  0.21257  0.63966  0.65589  1.0000 -0.2293657264
N   N29       1.0  0.36034  0.01623  0.57291  1.0000 -0.2293657264
N   N30       1.0  0.01623  0.44332  0.65589  1.0000 -0.2293657264
N   N31       1.0  0.44332  0.78743  0.42709  1.0000 -0.2293657264
N   N32       1.0  0.78743  0.36034  0.34411  1.0000 -0.2293657264
N   N33       1.0  0.66040  0.98726  0.47894  1.0000 -0.1098632431
N   N34       1.0  0.98726  0.50832  0.32686  1.0000 -0.1153988792
N   N35       1.0  0.50832  0.18146  0.52106  1.0000 -0.1153988792
N   N36       1.0  0.18146  0.66040  0.67314  1.0000 -0.1098632431
N   N37       1.0  0.33960  0.01274  0.52106  1.0000 -0.1153988792
N   N38       1.0  0.01274  0.49168  0.67314  1.0000 -0.1153988792
N   N39       1.0  0.49168  0.81854  0.47894  1.0000 -0.1098632431
N   N40       1.0  0.81854  0.33960  0.32686  1.0000 -0.1098632431
N   N41       1.0  0.53734  0.93460  0.16474  1.0000 -0.2202328498
N   N42       1.0  0.93460  0.76986  0.39726  1.0000 -0.2293657264
N   N43       1.0  0.76986  0.37260  0.83526  1.0000 -0.2202328498
N   N44       1.0  0.37260  0.53734  0.60274  1.0000 -0.2202328498
N   N45       1.0  0.46266  0.06540  0.83526  1.0000 -0.2202328498
N   N46       1.0  0.06540  0.23014  0.60274  1.0000 -0.2202328498
N   N47       1.0  0.23014  0.62740  0.16474  1.0000 -0.2202328498
N   N48       1.0  0.62740  0.46266  0.39726  1.0000 -0.2293657264
N   N49       1.0  0.78009  0.97019  0.33070  1.0000 -0.2202328498
N   N50       1.0  0.97019  0.63949  0.19010  1.0000 -0.2202328498
N   N51       1.0  0.63949  0.44939  0.66930  1.0000 -0.2202328498
N   N52       1.0  0.44939  0.78009  0.80990  1.0000 -0.2202328498
N   N53       1.0  0.21991  0.02981  0.66930  1.0000 -0.2202328498
N   N54       1.0  0.02981  0.36051  0.80990  1.0000 -0.2202328498
N   N55       1.0  0.36051  0.55061  0.33070  1.0000 -0.2202328498
N   N56       1.0  0.55061  0.21991  0.19010  1.0000 -0.2102430379
N   N57       1.0  0.48783  0.93167  0.13276  1.0000 -0.1004717369
N   N58       1.0  0.93167  0.79891  0.44384  1.0000 -0.1004717369
N   N59       1.0  0.79891  0.35507  0.86724  1.0000 -0.1004717369
N   N60       1.0  0.35507  0.48783  0.55616  1.0000 -0.1004717369
N   N61       1.0  0.51217  0.06833  0.86724  1.0000 -0.1004717369
N   N62       1.0  0.06833  0.20109  0.55616  1.0000 -0.1004717369
N   N63       1.0  0.20109  0.64493  0.13276  1.0000 -0.1004717369
N   N64       1.0  0.64493  0.51217  0.44384  1.0000 -0.1004717369
N   N65       1.0  0.81084  0.97147  0.31297  1.0000 -0.1098632431
N   N66       1.0  0.97147  0.65850  0.16063  1.0000 -0.1098632431
N   N67       1.0  0.65850  0.49787  0.68703  1.0000 -0.1098632431
N   N68       1.0  0.49787  0.81084  0.83937  1.0000 -0.1098632431
N   N69       1.0  0.18916  0.02853  0.68703  1.0000 -0.1098632431
N   N70       1.0  0.02853  0.34150  0.83937  1.0000 -0.1098632431
N   N71       1.0  0.34150  0.50213  0.31297  1.0000 -0.1098632431
N   N72       1.0  0.50213  0.18916  0.16063  1.0000 -0.1098632431
O   O1        1.0  0.90750  0.01737  0.70913  1.0000 -0.5089525986
O   O2        1.0  0.01737  0.30824  0.10987  1.0000 -0.5089525986
O   O3        1.0  0.30824  0.19837  0.29087  1.0000 -0.5089525986
O   O4        1.0  0.19837  0.90750  0.89013  1.0000 -0.5089525986
O   O5        1.0  0.09250  0.98263  0.29087  1.0000 -0.5089525986
O   O6        1.0  0.98263  0.69176  0.89013  1.0000 -0.5089525986
O   O7        1.0  0.69176  0.80163  0.70913  1.0000 -0.5089525986
O   O8        1.0  0.80163  0.09250  0.10987  1.0000 -0.5089525986
O   O9        1.0  0.90023  0.01893  0.63546  1.0000 -0.4991019306
O   O10       1.0  0.01893  0.38347  0.11870  1.0000 -0.4991019306
O   O11       1.0  0.38347  0.26477  0.36454  1.0000 -0.4991019306
O   O12       1.0  0.26477  0.90023  0.88130  1.0000 -0.4991019306
O   O13       1.0  0.09977  0.98107  0.36454  1.0000 -0.4991019306
O   O14       1.0  0.98107  0.61653  0.88130  1.0000 -0.4991019306
O   O15       1.0  0.61653  0.73523  0.63546  1.0000 -0.4991019306
O   O16       1.0  0.73523  0.09977  0.11870  1.0000 -0.4991019306
O   O17       1.0  0.95274  0.96621  0.29249  1.0000 -0.5169149479
O   O18       1.0  0.96621  0.67372  0.01347  1.0000 -0.5169149479
O   O19       1.0  0.67372  0.66025  0.70751  1.0000 -0.5169149479
O   O20       1.0  0.66025  0.95274  0.98653  1.0000 -0.5169149479
O   O21       1.0  0.04726  0.03379  0.70751  1.0000 -0.5169149479
O   O22       1.0  0.03379  0.32628  0.98653  1.0000 -0.5169149479
O   O23       1.0  0.32628  0.33975  0.29249  1.0000 -0.5169149479
O   O24       1.0  0.33975  0.04726  0.01347  1.0000 -0.5169149479
O   O25       1.0  0.69434  0.03627  0.66993  1.0000 -0.5089525986
O   O26       1.0  0.03627  0.36634  0.34193  1.0000 -0.4991019306
O   O27       1.0  0.36634  0.02441  0.33007  1.0000 -0.4991019306
O   O28       1.0  0.02441  0.69434  0.65807  1.0000 -0.4991019306
O   O29       1.0  0.30566  0.96373  0.33007  1.0000 -0.5089525986
O   O30       1.0  0.96373  0.63366  0.65807  1.0000 -0.4991019306
O   O31       1.0  0.63366  0.97559  0.66993  1.0000 -0.5089525986
O   O32       1.0  0.97559  0.30566  0.34193  1.0000 -0.5089525986
O   O33       1.0  0.94800  0.97512  0.22438  1.0000 -0.4842138281
O   O34       1.0  0.97512  0.75074  0.02712  1.0000 -0.4842138281
O   O35       1.0  0.75074  0.72362  0.77562  1.0000 -0.4842138281
O   O36       1.0  0.72362  0.94800  0.97288  1.0000 -0.4842138281
O   O37       1.0  0.05200  0.02488  0.77562  1.0000 -0.4842138281
O   O38       1.0  0.02488  0.24926  0.97288  1.0000 -0.4842138281
O   O39       1.0  0.24926  0.27638  0.22438  1.0000 -0.4842138281
O   O40       1.0  0.27638  0.05200  0.02712  1.0000 -0.4842138281
O   O41       1.0  0.79420  0.99915  0.09569  1.0000 -0.5089525986
O   O42       1.0  0.99915  0.90346  0.20495  1.0000 -0.5089525986
O   O43       1.0  0.90346  0.69851  0.90431  1.0000 -0.5089525986
O   O44       1.0  0.69851  0.79420  0.79505  1.0000 -0.5089525986
O   O45       1.0  0.20580  0.00085  0.90431  1.0000 -0.5089525986
O   O46       1.0  0.00085  0.09654  0.79505  1.0000 -0.5089525986
O   O47       1.0  0.09654  0.30149  0.09569  1.0000 -0.5089525986
O   O48       1.0  0.30149  0.20580  0.20495  1.0000 -0.5089525986
O   O49       1.0  0.73146  0.00769  0.11017  1.0000 -0.4929719148
O   O50       1.0  0.00769  0.89752  0.27623  1.0000 -0.4929719148
O   O51       1.0  0.89752  0.62129  0.88983  1.0000 -0.4929719148
O   O52       1.0  0.62129  0.73146  0.72377  1.0000 -0.4929719148
O   O53       1.0  0.26854  0.99231  0.88983  1.0000 -0.4929719148
O   O54       1.0  0.99231  0.10248  0.72377  1.0000 -0.4929719148
O   O55       1.0  0.10248  0.37871  0.11017  1.0000 -0.4929719148
O   O56       1.0  0.37871  0.26854  0.27623  1.0000 -0.4929719148
O   O57       1.0  0.76550  0.02742  0.73140  1.0000 -0.5089525986
O   O58       1.0  0.02742  0.29602  0.26192  1.0000 -0.5089525986
O   O59       1.0  0.29602  0.03410  0.26860  1.0000 -0.5089525986
O   O60       1.0  0.03410  0.76550  0.73808  1.0000 -0.5089525986
O   O61       1.0  0.23450  0.97258  0.26860  1.0000 -0.5089525986
O   O62       1.0  0.97258  0.70398  0.73808  1.0000 -0.5089525986
O   O63       1.0  0.70398  0.96590  0.73140  1.0000 -0.5089525986
O   O64       1.0  0.96590  0.23450  0.26192  1.0000 -0.5089525986
O   O65       1.0  0.01536  0.98368  0.18338  1.0000 -0.8517780966
O   O66       1.0  0.98368  0.80030  0.96832  1.0000 -0.8440254822
O   O67       1.0  0.80030  0.83198  0.81662  1.0000 -0.8440254822
O   O68       1.0  0.83198  0.01536  0.03168  1.0000 -0.8440254822
O   O69       1.0  0.98464  0.01632  0.81662  1.0000 -0.8440254822
O   O70       1.0  0.01632  0.19970  0.03168  1.0000 -0.8440254822
O   O71       1.0  0.19970  0.16802  0.18338  1.0000 -0.8440254822
O   O72       1.0  0.16802  0.98464  0.96832  1.0000 -0.8440254822
O   O73       1.0  0.03303  0.96604  0.40167  1.0000 -0.8517780966
O   O74       1.0  0.96604  0.56437  0.93301  1.0000 -0.8517780966
O   O75       1.0  0.56437  0.63136  0.59833  1.0000 -0.8517780966
O   O76       1.0  0.63136  0.03303  0.06699  1.0000 -0.8517780966
O   O77       1.0  0.96697  0.03396  0.59833  1.0000 -0.8517780966
O   O78       1.0  0.03396  0.43563  0.06699  1.0000 -0.8517780966
O   O79       1.0  0.43563  0.36864  0.40167  1.0000 -0.8517780966
O   O80       1.0  0.36864  0.96697  0.93301  1.0000 -0.8517780966
O   O81       1.0  0.35217  0.93869  0.22826  1.0000 -0.5169149479
O   O82       1.0  0.93869  0.71043  0.58652  1.0000 -0.5169149479
O   O83       1.0  0.71043  0.12391  0.77174  1.0000 -0.5169149479
O   O84       1.0  0.12391  0.35217  0.41348  1.0000 -0.5169149479
O   O85       1.0  0.64783  0.06131  0.77174  1.0000 -0.5169149479
O   O86       1.0  0.06131  0.28957  0.41348  1.0000 -0.5169149479
O   O87       1.0  0.28957  0.87609  0.22826  1.0000 -0.5169149479
O   O88       1.0  0.87609  0.64783  0.58652  1.0000 -0.5169149479
O   O89       1.0  0.28129  0.94822  0.16777  1.0000 -0.4991019306
O   O90       1.0  0.94822  0.78045  0.66693  1.0000 -0.4991019306
O   O91       1.0  0.78045  0.11352  0.83223  1.0000 -0.4991019306
O   O92       1.0  0.11352  0.28129  0.33307  1.0000 -0.4991019306
O   O93       1.0  0.71871  0.05178  0.83223  1.0000 -0.4991019306
O   O94       1.0  0.05178  0.21955  0.33307  1.0000 -0.4991019306
O   O95       1.0  0.21955  0.88648  0.16777  1.0000 -0.4991019306
O   O96       1.0  0.88648  0.71871  0.66693  1.0000 -0.4991019306
O   O97       1.0  0.26886  0.95868  0.01282  1.0000 -0.4929719148
O   O98       1.0  0.95868  0.94586  0.68982  1.0000 -0.4929719148
O   O99       1.0  0.94586  0.25604  0.98718  1.0000 -0.4929719148
O   O100      1.0  0.25604  0.26886  0.31018  1.0000 -0.4929719148
O   O101      1.0  0.73114  0.04132  0.98718  1.0000 -0.4929719148
O   O102      1.0  0.04132  0.05414  0.31018  1.0000 -0.4929719148
O   O103      1.0  0.05414  0.74396  0.01282  1.0000 -0.4929719148
O   O104      1.0  0.74396  0.73114  0.68982  1.0000 -0.4929719148
O   O105      1.0  0.33514  0.95655  0.00483  1.0000 -0.4991019306
O   O106      1.0  0.95655  0.95172  0.62141  1.0000 -0.4991019306
O   O107      1.0  0.95172  0.33031  0.99517  1.0000 -0.4991019306
O   O108      1.0  0.33031  0.33514  0.37859  1.0000 -0.4991019306
O   O109      1.0  0.66486  0.04345  0.99517  1.0000 -0.4991019306
O   O110      1.0  0.04345  0.04828  0.37859  1.0000 -0.4991019306
O   O111      1.0  0.04828  0.66969  0.00483  1.0000 -0.4991019306
O   O112      1.0  0.66969  0.66486  0.62141  1.0000 -0.4991019306
