# DDEC6 charges by PACMAN v1.1 (https://github.com/mtap-research/PACMAN-charge/)
data_2015[Zn][dmc]3[ASR]2
_chemical_formula_sum              "Zn4 H20 C32 N12 O8"
_cell_length_a       9.892
_cell_length_b       9.5763
_cell_length_c       14.7367
_cell_angle_alpha    90
_cell_angle_beta     101.474
_cell_angle_gamma    90

_symmetry_space_group_name_H-M    "P 1"
_symmetry_Int_Tables_number       1

loop_
  _symmetry_equiv_pos_as_xyz
  'x, y, z'

loop_
  _atom_site_type_symbol
  _atom_site_label
  _atom_site_symmetry_multiplicity
  _atom_site_fract_x
  _atom_site_fract_y
  _atom_site_fract_z
  _atom_site_occupancy
  _atom_site_charge
Zn  Zn1       1.0  0.36322  0.92639  0.91272  1.0000 0.6665474803
Zn  Zn2       1.0  0.13678  0.42639  0.08728  1.0000 0.6665474803
Zn  Zn3       1.0  0.63678  0.07361  0.08728  1.0000 0.6665474803
Zn  Zn4       1.0  0.86322  0.57361  0.91272  1.0000 0.6665474803
H   H1        1.0  0.04620  0.05000  0.67960  1.0000 0.126628251
H   H2        1.0  0.45380  0.55000  0.32040  1.0000 0.126628251
H   H3        1.0  0.95380  0.95000  0.32040  1.0000 0.126628251
H   H4        1.0  0.54620  0.45000  0.67960  1.0000 0.126628251
H   H5        1.0  0.29150  0.80090  0.56650  1.0000 0.1203052034
H   H6        1.0  0.20850  0.30090  0.43350  1.0000 0.1203052034
H   H7        1.0  0.70850  0.19910  0.43350  1.0000 0.1203052034
H   H8        1.0  0.79150  0.69910  0.56650  1.0000 0.1203052034
H   H9        1.0  0.14630  0.15060  0.95740  1.0000 0.1203052034
H   H10       1.0  0.35370  0.65060  0.04260  1.0000 0.1203052034
H   H11       1.0  0.85370  0.84940  0.04260  1.0000 0.1203052034
H   H12       1.0  0.64630  0.34940  0.95740  1.0000 0.1203052034
H   H13       1.0  0.44050  0.31500  0.13760  1.0000 0.126628251
H   H14       1.0  0.05950  0.81500  0.86240  1.0000 0.126628251
H   H15       1.0  0.55950  0.68500  0.86240  1.0000 0.126628251
H   H16       1.0  0.94050  0.18500  0.13760  1.0000 0.126628251
H   H17       1.0  0.15930  0.83810  0.42260  1.0000 0.1203052034
H   H18       1.0  0.34070  0.33810  0.57740  1.0000 0.1203052034
H   H19       1.0  0.84070  0.16190  0.57740  1.0000 0.1203052034
H   H20       1.0  0.65930  0.66190  0.42260  1.0000 0.1203052034
C   C1        1.0  0.27260  0.90360  0.73220  1.0000 0.5492962033
C   C2        1.0  0.22740  0.40360  0.26780  1.0000 0.5492962033
C   C3        1.0  0.72740  0.09640  0.26780  1.0000 0.5492962033
C   C4        1.0  0.77260  0.59640  0.73220  1.0000 0.5492962033
C   C5        1.0  0.18100  0.92690  0.63670  1.0000 -0.0001698772
C   C6        1.0  0.31900  0.42690  0.36330  1.0000 -0.0001698772
C   C7        1.0  0.81900  0.07310  0.36330  1.0000 -0.0001698772
C   C8        1.0  0.68100  0.57310  0.63670  1.0000 -0.0001698772
C   C9        1.0  0.06840  0.00860  0.62740  1.0000 -0.1479473885
C   C10       1.0  0.43160  0.50860  0.37260  1.0000 -0.1479473885
C   C11       1.0  0.93160  0.99140  0.37260  1.0000 -0.1479473885
C   C12       1.0  0.56840  0.49140  0.62740  1.0000 -0.1479473885
C   C13       1.0  0.98250  0.03270  0.53880  1.0000 0.06615135
C   C14       1.0  0.51750  0.53270  0.46120  1.0000 0.06615135
C   C15       1.0  0.01750  0.96730  0.46120  1.0000 0.06615135
C   C16       1.0  0.48250  0.46730  0.53880  1.0000 0.06615135
C   C17       1.0  0.21510  0.85960  0.55930  1.0000 -0.101960155
C   C18       1.0  0.28490  0.35960  0.44070  1.0000 -0.101960155
C   C19       1.0  0.78490  0.14040  0.44070  1.0000 -0.101960155
C   C20       1.0  0.71510  0.64040  0.55930  1.0000 -0.101960155
C   C21       1.0  0.23240  0.16740  0.99450  1.0000 0.1539668396
C   C22       1.0  0.26760  0.66740  0.00550  1.0000 0.1539668396
C   C23       1.0  0.76760  0.83260  0.00550  1.0000 0.1539668396
C   C24       1.0  0.73240  0.33260  0.99450  1.0000 0.1539668396
C   C25       1.0  0.39140  0.25650  0.09230  1.0000 0.1604236991
C   C26       1.0  0.10860  0.75650  0.90770  1.0000 0.1604236991
C   C27       1.0  0.60860  0.74350  0.90770  1.0000 0.1604236991
C   C28       1.0  0.89140  0.24350  0.09230  1.0000 0.1604236991
C   C29       1.0  0.13550  0.88110  0.47380  1.0000 -0.1479473885
C   C30       1.0  0.36450  0.38110  0.52620  1.0000 -0.1479473885
C   C31       1.0  0.86450  0.11890  0.52620  1.0000 -0.1479473885
C   C32       1.0  0.63550  0.61890  0.47380  1.0000 -0.1479473885
N   N1        1.0  0.34040  0.09020  0.99380  1.0000 -0.1992931801
N   N2        1.0  0.15960  0.59020  0.00620  1.0000 -0.1992931801
N   N3        1.0  0.65960  0.90980  0.00620  1.0000 -0.1992931801
N   N4        1.0  0.84040  0.40980  0.99380  1.0000 -0.1992931801
N   N5        1.0  0.44550  0.14770  0.05870  1.0000 -0.1992931801
N   N6        1.0  0.05450  0.64770  0.94130  1.0000 -0.1992931801
N   N7        1.0  0.55450  0.85230  0.94130  1.0000 -0.1992931801
N   N8        1.0  0.94550  0.35230  0.05870  1.0000 -0.1992931801
N   N9        1.0  0.25830  0.27380  0.05450  1.0000 -0.3215050667
N   N10       1.0  0.24170  0.77380  0.94550  1.0000 -0.3215050667
N   N11       1.0  0.74170  0.72620  0.94550  1.0000 -0.3215050667
N   N12       1.0  0.75830  0.22620  0.05450  1.0000 -0.3215050667
O   O1        1.0  0.25560  0.99060  0.79390  1.0000 -0.5552583307
O   O2        1.0  0.24440  0.49060  0.20610  1.0000 -0.5552583307
O   O3        1.0  0.74440  0.00940  0.20610  1.0000 -0.5552583307
O   O4        1.0  0.75560  0.50940  0.79390  1.0000 -0.5546401709
O   O5        1.0  0.35200  0.80580  0.74500  1.0000 -0.5373376578
O   O6        1.0  0.14800  0.30580  0.25500  1.0000 -0.5373376578
O   O7        1.0  0.64800  0.19420  0.25500  1.0000 -0.5373376578
O   O8        1.0  0.85200  0.69420  0.74500  1.0000 -0.5373376578
