# DDEC6 charges by PACMAN v1.1 (https://github.com/mtap-research/PACMAN-charge/)
data_2015[Gd][pcu]3[ASR]5
_chemical_formula_sum              "Gd4 H24 C84 N24 O72"
_cell_length_a       14.7678
_cell_length_b       14.7678
_cell_length_c       26.14
_cell_angle_alpha    85.8264
_cell_angle_beta     94.1736
_cell_angle_gamma    119.132

_symmetry_space_group_name_H-M    "P 1"
_symmetry_Int_Tables_number       1

loop_
  _symmetry_equiv_pos_as_xyz
  'x, y, z'

loop_
  _atom_site_type_symbol
  _atom_site_label
  _atom_site_symmetry_multiplicity
  _atom_site_fract_x
  _atom_site_fract_y
  _atom_site_fract_z
  _atom_site_occupancy
  _atom_site_charge
Gd  Gd1       1.0  0.38805  0.08453  0.99342  1.0000 2.0314664291
Gd  Gd2       1.0  0.08453  0.38805  0.50658  1.0000 2.0400734591
Gd  Gd3       1.0  0.61195  0.91547  0.00658  1.0000 2.0400734591
Gd  Gd4       1.0  0.91547  0.61195  0.49342  1.0000 2.0314664291
H   H1        1.0  0.50080  0.87640  0.17110  1.0000 0.1495581745
H   H2        1.0  0.87640  0.50080  0.32890  1.0000 0.1495581745
H   H3        1.0  0.49920  0.12360  0.82890  1.0000 0.1495581745
H   H4        1.0  0.12360  0.49920  0.67110  1.0000 0.1495581745
H   H5        1.0  0.26880  0.92760  0.11110  1.0000 0.1393789519
H   H6        1.0  0.92760  0.26880  0.38890  1.0000 0.1393789519
H   H7        1.0  0.73120  0.07240  0.88890  1.0000 0.1393789519
H   H8        1.0  0.07240  0.73120  0.61110  1.0000 0.1393789519
H   H9        1.0  0.11300  0.66380  0.36290  1.0000 0.1495581745
H   H10       1.0  0.66380  0.11300  0.13710  1.0000 0.1495581745
H   H11       1.0  0.88700  0.33620  0.63710  1.0000 0.1495581745
H   H12       1.0  0.33620  0.88700  0.86290  1.0000 0.1495581745
H   H13       1.0  0.25210  0.96990  0.38040  1.0000 0.1393789519
H   H14       1.0  0.96990  0.25210  0.11960  1.0000 0.1393789519
H   H15       1.0  0.74790  0.03010  0.61960  1.0000 0.1393789519
H   H16       1.0  0.03010  0.74790  0.88040  1.0000 0.1393789519
H   H17       1.0  0.52930  0.28530  0.19900  1.0000 0.1393789519
H   H18       1.0  0.28530  0.52930  0.30100  1.0000 0.1393789519
H   H19       1.0  0.47070  0.71470  0.80100  1.0000 0.1393789519
H   H20       1.0  0.71470  0.47070  0.69900  1.0000 0.1393789519
H   H21       1.0  0.25660  0.15600  0.12110  1.0000 0.1393789519
H   H22       1.0  0.15600  0.25660  0.37890  1.0000 0.1393789519
H   H23       1.0  0.74340  0.84400  0.87890  1.0000 0.1393789519
H   H24       1.0  0.84400  0.74340  0.62110  1.0000 0.1393789519
C   C1        1.0  0.43710  0.92350  0.07990  1.0000 0.6647903967
C   C2        1.0  0.92350  0.43710  0.42010  1.0000 0.665839796
C   C3        1.0  0.56290  0.07650  0.92010  1.0000 0.6647903967
C   C4        1.0  0.07650  0.56290  0.57990  1.0000 0.6647903967
C   C5        1.0  0.39300  0.90400  0.13170  1.0000 -0.0025121342
C   C6        1.0  0.90400  0.39300  0.36830  1.0000 -0.0025121342
C   C7        1.0  0.60700  0.09600  0.86830  1.0000 -0.0025121342
C   C8        1.0  0.09600  0.60700  0.63170  1.0000 -0.0025121342
C   C9        1.0  0.44120  0.88140  0.17480  1.0000 -0.1072123369
C   C10       1.0  0.88140  0.44120  0.32520  1.0000 -0.1072123369
C   C11       1.0  0.55880  0.11860  0.82520  1.0000 -0.1023384777
C   C12       1.0  0.11860  0.55880  0.67480  1.0000 -0.1072123369
C   C13       1.0  0.40190  0.86630  0.22270  1.0000 0.0320154268
C   C14       1.0  0.86630  0.40190  0.27730  1.0000 0.0320154268
C   C15       1.0  0.59810  0.13370  0.77730  1.0000 0.0320154268
C   C16       1.0  0.13370  0.59810  0.72270  1.0000 0.0320154268
C   C17       1.0  0.30960  0.86560  0.23150  1.0000 -0.0025121342
C   C18       1.0  0.86560  0.30960  0.26850  1.0000 -0.0025121342
C   C19       1.0  0.69040  0.13440  0.76850  1.0000 -0.0025121342
C   C20       1.0  0.13440  0.69040  0.73150  1.0000 -0.0025121342
C   C21       1.0  0.26300  0.88720  0.18750  1.0000 0.0320154268
C   C22       1.0  0.88720  0.26300  0.31250  1.0000 0.0320154268
C   C23       1.0  0.73700  0.11280  0.81250  1.0000 0.0320154268
C   C24       1.0  0.11280  0.73700  0.68750  1.0000 0.0320154268
C   C25       1.0  0.30180  0.90960  0.13840  1.0000 -0.1219797292
C   C26       1.0  0.90960  0.30180  0.36160  1.0000 -0.1219797292
C   C27       1.0  0.69820  0.09040  0.86160  1.0000 -0.1219797292
C   C28       1.0  0.09040  0.69820  0.63840  1.0000 -0.1219797292
C   C29       1.0  0.26690  0.85050  0.28440  1.0000 0.0098132099
C   C30       1.0  0.85050  0.26690  0.21560  1.0000 0.0098132099
C   C31       1.0  0.73310  0.14950  0.71560  1.0000 0.0098132099
C   C32       1.0  0.14950  0.73310  0.78440  1.0000 0.0098132099
C   C33       1.0  0.20170  0.74930  0.30540  1.0000 0.0320154268
C   C34       1.0  0.74930  0.20170  0.19460  1.0000 0.0320154268
C   C35       1.0  0.79830  0.25070  0.69460  1.0000 0.0320154268
C   C36       1.0  0.25070  0.79830  0.80540  1.0000 0.0320154268
C   C37       1.0  0.15690  0.73150  0.35120  1.0000 -0.0825193887
C   C38       1.0  0.73150  0.15690  0.14880  1.0000 -0.0825193887
C   C39       1.0  0.84310  0.26850  0.64880  1.0000 -0.0825193887
C   C40       1.0  0.26850  0.84310  0.85120  1.0000 -0.0825193887
C   C41       1.0  0.17570  0.81210  0.38020  1.0000 0.0209949672
C   C42       1.0  0.81210  0.17570  0.11980  1.0000 0.0209949672
C   C43       1.0  0.82430  0.18790  0.61980  1.0000 0.0209949672
C   C44       1.0  0.18790  0.82430  0.88020  1.0000 0.0209949672
C   C45       1.0  0.23960  0.91380  0.36140  1.0000 -0.1072123369
C   C46       1.0  0.91380  0.23960  0.13860  1.0000 -0.1072123369
C   C47       1.0  0.76040  0.08620  0.63860  1.0000 -0.1072123369
C   C48       1.0  0.08620  0.76040  0.86140  1.0000 -0.1072123369
C   C49       1.0  0.28360  0.93000  0.31450  1.0000 0.0385471238
C   C50       1.0  0.93000  0.28360  0.18550  1.0000 0.0385471238
C   C51       1.0  0.71640  0.07000  0.68550  1.0000 0.0385471238
C   C52       1.0  0.07000  0.71640  0.81450  1.0000 0.0385471238
C   C53       1.0  0.12690  0.79630  0.43210  1.0000 0.5976054417
C   C54       1.0  0.79630  0.12690  0.06790  1.0000 0.5976054417
C   C55       1.0  0.87310  0.20370  0.56790  1.0000 0.5976054417
C   C56       1.0  0.20370  0.87310  0.93210  1.0000 0.5976054417
C   C57       1.0  0.44840  0.18660  0.11260  1.0000 0.5976054417
C   C58       1.0  0.18660  0.44840  0.38740  1.0000 0.5976054417
C   C59       1.0  0.55160  0.81340  0.88740  1.0000 0.5976054417
C   C60       1.0  0.81340  0.55160  0.61260  1.0000 0.5976054417
C   C61       1.0  0.40090  0.21650  0.15410  1.0000 0.0098132099
C   C62       1.0  0.21650  0.40090  0.34590  1.0000 0.0098132099
C   C63       1.0  0.59910  0.78350  0.84590  1.0000 0.0098132099
C   C64       1.0  0.78350  0.59910  0.65410  1.0000 0.0098132099
C   C65       1.0  0.45970  0.26810  0.19570  1.0000 -0.1072123369
C   C66       1.0  0.26810  0.45970  0.30430  1.0000 -0.1072123369
C   C67       1.0  0.54030  0.73190  0.80430  1.0000 -0.1072123369
C   C68       1.0  0.73190  0.54030  0.69570  1.0000 -0.1072123369
C   C69       1.0  0.41650  0.29510  0.23320  1.0000 0.0098132099
C   C70       1.0  0.29510  0.41650  0.26680  1.0000 0.0098132099
C   C71       1.0  0.58350  0.70490  0.76680  1.0000 0.0098132099
C   C72       1.0  0.70490  0.58350  0.73320  1.0000 0.0098132099
C   C73       1.0  0.31340  0.27360  0.23040  1.0000 0.0209949672
C   C74       1.0  0.27360  0.31340  0.26960  1.0000 0.0209949672
C   C75       1.0  0.68660  0.72640  0.76960  1.0000 0.0209949672
C   C76       1.0  0.72640  0.68660  0.73040  1.0000 0.0209949672
C   C77       1.0  0.25480  0.21980  0.18690  1.0000 0.0209949672
C   C78       1.0  0.21980  0.25480  0.31310  1.0000 0.0209949672
C   C79       1.0  0.74520  0.78020  0.81310  1.0000 0.0209949672
C   C80       1.0  0.78020  0.74520  0.68690  1.0000 0.0209949672
C   C81       1.0  0.29750  0.19150  0.14930  1.0000 -0.1023384777
C   C82       1.0  0.19150  0.29750  0.35070  1.0000 -0.1023384777
C   C83       1.0  0.70250  0.80850  0.85070  1.0000 -0.1023384777
C   C84       1.0  0.80850  0.70250  0.64930  1.0000 -0.1023384777
N   N1        1.0  0.16530  0.89070  0.19180  1.0000 0.5086674737
N   N2        1.0  0.89070  0.16530  0.30820  1.0000 0.5086674737
N   N3        1.0  0.83470  0.10930  0.80820  1.0000 0.5086674737
N   N4        1.0  0.10930  0.83470  0.69180  1.0000 0.5086674737
N   N5        1.0  0.46240  0.84780  0.26530  1.0000 0.5086674737
N   N6        1.0  0.84780  0.46240  0.23470  1.0000 0.5086674737
N   N7        1.0  0.53760  0.15220  0.73470  1.0000 0.5086674737
N   N8        1.0  0.15220  0.53760  0.76530  1.0000 0.5086674737
N   N9        1.0  0.17840  0.65800  0.27590  1.0000 0.5217849808
N   N10       1.0  0.65800  0.17840  0.22410  1.0000 0.5217849808
N   N11       1.0  0.82160  0.34200  0.72410  1.0000 0.5217849808
N   N12       1.0  0.34200  0.82160  0.77590  1.0000 0.5217849808
N   N13       1.0  0.35570  0.04210  0.29920  1.0000 0.5217849808
N   N14       1.0  0.04210  0.35570  0.20080  1.0000 0.5217849808
N   N15       1.0  0.64430  0.95790  0.70080  1.0000 0.5217849808
N   N16       1.0  0.95790  0.64430  0.79920  1.0000 0.5217849808
N   N17       1.0  0.14660  0.19620  0.17720  1.0000 0.5086674737
N   N18       1.0  0.19620  0.14660  0.32280  1.0000 0.5086674737
N   N19       1.0  0.85340  0.80380  0.82280  1.0000 0.5086674737
N   N20       1.0  0.80380  0.85340  0.67720  1.0000 0.5086674737
N   N21       1.0  0.48340  0.34680  0.27800  1.0000 0.5086674737
N   N22       1.0  0.34680  0.48340  0.22200  1.0000 0.5086674737
N   N23       1.0  0.51660  0.65320  0.72200  1.0000 0.5086674737
N   N24       1.0  0.65320  0.51660  0.77800  1.0000 0.5086674737
O   O1        1.0  0.40210  0.95770  0.04450  1.0000 -0.6590395969
O   O2        1.0  0.95770  0.40210  0.45550  1.0000 -0.6590395969
O   O3        1.0  0.59790  0.04230  0.95550  1.0000 -0.6590395969
O   O4        1.0  0.04230  0.59790  0.54450  1.0000 -0.6590395969
O   O5        1.0  0.51230  0.90390  0.07630  1.0000 -0.7090432001
O   O6        1.0  0.90390  0.51230  0.42370  1.0000 -0.7090432001
O   O7        1.0  0.48770  0.09610  0.92370  1.0000 -0.7090432001
O   O8        1.0  0.09610  0.48770  0.57630  1.0000 -0.7090432001
O   O9        1.0  0.15190  0.95390  0.16300  1.0000 -0.3213683286
O   O10       1.0  0.95390  0.15190  0.33700  1.0000 -0.3115144189
O   O11       1.0  0.84810  0.04610  0.83700  1.0000 -0.3115144189
O   O12       1.0  0.04610  0.84810  0.66300  1.0000 -0.3115144189
O   O13       1.0  0.10310  0.82970  0.22190  1.0000 -0.3115144189
O   O14       1.0  0.82970  0.10310  0.27810  1.0000 -0.3115144189
O   O15       1.0  0.89690  0.17030  0.77810  1.0000 -0.3115144189
O   O16       1.0  0.17030  0.89690  0.72190  1.0000 -0.3115144189
O   O17       1.0  0.53070  0.82790  0.25610  1.0000 -0.2646065605
O   O18       1.0  0.82790  0.53070  0.24390  1.0000 -0.2669462812
O   O19       1.0  0.46930  0.17210  0.74390  1.0000 -0.2669462812
O   O20       1.0  0.17210  0.46930  0.75610  1.0000 -0.2669462812
O   O21       1.0  0.44810  0.86110  0.30990  1.0000 -0.3471323428
O   O22       1.0  0.86110  0.44810  0.19010  1.0000 -0.3471323428
O   O23       1.0  0.55190  0.13890  0.69010  1.0000 -0.3471323428
O   O24       1.0  0.13890  0.55190  0.80990  1.0000 -0.3471323428
O   O25       1.0  0.36620  0.05880  0.25330  1.0000 -0.3115144189
O   O26       1.0  0.05880  0.36620  0.24670  1.0000 -0.3115144189
O   O27       1.0  0.63380  0.94120  0.74670  1.0000 -0.3115144189
O   O28       1.0  0.94120  0.63380  0.75330  1.0000 -0.3115144189
O   O29       1.0  0.39290  0.10550  0.33180  1.0000 -0.2893132759
O   O30       1.0  0.10550  0.39290  0.16820  1.0000 -0.2986802923
O   O31       1.0  0.60710  0.89450  0.66820  1.0000 -0.2986802923
O   O32       1.0  0.89450  0.60710  0.83180  1.0000 -0.2986802923
O   O33       1.0  0.24920  0.65840  0.25550  1.0000 -0.2986802923
O   O34       1.0  0.65840  0.24920  0.24450  1.0000 -0.2986802923
O   O35       1.0  0.75080  0.34160  0.74450  1.0000 -0.2986802923
O   O36       1.0  0.34160  0.75080  0.75550  1.0000 -0.2986802923
O   O37       1.0  0.08630  0.58890  0.27450  1.0000 -0.3213683286
O   O38       1.0  0.58890  0.08630  0.22550  1.0000 -0.3213683286
O   O39       1.0  0.91370  0.41110  0.72550  1.0000 -0.3213683286
O   O40       1.0  0.41110  0.91370  0.77450  1.0000 -0.3213683286
O   O41       1.0  0.13900  0.87640  0.45140  1.0000 -0.5228908313
O   O42       1.0  0.87640  0.13900  0.04860  1.0000 -0.5309380444
O   O43       1.0  0.86100  0.12360  0.54860  1.0000 -0.5309380444
O   O44       1.0  0.12360  0.86100  0.95140  1.0000 -0.5228908313
O   O45       1.0  0.07690  0.70550  0.44940  1.0000 -0.6461674325
O   O46       1.0  0.70550  0.07690  0.05060  1.0000 -0.6461674325
O   O47       1.0  0.92310  0.29450  0.55060  1.0000 -0.6461674325
O   O48       1.0  0.29450  0.92310  0.94940  1.0000 -0.6449140263
O   O49       1.0  0.39140  0.14780  0.07400  1.0000 -0.6959660155
O   O50       1.0  0.14780  0.39140  0.42600  1.0000 -0.6959660155
O   O51       1.0  0.60860  0.85220  0.92600  1.0000 -0.6959660155
O   O52       1.0  0.85220  0.60860  0.57400  1.0000 -0.6959660155
O   O53       1.0  0.53810  0.20230  0.12100  1.0000 -0.5309380444
O   O54       1.0  0.20230  0.53810  0.37900  1.0000 -0.5309380444
O   O55       1.0  0.46190  0.79770  0.87900  1.0000 -0.5309380444
O   O56       1.0  0.79770  0.46190  0.62100  1.0000 -0.5309380444
O   O57       1.0  0.10890  0.17730  0.13480  1.0000 -0.233186203
O   O58       1.0  0.17730  0.10890  0.36520  1.0000 -0.233186203
O   O59       1.0  0.89110  0.82270  0.86520  1.0000 -0.233186203
O   O60       1.0  0.82270  0.89110  0.63480  1.0000 -0.233186203
O   O61       1.0  0.09900  0.19580  0.21410  1.0000 -0.3471323428
O   O62       1.0  0.19580  0.09900  0.28590  1.0000 -0.3471323428
O   O63       1.0  0.90100  0.80420  0.78590  1.0000 -0.3471323428
O   O64       1.0  0.80420  0.90100  0.71410  1.0000 -0.3471323428
O   O65       1.0  0.57580  0.40000  0.27020  1.0000 -0.2893132759
O   O66       1.0  0.40000  0.57580  0.22980  1.0000 -0.2893132759
O   O67       1.0  0.42420  0.60000  0.72980  1.0000 -0.2893132759
O   O68       1.0  0.60000  0.42420  0.77020  1.0000 -0.2893132759
O   O69       1.0  0.44530  0.33150  0.31980  1.0000 -0.3213683286
O   O70       1.0  0.33150  0.44530  0.18020  1.0000 -0.3213683286
O   O71       1.0  0.55470  0.66850  0.68020  1.0000 -0.3213683286
O   O72       1.0  0.66850  0.55470  0.81980  1.0000 -0.3213683286
