# DDEC6 charges by PACMAN v1.1 (https://github.com/mtap-research/PACMAN-charge/)
data_2015[Dy][nan]3[ASR]1
_chemical_formula_sum              "Dy8 H52 C112 O52"
_cell_length_a       14.4821
_cell_length_b       16.7137
_cell_length_c       20.163
_cell_angle_alpha    90
_cell_angle_beta     115.035
_cell_angle_gamma    90

_symmetry_space_group_name_H-M    "P 1"
_symmetry_Int_Tables_number       1

loop_
  _symmetry_equiv_pos_as_xyz
  'x, y, z'

loop_
  _atom_site_type_symbol
  _atom_site_label
  _atom_site_symmetry_multiplicity
  _atom_site_fract_x
  _atom_site_fract_y
  _atom_site_fract_z
  _atom_site_occupancy
  _atom_site_charge
Dy  Dy1       1.0  0.99240  0.34370  0.66881  1.0000 2.0210660666
Dy  Dy2       1.0  0.00760  0.84370  0.83119  1.0000 2.0262101859
Dy  Dy3       1.0  0.00760  0.65630  0.33119  1.0000 2.0262101859
Dy  Dy4       1.0  0.99240  0.15630  0.16881  1.0000 2.0262101859
Dy  Dy5       1.0  0.69365  0.36380  0.77104  1.0000 1.9598249465
Dy  Dy6       1.0  0.30635  0.86380  0.72896  1.0000 1.9598249465
Dy  Dy7       1.0  0.30635  0.63620  0.22896  1.0000 1.9598249465
Dy  Dy8       1.0  0.69365  0.13620  0.27104  1.0000 1.9598249465
H   H1        1.0  0.92930  0.30550  0.93800  1.0000 0.1391463939
H   H2        1.0  0.07070  0.80550  0.56200  1.0000 0.1391463939
H   H3        1.0  0.07070  0.69450  0.06200  1.0000 0.1391463939
H   H4        1.0  0.92930  0.19450  0.43800  1.0000 0.1391463939
H   H5        1.0  0.21110  0.22100  0.05030  1.0000 0.1289352954
H   H6        1.0  0.78890  0.72100  0.44970  1.0000 0.1289352954
H   H7        1.0  0.78890  0.77900  0.94970  1.0000 0.1289352954
H   H8        1.0  0.21110  0.27900  0.55030  1.0000 0.1289352954
H   H9        1.0  0.14000  0.33090  0.85750  1.0000 0.1289352954
H   H10       1.0  0.86000  0.83090  0.64250  1.0000 0.1289352954
H   H11       1.0  0.86000  0.66910  0.14250  1.0000 0.1289352954
H   H12       1.0  0.14000  0.16910  0.35750  1.0000 0.1289352954
H   H13       1.0  0.54000  0.19450  0.07670  1.0000 0.1289352954
H   H14       1.0  0.46000  0.69450  0.42330  1.0000 0.1289352954
H   H15       1.0  0.46000  0.80550  0.92330  1.0000 0.1289352954
H   H16       1.0  0.54000  0.30550  0.57670  1.0000 0.1289352954
H   H17       1.0  0.76070  0.25490  0.01520  1.0000 0.1391463939
H   H18       1.0  0.23930  0.75490  0.48480  1.0000 0.1391463939
H   H19       1.0  0.23930  0.74510  0.98480  1.0000 0.1391463939
H   H20       1.0  0.76070  0.24510  0.51520  1.0000 0.1391463939
H   H21       1.0  0.46560  0.30830  0.88700  1.0000 0.1289352954
H   H22       1.0  0.53440  0.80830  0.61300  1.0000 0.1289352954
H   H23       1.0  0.53440  0.69170  0.11300  1.0000 0.1289352954
H   H24       1.0  0.46560  0.19170  0.38700  1.0000 0.1289352954
H   H25       1.0  0.32050  0.42270  0.87760  1.0000 0.118794049
H   H26       1.0  0.67950  0.92270  0.62240  1.0000 0.118794049
H   H27       1.0  0.67950  0.57730  0.12240  1.0000 0.118794049
H   H28       1.0  0.32050  0.07730  0.37760  1.0000 0.118794049
H   H29       1.0  0.45250  0.63610  0.89400  1.0000 0.113205369
H   H30       1.0  0.54750  0.13610  0.60600  1.0000 0.113205369
H   H31       1.0  0.54750  0.36390  0.10600  1.0000 0.113205369
H   H32       1.0  0.45250  0.86390  0.39400  1.0000 0.113205369
H   H33       1.0  0.20140  0.58320  0.71470  1.0000 0.1391463939
H   H34       1.0  0.79860  0.08320  0.78530  1.0000 0.1391463939
H   H35       1.0  0.79860  0.41680  0.28530  1.0000 0.1391463939
H   H36       1.0  0.20140  0.91680  0.21470  1.0000 0.1391463939
H   H37       1.0  0.82270  0.53750  0.91130  1.0000 0.1391463939
H   H38       1.0  0.17730  0.03750  0.58870  1.0000 0.1391463939
H   H39       1.0  0.17730  0.46250  0.08870  1.0000 0.1391463939
H   H40       1.0  0.82270  0.96250  0.41130  1.0000 0.1391463939
H   H41       1.0  0.75390  0.60540  0.86060  1.0000 0.118794049
H   H42       1.0  0.24610  0.10540  0.63940  1.0000 0.118794049
H   H43       1.0  0.24610  0.39460  0.13940  1.0000 0.118794049
H   H44       1.0  0.75390  0.89460  0.36060  1.0000 0.118794049
H   H45       1.0  0.71690  0.55710  0.91150  1.0000 0.1289352954
H   H46       1.0  0.28310  0.05710  0.58850  1.0000 0.1289352954
H   H47       1.0  0.28310  0.44290  0.08850  1.0000 0.1289352954
H   H48       1.0  0.71690  0.94290  0.41150  1.0000 0.1289352954
H   H49       1.0  0.64780  0.50390  0.78270  1.0000 0.3432441026
H   H50       1.0  0.35220  0.00390  0.71730  1.0000 0.3432441026
H   H51       1.0  0.35220  0.49610  0.21730  1.0000 0.3432441026
H   H52       1.0  0.64780  0.99610  0.28270  1.0000 0.3432441026
C   C1        1.0  0.02080  0.32580  0.88620  1.0000 -0.0593560219
C   C2        1.0  0.97920  0.82580  0.61380  1.0000 -0.0593560219
C   C3        1.0  0.97920  0.67420  0.11380  1.0000 -0.0593560219
C   C4        1.0  0.02080  0.17420  0.38620  1.0000 -0.0593560219
C   C5        1.0  0.99540  0.29820  0.94260  1.0000 -0.0888496369
C   C6        1.0  0.00460  0.79820  0.55740  1.0000 -0.0888496369
C   C7        1.0  0.00460  0.70180  0.05740  1.0000 -0.0888496369
C   C8        1.0  0.99540  0.20180  0.44260  1.0000 -0.0888496369
C   C9        1.0  0.06590  0.26030  0.00470  1.0000 -0.0389955102
C   C10       1.0  0.93410  0.76030  0.49530  1.0000 -0.0389955102
C   C11       1.0  0.93410  0.73970  0.99530  1.0000 -0.0389955102
C   C12       1.0  0.06590  0.23970  0.50470  1.0000 -0.0389955102
C   C13       1.0  0.16360  0.24800  0.01000  1.0000 -0.1401620519
C   C14       1.0  0.83640  0.74800  0.49000  1.0000 -0.1401620519
C   C15       1.0  0.83640  0.75200  0.99000  1.0000 -0.1401620519
C   C16       1.0  0.16360  0.25200  0.51000  1.0000 -0.1401620519
C   C17       1.0  0.19130  0.27530  0.95610  1.0000 0.113205369
C   C18       1.0  0.80870  0.77530  0.54390  1.0000 0.113205369
C   C19       1.0  0.80870  0.72470  0.04390  1.0000 0.113205369
C   C20       1.0  0.19130  0.22470  0.45610  1.0000 0.113205369
C   C21       1.0  0.12100  0.31360  0.89380  1.0000 -0.1401620519
C   C22       1.0  0.87900  0.81360  0.60620  1.0000 -0.1401620519
C   C23       1.0  0.87900  0.68640  0.10620  1.0000 -0.1401620519
C   C24       1.0  0.12100  0.18640  0.39380  1.0000 -0.1401620519
C   C25       1.0  0.95090  0.37250  0.82380  1.0000 0.6504602253
C   C26       1.0  0.04910  0.87250  0.67620  1.0000 0.6504602253
C   C27       1.0  0.04910  0.62750  0.17620  1.0000 0.6504602253
C   C28       1.0  0.95090  0.12750  0.32380  1.0000 0.6504602253
C   C29       1.0  0.03800  0.22430  0.05990  1.0000 0.5559090495
C   C30       1.0  0.96200  0.72430  0.44010  1.0000 0.5559090495
C   C31       1.0  0.96200  0.77570  0.94010  1.0000 0.5559090495
C   C32       1.0  0.03800  0.27570  0.55990  1.0000 0.5559090495
C   C33       1.0  0.29490  0.26140  0.96330  1.0000 -0.0888496369
C   C34       1.0  0.70510  0.76140  0.53670  1.0000 -0.0888496369
C   C35       1.0  0.70510  0.73860  0.03670  1.0000 -0.0888496369
C   C36       1.0  0.29490  0.23860  0.46330  1.0000 -0.0888496369
C   C37       1.0  0.37800  0.25220  0.96940  1.0000 -0.099076469
C   C38       1.0  0.62200  0.75220  0.53060  1.0000 -0.099076469
C   C39       1.0  0.62200  0.74780  0.03060  1.0000 -0.099076469
C   C40       1.0  0.37800  0.24780  0.46940  1.0000 -0.099076469
C   C41       1.0  0.48150  0.25070  0.97720  1.0000 0.113205369
C   C42       1.0  0.51850  0.75070  0.52280  1.0000 0.113205369
C   C43       1.0  0.51850  0.74930  0.02280  1.0000 0.113205369
C   C44       1.0  0.48150  0.24930  0.47720  1.0000 0.113205369
C   C45       1.0  0.55790  0.21760  0.04180  1.0000 -0.1338438459
C   C46       1.0  0.44210  0.71760  0.45820  1.0000 -0.1338438459
C   C47       1.0  0.44210  0.78240  0.95820  1.0000 -0.1338438459
C   C48       1.0  0.55790  0.28240  0.54180  1.0000 -0.1338438459
C   C49       1.0  0.65890  0.21940  0.05320  1.0000 -0.0593560219
C   C50       1.0  0.34110  0.71940  0.44680  1.0000 -0.0593560219
C   C51       1.0  0.34110  0.78060  0.94680  1.0000 -0.0593560219
C   C52       1.0  0.65890  0.28060  0.55320  1.0000 -0.0593560219
C   C53       1.0  0.69210  0.25390  0.00580  1.0000 -0.081455107
C   C54       1.0  0.30790  0.75390  0.49420  1.0000 -0.081455107
C   C55       1.0  0.30790  0.74610  0.99420  1.0000 -0.081455107
C   C56       1.0  0.69210  0.24610  0.50580  1.0000 -0.081455107
C   C57       1.0  0.61570  0.28840  0.94080  1.0000 -0.0389955102
C   C58       1.0  0.38430  0.78840  0.55920  1.0000 -0.0389955102
C   C59       1.0  0.38430  0.71160  0.05920  1.0000 -0.0389955102
C   C60       1.0  0.61570  0.21160  0.44080  1.0000 -0.0389955102
C   C61       1.0  0.51420  0.28540  0.92950  1.0000 -0.1401620519
C   C62       1.0  0.48580  0.78540  0.57050  1.0000 -0.1401620519
C   C63       1.0  0.48580  0.71460  0.07050  1.0000 -0.1401620519
C   C64       1.0  0.51420  0.21460  0.42950  1.0000 -0.1401620519
C   C65       1.0  0.73920  0.18710  0.12130  1.0000 0.662829113
C   C66       1.0  0.26080  0.68710  0.37870  1.0000 0.662829113
C   C67       1.0  0.26080  0.81290  0.87870  1.0000 0.662829113
C   C68       1.0  0.73920  0.31290  0.62130  1.0000 0.662829113
C   C69       1.0  0.64150  0.32300  0.88560  1.0000 0.5293448538
C   C70       1.0  0.35850  0.82300  0.61440  1.0000 0.5293448538
C   C71       1.0  0.35850  0.67700  0.11440  1.0000 0.5293448538
C   C72       1.0  0.64150  0.17700  0.38560  1.0000 0.5293448538
C   C73       1.0  0.24500  0.49290  0.78880  1.0000 -0.0011551368
C   C74       1.0  0.75500  0.99290  0.71120  1.0000 -0.0011551368
C   C75       1.0  0.75500  0.50710  0.21120  1.0000 -0.0011551368
C   C76       1.0  0.24500  0.00710  0.28880  1.0000 -0.0011551368
C   C77       1.0  0.32130  0.47300  0.85820  1.0000 -0.1338438459
C   C78       1.0  0.67870  0.97300  0.64180  1.0000 -0.1338438459
C   C79       1.0  0.67870  0.52700  0.14180  1.0000 -0.1338438459
C   C80       1.0  0.32130  0.02700  0.35820  1.0000 -0.1338438459
C   C81       1.0  0.39750  0.52650  0.89830  1.0000 0.118794049
C   C82       1.0  0.60250  0.02650  0.60170  1.0000 0.118794049
C   C83       1.0  0.60250  0.47350  0.10170  1.0000 0.118794049
C   C84       1.0  0.39750  0.97350  0.39830  1.0000 0.118794049
C   C85       1.0  0.40020  0.60060  0.86810  1.0000 -0.1401620519
C   C86       1.0  0.59980  0.10060  0.63190  1.0000 -0.1401620519
C   C87       1.0  0.59980  0.39940  0.13190  1.0000 -0.1401620519
C   C88       1.0  0.40020  0.89940  0.36810  1.0000 -0.1401620519
C   C89       1.0  0.32550  0.62270  0.79910  1.0000 -0.0165825972
C   C90       1.0  0.67450  0.12270  0.70090  1.0000 -0.0165825972
C   C91       1.0  0.67450  0.37730  0.20090  1.0000 -0.0165825972
C   C92       1.0  0.32550  0.87730  0.29910  1.0000 -0.0165825972
C   C93       1.0  0.25030  0.56890  0.76070  1.0000 -0.099076469
C   C94       1.0  0.74970  0.06890  0.73930  1.0000 -0.099076469
C   C95       1.0  0.74970  0.43110  0.23930  1.0000 -0.099076469
C   C96       1.0  0.25030  0.93110  0.26070  1.0000 -0.099076469
C   C97       1.0  0.16050  0.43780  0.74280  1.0000 0.5708683401
C   C98       1.0  0.83950  0.93780  0.75720  1.0000 0.5708683401
C   C99       1.0  0.83950  0.56220  0.25720  1.0000 0.5708683401
C   C100      1.0  0.16050  0.06220  0.24280  1.0000 0.5708683401
C   C101      1.0  0.31920  0.70260  0.76630  1.0000 0.5446997404
C   C102      1.0  0.68080  0.20260  0.73370  1.0000 0.5446997404
C   C103      1.0  0.68080  0.29740  0.23370  1.0000 0.5446997404
C   C104      1.0  0.31920  0.79740  0.26630  1.0000 0.5446997404
C   C105      1.0  0.47070  0.50850  0.97070  1.0000 -0.099076469
C   C106      1.0  0.52930  0.00850  0.52930  1.0000 -0.099076469
C   C107      1.0  0.52930  0.49150  0.02930  1.0000 -0.099076469
C   C108      1.0  0.47070  0.99150  0.47070  1.0000 -0.099076469
C   C109      1.0  0.75380  0.55390  0.88170  1.0000 -0.1954247348
C   C110      1.0  0.24620  0.05390  0.61830  1.0000 -0.1954247348
C   C111      1.0  0.24620  0.44610  0.11830  1.0000 -0.1954247348
C   C112      1.0  0.75380  0.94610  0.38170  1.0000 -0.1954247348
O   O1        1.0  0.97367  0.38550  0.77307  1.0000 -0.6138904423
O   O2        1.0  0.02633  0.88550  0.72693  1.0000 -0.6138904423
O   O3        1.0  0.02633  0.61450  0.22693  1.0000 -0.6138904423
O   O4        1.0  0.97367  0.11450  0.27307  1.0000 -0.6138904423
O   O5        1.0  0.86430  0.38880  0.82080  1.0000 -0.657360512
O   O6        1.0  0.13570  0.88880  0.67920  1.0000 -0.657360512
O   O7        1.0  0.13570  0.61120  0.17920  1.0000 -0.657360512
O   O8        1.0  0.86430  0.11120  0.32080  1.0000 -0.657360512
O   O9        1.0  0.95520  0.24230  0.06140  1.0000 -0.6138904423
O   O10       1.0  0.04480  0.74230  0.43860  1.0000 -0.6138904423
O   O11       1.0  0.04480  0.75770  0.93860  1.0000 -0.6138904423
O   O12       1.0  0.95520  0.25770  0.56140  1.0000 -0.6138904423
O   O13       1.0  0.09970  0.18090  0.10610  1.0000 -0.5947294861
O   O14       1.0  0.90030  0.68090  0.39390  1.0000 -0.5947294861
O   O15       1.0  0.90030  0.81910  0.89390  1.0000 -0.595248881
O   O16       1.0  0.09970  0.31910  0.60610  1.0000 -0.5947294861
O   O17       1.0  0.71300  0.13900  0.16250  1.0000 -0.7438263178
O   O18       1.0  0.28700  0.63900  0.33750  1.0000 -0.7438263178
O   O19       1.0  0.28700  0.86100  0.83750  1.0000 -0.7438263178
O   O20       1.0  0.71300  0.36100  0.66250  1.0000 -0.7438263178
O   O21       1.0  0.83330  0.20550  0.14080  1.0000 -0.6977992982
O   O22       1.0  0.16670  0.70550  0.35920  1.0000 -0.6977992982
O   O23       1.0  0.16670  0.79450  0.85920  1.0000 -0.6977992982
O   O24       1.0  0.83330  0.29450  0.64080  1.0000 -0.6977992982
O   O25       1.0  0.73070  0.32560  0.89770  1.0000 -0.5246147941
O   O26       1.0  0.26930  0.82560  0.60230  1.0000 -0.5246147941
O   O27       1.0  0.26930  0.67440  0.10230  1.0000 -0.5246147941
O   O28       1.0  0.73070  0.17440  0.39770  1.0000 -0.5246147941
O   O29       1.0  0.58180  0.34830  0.82700  1.0000 -0.5610705793
O   O30       1.0  0.41820  0.84830  0.67300  1.0000 -0.5610705793
O   O31       1.0  0.41820  0.65170  0.17300  1.0000 -0.5610705793
O   O32       1.0  0.58180  0.15170  0.32700  1.0000 -0.5610705793
O   O33       1.0  0.16995  0.36480  0.76145  1.0000 -0.6391359598
O   O34       1.0  0.83005  0.86480  0.73855  1.0000 -0.6391359598
O   O35       1.0  0.83005  0.63520  0.23855  1.0000 -0.6391359598
O   O36       1.0  0.16995  0.13520  0.26145  1.0000 -0.6391359598
O   O37       1.0  0.08040  0.46660  0.69580  1.0000 -0.6315670639
O   O38       1.0  0.91960  0.96660  0.80420  1.0000 -0.6315670639
O   O39       1.0  0.91960  0.53340  0.30420  1.0000 -0.6315670639
O   O40       1.0  0.08040  0.03340  0.19580  1.0000 -0.6315670639
O   O41       1.0  0.24400  0.72950  0.72070  1.0000 -0.5255220562
O   O42       1.0  0.75600  0.22950  0.77930  1.0000 -0.5246147941
O   O43       1.0  0.75600  0.27050  0.27930  1.0000 -0.5246147941
O   O44       1.0  0.24400  0.77050  0.22070  1.0000 -0.5255220562
O   O45       1.0  0.40530  0.74520  0.78990  1.0000 -0.6805631698
O   O46       1.0  0.59470  0.24520  0.71010  1.0000 -0.6805631698
O   O47       1.0  0.59470  0.25480  0.21010  1.0000 -0.6805631698
O   O48       1.0  0.40530  0.75480  0.28990  1.0000 -0.6805631698
O   O49       1.0  0.70220  0.49250  0.82020  1.0000 -0.4611332744
O   O50       1.0  0.29780  0.99250  0.67980  1.0000 -0.4611332744
O   O51       1.0  0.29780  0.50750  0.17980  1.0000 -0.4611332744
O   O52       1.0  0.70220  0.00750  0.32020  1.0000 -0.4611332744
