# DDEC6 charges by PACMAN v1.1 (https://github.com/mtap-research/PACMAN-charge/)
data_2015[Zn][hyw]3[ASR]1
_chemical_formula_sum              "Zn32 H144 C304 N32 O128"
_cell_length_a       31.4182
_cell_length_b       31.4182
_cell_length_c       31.4182
_cell_angle_alpha    132.005
_cell_angle_beta     132.005
_cell_angle_gamma    70.2207

_symmetry_space_group_name_H-M    "P 1"
_symmetry_Int_Tables_number       1

loop_
  _symmetry_equiv_pos_as_xyz
  'x, y, z'

loop_
  _atom_site_type_symbol
  _atom_site_label
  _atom_site_symmetry_multiplicity
  _atom_site_fract_x
  _atom_site_fract_y
  _atom_site_fract_z
  _atom_site_occupancy
  _atom_site_charge
Zn  Zn1       1.0  0.44091  0.47876  0.41639  1.0000 0.9506540495
Zn  Zn2       1.0  0.22876  0.31237  0.53785  1.0000 0.9506540495
Zn  Zn3       1.0  0.06237  0.02452  0.58361  1.0000 0.9506540495
Zn  Zn4       1.0  0.77452  0.69091  0.46215  1.0000 0.9506540495
Zn  Zn5       1.0  0.30909  0.22548  0.53785  1.0000 0.9506540495
Zn  Zn6       1.0  0.68763  0.77124  0.46215  1.0000 0.9506540495
Zn  Zn7       1.0  0.97548  0.93763  0.41639  1.0000 0.9506540495
Zn  Zn8       1.0  0.52124  0.55909  0.58361  1.0000 0.9506540495
Zn  Zn9       1.0  0.30909  0.77124  0.08361  1.0000 0.9506540495
Zn  Zn10      1.0  0.52124  0.93763  0.96215  1.0000 0.9506540495
Zn  Zn11      1.0  0.68763  0.22548  0.91639  1.0000 0.9506540495
Zn  Zn12      1.0  0.97548  0.55909  0.03785  1.0000 0.9506540495
Zn  Zn13      1.0  0.44091  0.02452  0.96215  1.0000 0.9506540495
Zn  Zn14      1.0  0.06237  0.47876  0.03785  1.0000 0.9506540495
Zn  Zn15      1.0  0.77452  0.31237  0.08361  1.0000 0.9506540495
Zn  Zn16      1.0  0.22876  0.69091  0.91639  1.0000 0.9506540495
Zn  Zn17      1.0  0.65825  0.43725  0.77900  1.0000 0.9506540495
Zn  Zn18      1.0  0.18725  0.90825  0.27900  1.0000 0.9506540495
Zn  Zn19      1.0  0.65825  0.87925  0.22100  1.0000 0.9506540495
Zn  Zn20      1.0  0.62925  0.90825  0.72100  1.0000 0.9506540495
Zn  Zn21      1.0  0.09175  0.37075  0.27900  1.0000 0.9506540495
Zn  Zn22      1.0  0.09175  0.81275  0.72100  1.0000 0.9506540495
Zn  Zn23      1.0  0.12075  0.34175  0.77900  1.0000 0.9506540495
Zn  Zn24      1.0  0.56275  0.34175  0.22100  1.0000 0.9506540495
Zn  Zn25      1.0  0.61577  0.31361  0.69784  1.0000 0.9506540495
Zn  Zn26      1.0  0.06361  0.86577  0.19784  1.0000 0.9506540495
Zn  Zn27      1.0  0.61577  0.91793  0.30216  1.0000 0.9506540495
Zn  Zn28      1.0  0.66793  0.86577  0.80216  1.0000 0.9506540495
Zn  Zn29      1.0  0.13423  0.33207  0.19784  1.0000 0.9506540495
Zn  Zn30      1.0  0.13423  0.93639  0.80216  1.0000 0.9506540495
Zn  Zn31      1.0  0.08207  0.38423  0.69784  1.0000 0.9506540495
Zn  Zn32      1.0  0.68639  0.38423  0.30216  1.0000 0.9506540495
H   H1        1.0  0.55160  0.42000  0.58880  1.0000 0.138783706
H   H2        1.0  0.17000  0.08120  0.36840  1.0000 0.138783706
H   H3        1.0  0.83120  0.96280  0.41120  1.0000 0.138783706
H   H4        1.0  0.71280  0.80160  0.63160  1.0000 0.138783706
H   H5        1.0  0.19840  0.28720  0.36840  1.0000 0.138783706
H   H6        1.0  0.91880  0.83000  0.63160  1.0000 0.138783706
H   H7        1.0  0.03720  0.16880  0.58880  1.0000 0.138783706
H   H8        1.0  0.58000  0.44840  0.41120  1.0000 0.138783706
H   H9        1.0  0.19840  0.83000  0.91120  1.0000 0.138783706
H   H10       1.0  0.58000  0.16880  0.13160  1.0000 0.138783706
H   H11       1.0  0.91880  0.28720  0.08880  1.0000 0.138783706
H   H12       1.0  0.03720  0.44840  0.86840  1.0000 0.138783706
H   H13       1.0  0.55160  0.96280  0.13160  1.0000 0.138783706
H   H14       1.0  0.83120  0.42000  0.86840  1.0000 0.138783706
H   H15       1.0  0.71280  0.08120  0.91120  1.0000 0.138783706
H   H16       1.0  0.17000  0.80160  0.08880  1.0000 0.138783706
H   H17       1.0  0.54280  0.70140  0.60760  1.0000 0.138783706
H   H18       1.0  0.45140  0.34380  0.65860  1.0000 0.138783706
H   H19       1.0  0.09380  0.93520  0.39240  1.0000 0.138783706
H   H20       1.0  0.68520  0.79280  0.34140  1.0000 0.138783706
H   H21       1.0  0.20720  0.31480  0.65860  1.0000 0.138783706
H   H22       1.0  0.65620  0.54860  0.34140  1.0000 0.138783706
H   H23       1.0  0.06480  0.90620  0.60760  1.0000 0.138783706
H   H24       1.0  0.29860  0.45720  0.39240  1.0000 0.138783706
H   H25       1.0  0.20720  0.54860  0.89240  1.0000 0.138783706
H   H26       1.0  0.29860  0.90620  0.84140  1.0000 0.138783706
H   H27       1.0  0.65620  0.31480  0.10760  1.0000 0.138783706
H   H28       1.0  0.06480  0.45720  0.15860  1.0000 0.138783706
H   H29       1.0  0.54280  0.93520  0.84140  1.0000 0.138783706
H   H30       1.0  0.09380  0.70140  0.15860  1.0000 0.138783706
H   H31       1.0  0.68520  0.34380  0.89240  1.0000 0.138783706
H   H32       1.0  0.45140  0.79280  0.10760  1.0000 0.138783706
H   H33       1.0  0.53450  0.24610  0.47660  1.0000 0.1328100979
H   H34       1.0  0.99610  0.01950  0.21160  1.0000 0.1328100979
H   H35       1.0  0.76950  0.05790  0.52340  1.0000 0.1328100979
H   H36       1.0  0.80790  0.78450  0.78840  1.0000 0.1328100979
H   H37       1.0  0.21550  0.19210  0.21160  1.0000 0.1328100979
H   H38       1.0  0.98050  0.00390  0.78840  1.0000 0.1328100979
H   H39       1.0  0.94210  0.23050  0.47660  1.0000 0.1328100979
H   H40       1.0  0.75390  0.46550  0.52340  1.0000 0.1328100979
H   H41       1.0  0.21550  0.00390  0.02340  1.0000 0.1328100979
H   H42       1.0  0.75390  0.23050  0.28840  1.0000 0.1328100979
H   H43       1.0  0.98050  0.19210  0.97660  1.0000 0.1328100979
H   H44       1.0  0.94210  0.46550  0.71160  1.0000 0.1328100979
H   H45       1.0  0.53450  0.05790  0.28840  1.0000 0.1328100979
H   H46       1.0  0.76950  0.24610  0.71160  1.0000 0.1328100979
H   H47       1.0  0.80790  0.01950  0.02340  1.0000 0.1328100979
H   H48       1.0  0.99610  0.78450  0.97660  1.0000 0.1328100979
H   H49       1.0  0.31900  0.67510  0.35610  1.0000 0.1236189278
H   H50       1.0  0.42510  0.56900  0.85610  1.0000 0.1236189278
H   H51       1.0  0.31900  0.96290  0.64390  1.0000 0.1236189278
H   H52       1.0  0.71290  0.56900  0.14390  1.0000 0.1236189278
H   H53       1.0  0.43100  0.28710  0.85610  1.0000 0.1236189278
H   H54       1.0  0.43100  0.57490  0.14390  1.0000 0.1236189278
H   H55       1.0  0.03710  0.68100  0.35610  1.0000 0.1236189278
H   H56       1.0  0.32490  0.68100  0.64390  1.0000 0.1236189278
H   H57       1.0  0.45490  0.30970  0.36620  1.0000 0.138783706
H   H58       1.0  0.05970  0.19350  0.35480  1.0000 0.138783706
H   H59       1.0  0.94350  0.08870  0.63380  1.0000 0.138783706
H   H60       1.0  0.83870  0.70490  0.64520  1.0000 0.138783706
H   H61       1.0  0.29510  0.16130  0.35480  1.0000 0.138783706
H   H62       1.0  0.80650  0.94030  0.64520  1.0000 0.138783706
H   H63       1.0  0.91130  0.05650  0.36620  1.0000 0.138783706
H   H64       1.0  0.69030  0.54510  0.63380  1.0000 0.138783706
H   H65       1.0  0.29510  0.94030  0.13380  1.0000 0.138783706
H   H66       1.0  0.69030  0.05650  0.14520  1.0000 0.138783706
H   H67       1.0  0.80650  0.16130  0.86620  1.0000 0.138783706
H   H68       1.0  0.91130  0.54510  0.85480  1.0000 0.138783706
H   H69       1.0  0.45490  0.08870  0.14520  1.0000 0.138783706
H   H70       1.0  0.94350  0.30970  0.85480  1.0000 0.138783706
H   H71       1.0  0.83870  0.19350  0.13380  1.0000 0.138783706
H   H72       1.0  0.05970  0.70490  0.86620  1.0000 0.138783706
H   H73       1.0  0.54620  0.18250  0.36370  1.0000 0.1328100979
H   H74       1.0  0.93250  0.06880  0.13630  1.0000 0.1328100979
H   H75       1.0  0.81880  0.18250  0.63630  1.0000 0.1328100979
H   H76       1.0  0.93250  0.79620  0.86370  1.0000 0.1328100979
H   H77       1.0  0.20380  0.06750  0.13630  1.0000 0.1328100979
H   H78       1.0  0.93120  0.06750  0.86370  1.0000 0.1328100979
H   H79       1.0  0.81750  0.18120  0.36370  1.0000 0.1328100979
H   H80       1.0  0.81750  0.45380  0.63630  1.0000 0.1328100979
H   H81       1.0  0.43760  0.70030  0.35710  1.0000 0.1328100979
H   H82       1.0  0.45030  0.59320  0.76270  1.0000 0.1328100979
H   H83       1.0  0.34320  0.08050  0.64290  1.0000 0.1328100979
H   H84       1.0  0.83050  0.68760  0.23730  1.0000 0.1328100979
H   H85       1.0  0.31240  0.16950  0.76270  1.0000 0.1328100979
H   H86       1.0  0.40680  0.54970  0.23730  1.0000 0.1328100979
H   H87       1.0  0.91950  0.65680  0.35710  1.0000 0.1328100979
H   H88       1.0  0.29970  0.56240  0.64290  1.0000 0.1328100979
H   H89       1.0  0.31240  0.54970  0.14290  1.0000 0.1328100979
H   H90       1.0  0.29970  0.65680  0.73730  1.0000 0.1328100979
H   H91       1.0  0.40680  0.16950  0.85710  1.0000 0.1328100979
H   H92       1.0  0.91950  0.56240  0.26270  1.0000 0.1328100979
H   H93       1.0  0.43760  0.08050  0.73730  1.0000 0.1328100979
H   H94       1.0  0.34320  0.70030  0.26270  1.0000 0.1328100979
H   H95       1.0  0.83050  0.59320  0.14290  1.0000 0.1328100979
H   H96       1.0  0.45030  0.68760  0.85710  1.0000 0.1328100979
H   H97       1.0  0.48510  0.76730  0.50580  1.0000 0.1328100979
H   H98       1.0  0.51730  0.51150  0.78220  1.0000 0.1328100979
H   H99       1.0  0.26150  0.97930  0.49420  1.0000 0.1328100979
H   H100      1.0  0.72930  0.73510  0.21780  1.0000 0.1328100979
H   H101      1.0  0.26490  0.27070  0.78220  1.0000 0.1328100979
H   H102      1.0  0.48850  0.48270  0.21780  1.0000 0.1328100979
H   H103      1.0  0.02070  0.73850  0.50580  1.0000 0.1328100979
H   H104      1.0  0.23270  0.51490  0.49420  1.0000 0.1328100979
H   H105      1.0  0.26490  0.48270  0.99420  1.0000 0.1328100979
H   H106      1.0  0.23270  0.73850  0.71780  1.0000 0.1328100979
H   H107      1.0  0.48850  0.27070  0.00580  1.0000 0.1328100979
H   H108      1.0  0.02070  0.51490  0.28220  1.0000 0.1328100979
H   H109      1.0  0.48510  0.97930  0.71780  1.0000 0.1328100979
H   H110      1.0  0.26150  0.76730  0.28220  1.0000 0.1328100979
H   H111      1.0  0.72930  0.51150  0.99420  1.0000 0.1328100979
H   H112      1.0  0.51730  0.73510  0.00580  1.0000 0.1328100979
H   H113      1.0  0.38090  0.20390  0.27400  1.0000 0.1328100979
H   H114      1.0  0.95390  0.17990  0.32300  1.0000 0.1328100979
H   H115      1.0  0.92990  0.10690  0.72600  1.0000 0.1328100979
H   H116      1.0  0.85690  0.63090  0.67700  1.0000 0.1328100979
H   H117      1.0  0.36910  0.14310  0.32300  1.0000 0.1328100979
H   H118      1.0  0.82010  0.04610  0.67700  1.0000 0.1328100979
H   H119      1.0  0.89310  0.07010  0.27400  1.0000 0.1328100979
H   H120      1.0  0.79610  0.61910  0.72600  1.0000 0.1328100979
H   H121      1.0  0.36910  0.04610  0.22600  1.0000 0.1328100979
H   H122      1.0  0.79610  0.07010  0.17700  1.0000 0.1328100979
H   H123      1.0  0.82010  0.14310  0.77400  1.0000 0.1328100979
H   H124      1.0  0.89310  0.61910  0.82300  1.0000 0.1328100979
H   H125      1.0  0.38090  0.10690  0.17700  1.0000 0.1328100979
H   H126      1.0  0.92990  0.20390  0.82300  1.0000 0.1328100979
H   H127      1.0  0.85690  0.17990  0.22600  1.0000 0.1328100979
H   H128      1.0  0.95390  0.63090  0.77400  1.0000 0.1328100979
H   H129      1.0  0.40260  0.61100  0.39240  1.0000 0.1328100979
H   H130      1.0  0.36100  0.46860  0.70840  1.0000 0.1328100979
H   H131      1.0  0.21860  0.01020  0.60760  1.0000 0.1328100979
H   H132      1.0  0.76020  0.65260  0.29160  1.0000 0.1328100979
H   H133      1.0  0.34740  0.23980  0.70840  1.0000 0.1328100979
H   H134      1.0  0.53140  0.63900  0.29160  1.0000 0.1328100979
H   H135      1.0  0.98980  0.78140  0.39240  1.0000 0.1328100979
H   H136      1.0  0.38900  0.59740  0.60760  1.0000 0.1328100979
H   H137      1.0  0.34740  0.63900  0.10760  1.0000 0.1328100979
H   H138      1.0  0.38900  0.78140  0.79160  1.0000 0.1328100979
H   H139      1.0  0.53140  0.23980  0.89240  1.0000 0.1328100979
H   H140      1.0  0.98980  0.59740  0.20840  1.0000 0.1328100979
H   H141      1.0  0.40260  0.01020  0.79160  1.0000 0.1328100979
H   H142      1.0  0.21860  0.61100  0.20840  1.0000 0.1328100979
H   H143      1.0  0.76020  0.46860  0.10760  1.0000 0.1328100979
H   H144      1.0  0.36100  0.65260  0.89240  1.0000 0.1328100979
C   C1        1.0  0.58483  0.34643  0.61480  1.0000 0.5925813532
C   C2        1.0  0.09643  0.98163  0.26160  1.0000 0.5925813532
C   C3        1.0  0.73163  0.97003  0.38520  1.0000 0.5925813532
C   C4        1.0  0.72003  0.83483  0.73840  1.0000 0.5925813532
C   C5        1.0  0.16517  0.27997  0.26160  1.0000 0.5925813532
C   C6        1.0  0.01837  0.90357  0.73840  1.0000 0.5925813532
C   C7        1.0  0.02997  0.26837  0.61480  1.0000 0.5925813532
C   C8        1.0  0.65357  0.41517  0.38520  1.0000 0.5925813532
C   C9        1.0  0.16517  0.90357  0.88520  1.0000 0.5925813532
C   C10       1.0  0.65357  0.26837  0.23840  1.0000 0.5925813532
C   C11       1.0  0.01837  0.27997  0.11480  1.0000 0.5925813532
C   C12       1.0  0.02997  0.41517  0.76160  1.0000 0.5925813532
C   C13       1.0  0.58483  0.97003  0.23840  1.0000 0.5925813532
C   C14       1.0  0.73163  0.34643  0.76160  1.0000 0.5925813532
C   C15       1.0  0.72003  0.98163  0.88520  1.0000 0.5925813532
C   C16       1.0  0.09643  0.83483  0.11480  1.0000 0.5925813532
C   C17       1.0  0.54899  0.33479  0.54300  1.0000 -0.0204769145
C   C18       1.0  0.08479  0.04179  0.28580  1.0000 -0.0204769145
C   C19       1.0  0.79179  0.00599  0.45700  1.0000 -0.0204769145
C   C20       1.0  0.75599  0.79899  0.71420  1.0000 -0.0204769145
C   C21       1.0  0.20101  0.24401  0.28580  1.0000 -0.0204769145
C   C22       1.0  0.95821  0.91521  0.71420  1.0000 -0.0204769145
C   C23       1.0  0.99401  0.20821  0.54300  1.0000 -0.0204769145
C   C24       1.0  0.66521  0.45101  0.45700  1.0000 -0.0204769145
C   C25       1.0  0.20101  0.91521  0.95700  1.0000 -0.0204769145
C   C26       1.0  0.66521  0.20821  0.21420  1.0000 -0.0204769145
C   C27       1.0  0.95821  0.24401  0.04300  1.0000 -0.0204769145
C   C28       1.0  0.99401  0.45101  0.78580  1.0000 -0.0204769145
C   C29       1.0  0.54899  0.00599  0.21420  1.0000 -0.0204769145
C   C30       1.0  0.79179  0.33479  0.78580  1.0000 -0.0204769145
C   C31       1.0  0.75599  0.04179  0.95700  1.0000 -0.0204769145
C   C32       1.0  0.08479  0.79899  0.04300  1.0000 -0.0204769145
C   C33       1.0  0.53641  0.38141  0.54320  1.0000 -0.110119559
C   C34       1.0  0.13141  0.08821  0.34500  1.0000 -0.110119559
C   C35       1.0  0.83821  0.99321  0.45680  1.0000 -0.110119559
C   C36       1.0  0.74321  0.78641  0.65500  1.0000 -0.110119559
C   C37       1.0  0.21359  0.25679  0.34500  1.0000 -0.110119559
C   C38       1.0  0.91179  0.86859  0.65500  1.0000 -0.110119559
C   C39       1.0  0.00679  0.16179  0.54320  1.0000 -0.110119559
C   C40       1.0  0.61859  0.46359  0.45680  1.0000 -0.110119559
C   C41       1.0  0.21359  0.86859  0.95680  1.0000 -0.110119559
C   C42       1.0  0.61859  0.16179  0.15500  1.0000 -0.110119559
C   C43       1.0  0.91179  0.25679  0.04320  1.0000 -0.110119559
C   C44       1.0  0.00679  0.46359  0.84500  1.0000 -0.110119559
C   C45       1.0  0.53641  0.99321  0.15500  1.0000 -0.110119559
C   C46       1.0  0.83821  0.38141  0.84500  1.0000 -0.110119559
C   C47       1.0  0.74321  0.08821  0.95680  1.0000 -0.110119559
C   C48       1.0  0.13141  0.78641  0.04320  1.0000 -0.110119559
C   C49       1.0  0.47392  0.64962  0.50110  1.0000 -0.0270336493
C   C50       1.0  0.39962  0.39852  0.67570  1.0000 -0.0270336493
C   C51       1.0  0.14852  0.97282  0.49890  1.0000 -0.0270336493
C   C52       1.0  0.72282  0.72392  0.32430  1.0000 -0.0270336493
C   C53       1.0  0.27608  0.27718  0.67570  1.0000 -0.0270336493
C   C54       1.0  0.60148  0.60038  0.32430  1.0000 -0.0270336493
C   C55       1.0  0.02718  0.85148  0.50110  1.0000 -0.0270336493
C   C56       1.0  0.35038  0.52608  0.49890  1.0000 -0.0270336493
C   C57       1.0  0.27608  0.60038  0.99890  1.0000 -0.0270336493
C   C58       1.0  0.35038  0.85148  0.82430  1.0000 -0.0270336493
C   C59       1.0  0.60148  0.27718  0.00110  1.0000 -0.0270336493
C   C60       1.0  0.02718  0.52608  0.17570  1.0000 -0.0270336493
C   C61       1.0  0.47392  0.97282  0.82430  1.0000 -0.0270336493
C   C62       1.0  0.14852  0.64962  0.17570  1.0000 -0.0270336493
C   C63       1.0  0.72282  0.39852  0.99890  1.0000 -0.0270336493
C   C64       1.0  0.39962  0.72392  0.00110  1.0000 -0.0270336493
C   C65       1.0  0.47085  0.60155  0.49810  1.0000 0.5925813532
C   C66       1.0  0.35155  0.35345  0.63070  1.0000 0.5925813532
C   C67       1.0  0.10345  0.97275  0.50190  1.0000 0.5925813532
C   C68       1.0  0.72275  0.72085  0.36930  1.0000 0.5925813532
C   C69       1.0  0.27915  0.27725  0.63070  1.0000 0.5925813532
C   C70       1.0  0.64655  0.64845  0.36930  1.0000 0.5925813532
C   C71       1.0  0.02725  0.89655  0.49810  1.0000 0.5925813532
C   C72       1.0  0.39845  0.52915  0.50190  1.0000 0.5925813532
C   C73       1.0  0.27915  0.64845  0.00190  1.0000 0.5925813532
C   C74       1.0  0.39845  0.89655  0.86930  1.0000 0.5925813532
C   C75       1.0  0.64655  0.27725  0.99810  1.0000 0.5925813532
C   C76       1.0  0.02725  0.52915  0.13070  1.0000 0.5925813532
C   C77       1.0  0.47085  0.97275  0.86930  1.0000 0.5925813532
C   C78       1.0  0.10345  0.60155  0.13070  1.0000 0.5925813532
C   C79       1.0  0.72275  0.35345  0.00190  1.0000 0.5925813532
C   C80       1.0  0.35155  0.72085  0.99810  1.0000 0.5925813532
C   C81       1.0  0.48912  0.42462  0.48030  1.0000 0.5810440658
C   C82       1.0  0.17462  0.19432  0.43550  1.0000 0.5810440658
C   C83       1.0  0.94432  0.00882  0.51970  1.0000 0.5810440658
C   C84       1.0  0.75882  0.73912  0.56450  1.0000 0.5810440658
C   C85       1.0  0.26088  0.24118  0.43550  1.0000 0.5810440658
C   C86       1.0  0.80568  0.82538  0.56450  1.0000 0.5810440658
C   C87       1.0  0.99118  0.05568  0.48030  1.0000 0.5810440658
C   C88       1.0  0.57538  0.51088  0.51970  1.0000 0.5810440658
C   C89       1.0  0.26088  0.82538  0.01970  1.0000 0.5810440658
C   C90       1.0  0.57538  0.05568  0.06450  1.0000 0.5810440658
C   C91       1.0  0.80568  0.24118  0.98030  1.0000 0.5810440658
C   C92       1.0  0.99118  0.51088  0.93550  1.0000 0.5810440658
C   C93       1.0  0.48912  0.00882  0.06450  1.0000 0.5810440658
C   C94       1.0  0.94432  0.42462  0.93550  1.0000 0.5810440658
C   C95       1.0  0.75882  0.19432  0.01970  1.0000 0.5810440658
C   C96       1.0  0.17462  0.73912  0.98030  1.0000 0.5810440658
C   C97       1.0  0.51631  0.69761  0.56410  1.0000 -0.100396891
C   C98       1.0  0.44761  0.38351  0.68130  1.0000 -0.100396891
C   C99       1.0  0.13351  0.95221  0.43590  1.0000 -0.100396891
C   C100      1.0  0.70221  0.76631  0.31870  1.0000 -0.100396891
C   C101      1.0  0.23369  0.29779  0.68130  1.0000 -0.100396891
C   C102      1.0  0.61649  0.55239  0.31870  1.0000 -0.100396891
C   C103      1.0  0.04779  0.86649  0.56410  1.0000 -0.100396891
C   C104      1.0  0.30239  0.48369  0.43590  1.0000 -0.100396891
C   C105      1.0  0.23369  0.55239  0.93590  1.0000 -0.100396891
C   C106      1.0  0.30239  0.86649  0.81870  1.0000 -0.100396891
C   C107      1.0  0.61649  0.29779  0.06410  1.0000 -0.100396891
C   C108      1.0  0.04779  0.48369  0.18130  1.0000 -0.100396891
C   C109      1.0  0.51631  0.95221  0.81870  1.0000 -0.100396891
C   C110      1.0  0.13351  0.69761  0.18130  1.0000 -0.100396891
C   C111      1.0  0.70221  0.38351  0.93590  1.0000 -0.100396891
C   C112      1.0  0.44761  0.76631  0.06410  1.0000 -0.100396891
C   C113      1.0  0.52673  0.27853  0.47740  1.0000 -0.2010504145
C   C114      1.0  0.02853  0.05113  0.25180  1.0000 -0.2010504145
C   C115      1.0  0.80113  0.04933  0.52260  1.0000 -0.2010504145
C   C116      1.0  0.79933  0.77673  0.74820  1.0000 -0.2010504145
C   C117      1.0  0.22327  0.20067  0.25180  1.0000 -0.2010504145
C   C118      1.0  0.94887  0.97147  0.74820  1.0000 -0.2010504145
C   C119      1.0  0.95067  0.19887  0.47740  1.0000 -0.2010504145
C   C120      1.0  0.72147  0.47327  0.52260  1.0000 -0.2010504145
C   C121      1.0  0.22327  0.97147  0.02260  1.0000 -0.2010504145
C   C122      1.0  0.72147  0.19887  0.24820  1.0000 -0.2010504145
C   C123      1.0  0.94887  0.20067  0.97740  1.0000 -0.2010504145
C   C124      1.0  0.95067  0.47327  0.75180  1.0000 -0.2010504145
C   C125      1.0  0.52673  0.04933  0.24820  1.0000 -0.2010504145
C   C126      1.0  0.80113  0.27853  0.75180  1.0000 -0.2010504145
C   C127      1.0  0.79933  0.05113  0.02260  1.0000 -0.2010504145
C   C128      1.0  0.02853  0.77673  0.97740  1.0000 -0.2010504145
C   C129      1.0  0.50224  0.37304  0.47860  1.0000 -0.0204769145
C   C130      1.0  0.12304  0.14444  0.37080  1.0000 -0.0204769145
C   C131      1.0  0.89444  0.02364  0.52140  1.0000 -0.0204769145
C   C132      1.0  0.77364  0.75224  0.62920  1.0000 -0.0204769145
C   C133      1.0  0.24776  0.22636  0.37080  1.0000 -0.0204769145
C   C134      1.0  0.85556  0.87696  0.62920  1.0000 -0.0204769145
C   C135      1.0  0.97636  0.10556  0.47860  1.0000 -0.0204769145
C   C136      1.0  0.62696  0.49776  0.52140  1.0000 -0.0204769145
C   C137      1.0  0.24776  0.87696  0.02140  1.0000 -0.0204769145
C   C138      1.0  0.62696  0.10556  0.12920  1.0000 -0.0204769145
C   C139      1.0  0.85556  0.22636  0.97860  1.0000 -0.0204769145
C   C140      1.0  0.97636  0.49776  0.87080  1.0000 -0.0204769145
C   C141      1.0  0.50224  0.02364  0.12920  1.0000 -0.0204769145
C   C142      1.0  0.89444  0.37304  0.87080  1.0000 -0.0204769145
C   C143      1.0  0.77364  0.14444  0.02140  1.0000 -0.0204769145
C   C144      1.0  0.12304  0.75224  0.97860  1.0000 -0.0204769145
C   C145      1.0  0.33650  0.68100  0.34450  1.0000 -0.0761643694
C   C146      1.0  0.43100  0.58650  0.84450  1.0000 -0.0761643694
C   C147      1.0  0.33650  0.99200  0.65550  1.0000 -0.0761643694
C   C148      1.0  0.74200  0.58650  0.15550  1.0000 -0.0761643694
C   C149      1.0  0.41350  0.25800  0.84450  1.0000 -0.0761643694
C   C150      1.0  0.41350  0.56900  0.15550  1.0000 -0.0761643694
C   C151      1.0  0.00800  0.66350  0.34450  1.0000 -0.0761643694
C   C152      1.0  0.31900  0.66350  0.65550  1.0000 -0.0761643694
C   C153      1.0  0.49255  0.27005  0.41210  1.0000 0.1328100979
C   C154      1.0  0.02005  0.10795  0.27750  1.0000 0.1328100979
C   C155      1.0  0.85795  0.08045  0.58790  1.0000 0.1328100979
C   C156      1.0  0.83045  0.74255  0.72250  1.0000 0.1328100979
C   C157      1.0  0.25745  0.16955  0.27750  1.0000 0.1328100979
C   C158      1.0  0.89205  0.97995  0.72250  1.0000 0.1328100979
C   C159      1.0  0.91955  0.14205  0.41210  1.0000 0.1328100979
C   C160      1.0  0.72995  0.50745  0.58790  1.0000 0.1328100979
C   C161      1.0  0.25745  0.97995  0.08790  1.0000 0.1328100979
C   C162      1.0  0.72995  0.14205  0.22250  1.0000 0.1328100979
C   C163      1.0  0.89205  0.16955  0.91210  1.0000 0.1328100979
C   C164      1.0  0.91955  0.50745  0.77750  1.0000 0.1328100979
C   C165      1.0  0.49255  0.08045  0.22250  1.0000 0.1328100979
C   C166      1.0  0.85795  0.27005  0.77750  1.0000 0.1328100979
C   C167      1.0  0.83045  0.10795  0.08790  1.0000 0.1328100979
C   C168      1.0  0.02005  0.74255  0.91210  1.0000 0.1328100979
C   C169      1.0  0.47920  0.31630  0.41130  1.0000 -0.1919797676
C   C170      1.0  0.06630  0.15500  0.33710  1.0000 -0.1919797676
C   C171      1.0  0.90500  0.06790  0.58870  1.0000 -0.1919797676
C   C172      1.0  0.81790  0.72920  0.66290  1.0000 -0.1919797676
C   C173      1.0  0.27080  0.18210  0.33710  1.0000 -0.2010504145
C   C174      1.0  0.84500  0.93370  0.66290  1.0000 -0.1919797676
C   C175      1.0  0.93210  0.09500  0.41130  1.0000 -0.1919797676
C   C176      1.0  0.68370  0.52080  0.58870  1.0000 -0.1919797676
C   C177      1.0  0.27080  0.93370  0.08870  1.0000 -0.2010504145
C   C178      1.0  0.68370  0.09500  0.16290  1.0000 -0.2010504145
C   C179      1.0  0.84500  0.18210  0.91130  1.0000 -0.1919797676
C   C180      1.0  0.93210  0.52080  0.83710  1.0000 -0.1919797676
C   C181      1.0  0.47920  0.06790  0.16290  1.0000 -0.1919797676
C   C182      1.0  0.90500  0.31630  0.83710  1.0000 -0.1919797676
C   C183      1.0  0.81790  0.15500  0.08870  1.0000 -0.1919797676
C   C184      1.0  0.06630  0.72920  0.91130  1.0000 -0.1919797676
C   C185      1.0  0.50480  0.17540  0.32940  1.0000 -0.0618856874
C   C186      1.0  0.92540  0.09600  0.17060  1.0000 -0.0618856874
C   C187      1.0  0.84600  0.17540  0.67060  1.0000 -0.0618856874
C   C188      1.0  0.92540  0.75480  0.82940  1.0000 -0.0618856874
C   C189      1.0  0.24520  0.07460  0.17060  1.0000 -0.0618856874
C   C190      1.0  0.90400  0.07460  0.82940  1.0000 -0.0618856874
C   C191      1.0  0.82460  0.15400  0.32940  1.0000 -0.0618856874
C   C192      1.0  0.82460  0.49520  0.67060  1.0000 -0.0618856874
C   C193      1.0  0.40140  0.69510  0.34410  1.0000 -0.110119559
C   C194      1.0  0.44510  0.60100  0.79370  1.0000 -0.110119559
C   C195      1.0  0.35100  0.05730  0.65590  1.0000 -0.110119559
C   C196      1.0  0.80730  0.65140  0.20630  1.0000 -0.110119559
C   C197      1.0  0.34860  0.19270  0.79370  1.0000 -0.110119559
C   C198      1.0  0.39900  0.55490  0.20630  1.0000 -0.110119559
C   C199      1.0  0.94270  0.64900  0.34410  1.0000 -0.110119559
C   C200      1.0  0.30490  0.59860  0.65590  1.0000 -0.110119559
C   C201      1.0  0.34860  0.55490  0.15590  1.0000 -0.110119559
C   C202      1.0  0.30490  0.64900  0.70630  1.0000 -0.110119559
C   C203      1.0  0.39900  0.19270  0.84410  1.0000 -0.110119559
C   C204      1.0  0.94270  0.59860  0.29370  1.0000 -0.110119559
C   C205      1.0  0.40140  0.05730  0.70630  1.0000 -0.110119559
C   C206      1.0  0.35100  0.69510  0.29370  1.0000 -0.110119559
C   C207      1.0  0.80730  0.60100  0.15590  1.0000 -0.110119559
C   C208      1.0  0.44510  0.65140  0.84410  1.0000 -0.110119559
C   C209      1.0  0.48207  0.73757  0.50490  1.0000 -0.1919797676
C   C210      1.0  0.48757  0.48267  0.75550  1.0000 -0.1919797676
C   C211      1.0  0.23267  0.97717  0.49510  1.0000 -0.1919797676
C   C212      1.0  0.72717  0.73207  0.24450  1.0000 -0.1919797676
C   C213      1.0  0.26793  0.27283  0.75550  1.0000 -0.1919797676
C   C214      1.0  0.51733  0.51243  0.24450  1.0000 -0.1919797676
C   C215      1.0  0.02283  0.76733  0.50490  1.0000 -0.1919797676
C   C216      1.0  0.26243  0.51793  0.49510  1.0000 -0.1919797676
C   C217      1.0  0.26793  0.51243  0.99510  1.0000 -0.1919797676
C   C218      1.0  0.26243  0.76733  0.74450  1.0000 -0.1919797676
C   C219      1.0  0.51733  0.27283  0.00490  1.0000 -0.1919797676
C   C220      1.0  0.02283  0.51793  0.25550  1.0000 -0.1919797676
C   C221      1.0  0.48207  0.97717  0.74450  1.0000 -0.1919797676
C   C222      1.0  0.23267  0.73757  0.25550  1.0000 -0.1919797676
C   C223      1.0  0.72717  0.48267  0.99510  1.0000 -0.1919797676
C   C224      1.0  0.48757  0.73207  0.00490  1.0000 -0.1919797676
C   C225      1.0  0.41406  0.18686  0.27960  1.0000 -0.1158256563
C   C226      1.0  0.93686  0.15726  0.27280  1.0000 -0.1158256563
C   C227      1.0  0.90726  0.13446  0.72040  1.0000 -0.1158256563
C   C228      1.0  0.88446  0.66406  0.72720  1.0000 -0.1158256563
C   C229      1.0  0.33594  0.11554  0.27280  1.0000 -0.1158256563
C   C230      1.0  0.84274  0.06314  0.72720  1.0000 -0.1158256563
C   C231      1.0  0.86554  0.09274  0.27960  1.0000 -0.1158256563
C   C232      1.0  0.81314  0.58594  0.72040  1.0000 -0.1158256563
C   C233      1.0  0.33594  0.06314  0.22040  1.0000 -0.1158256563
C   C234      1.0  0.81314  0.09274  0.22720  1.0000 -0.1158256563
C   C235      1.0  0.84274  0.11554  0.77960  1.0000 -0.1158256563
C   C236      1.0  0.86554  0.58594  0.77280  1.0000 -0.1158256563
C   C237      1.0  0.41406  0.13446  0.22720  1.0000 -0.1158256563
C   C238      1.0  0.90726  0.18686  0.77280  1.0000 -0.1158256563
C   C239      1.0  0.88446  0.15726  0.22040  1.0000 -0.1158256563
C   C240      1.0  0.93686  0.66406  0.77960  1.0000 -0.1158256563
C   C241      1.0  0.52289  0.74219  0.56790  1.0000 -0.0204769145
C   C242      1.0  0.49219  0.42429  0.71930  1.0000 -0.0204769145
C   C243      1.0  0.17429  0.95499  0.43210  1.0000 -0.0204769145
C   C244      1.0  0.70499  0.77289  0.28070  1.0000 -0.0204769145
C   C245      1.0  0.22711  0.29501  0.71930  1.0000 -0.0204769145
C   C246      1.0  0.57571  0.50781  0.28070  1.0000 -0.0204769145
C   C247      1.0  0.04501  0.82571  0.56790  1.0000 -0.0204769145
C   C248      1.0  0.25781  0.47711  0.43210  1.0000 -0.0204769145
C   C249      1.0  0.22711  0.50781  0.93210  1.0000 -0.0204769145
C   C250      1.0  0.25781  0.82571  0.78070  1.0000 -0.0204769145
C   C251      1.0  0.57571  0.29501  0.06790  1.0000 -0.0204769145
C   C252      1.0  0.04501  0.47711  0.21930  1.0000 -0.0204769145
C   C253      1.0  0.52289  0.95499  0.78070  1.0000 -0.0204769145
C   C254      1.0  0.17429  0.74219  0.21930  1.0000 -0.0204769145
C   C255      1.0  0.70499  0.42429  0.93210  1.0000 -0.0204769145
C   C256      1.0  0.49219  0.77289  0.06790  1.0000 -0.0204769145
C   C257      1.0  0.43273  0.64483  0.43730  1.0000 -0.2010504145
C   C258      1.0  0.39483  0.45753  0.71210  1.0000 -0.2010504145
C   C259      1.0  0.20753  0.99543  0.56270  1.0000 -0.2010504145
C   C260      1.0  0.74543  0.68273  0.28790  1.0000 -0.2010504145
C   C261      1.0  0.31727  0.25457  0.71210  1.0000 -0.2010504145
C   C262      1.0  0.54247  0.60517  0.28790  1.0000 -0.2010504145
C   C263      1.0  0.00457  0.79247  0.43730  1.0000 -0.2010504145
C   C264      1.0  0.35517  0.56727  0.56270  1.0000 -0.2010504145
C   C265      1.0  0.31727  0.60517  0.06270  1.0000 -0.2010504145
C   C266      1.0  0.35517  0.79247  0.78790  1.0000 -0.2010504145
C   C267      1.0  0.54247  0.25457  0.93730  1.0000 -0.2010504145
C   C268      1.0  0.00457  0.56727  0.21210  1.0000 -0.2010504145
C   C269      1.0  0.43273  0.99543  0.78790  1.0000 -0.2010504145
C   C270      1.0  0.20753  0.64483  0.21210  1.0000 -0.2010504145
C   C271      1.0  0.74543  0.45753  0.06270  1.0000 -0.2010504145
C   C272      1.0  0.39483  0.68273  0.93730  1.0000 -0.2010504145
C   C273      1.0  0.43609  0.68839  0.43970  1.0000 0.138783706
C   C274      1.0  0.43839  0.49869  0.75230  1.0000 0.138783706
C   C275      1.0  0.24869  0.99639  0.56030  1.0000 0.138783706
C   C276      1.0  0.74639  0.68609  0.24770  1.0000 0.138783706
C   C277      1.0  0.31391  0.25361  0.75230  1.0000 0.138783706
C   C278      1.0  0.50131  0.56161  0.24770  1.0000 0.138783706
C   C279      1.0  0.00361  0.75131  0.43970  1.0000 0.138783706
C   C280      1.0  0.31161  0.56391  0.56030  1.0000 0.138783706
C   C281      1.0  0.31391  0.56161  0.06030  1.0000 0.138783706
C   C282      1.0  0.31161  0.75131  0.74770  1.0000 0.138783706
C   C283      1.0  0.50131  0.25361  0.93970  1.0000 0.138783706
C   C284      1.0  0.00361  0.56391  0.25230  1.0000 0.138783706
C   C285      1.0  0.43609  0.99639  0.74770  1.0000 0.138783706
C   C286      1.0  0.24869  0.68839  0.25230  1.0000 0.138783706
C   C287      1.0  0.74639  0.49869  0.06030  1.0000 0.138783706
C   C288      1.0  0.43839  0.68609  0.93970  1.0000 0.138783706
C   C289      1.0  0.57110  0.79410  0.63880  1.0000 0.5810440658
C   C290      1.0  0.54410  0.40530  0.72300  1.0000 0.5810440658
C   C291      1.0  0.15530  0.93230  0.36120  1.0000 0.5810440658
C   C292      1.0  0.68230  0.82110  0.27700  1.0000 0.5810440658
C   C293      1.0  0.17890  0.31770  0.72300  1.0000 0.5810440658
C   C294      1.0  0.59470  0.45590  0.27700  1.0000 0.5810440658
C   C295      1.0  0.06770  0.84470  0.63880  1.0000 0.5810440658
C   C296      1.0  0.20590  0.42890  0.36120  1.0000 0.5810440658
C   C297      1.0  0.17890  0.45590  0.86120  1.0000 0.5810440658
C   C298      1.0  0.20590  0.84470  0.77700  1.0000 0.5810440658
C   C299      1.0  0.59470  0.31770  0.13880  1.0000 0.5810440658
C   C300      1.0  0.06770  0.42890  0.22300  1.0000 0.5810440658
C   C301      1.0  0.57110  0.93230  0.77700  1.0000 0.5810440658
C   C302      1.0  0.15530  0.79410  0.22300  1.0000 0.5810440658
C   C303      1.0  0.68230  0.40530  0.86120  1.0000 0.5810440658
C   C304      1.0  0.54410  0.82110  0.13880  1.0000 0.5810440658
N   N1        1.0  0.47120  0.21110  0.34290  1.0000 0.0083484954
N   N2        1.0  0.96110  0.11820  0.23990  1.0000 0.0083484954
N   N3        1.0  0.86820  0.12830  0.65710  1.0000 0.0083484954
N   N4        1.0  0.87830  0.72120  0.76010  1.0000 0.0083484954
N   N5        1.0  0.27880  0.12170  0.23990  1.0000 0.0083484954
N   N6        1.0  0.88180  0.03890  0.76010  1.0000 0.0083484954
N   N7        1.0  0.87170  0.13180  0.34290  1.0000 0.0083484954
N   N8        1.0  0.78890  0.52880  0.65710  1.0000 0.0083484954
N   N9        1.0  0.27880  0.03890  0.15710  1.0000 0.0083484954
N   N10       1.0  0.78890  0.13180  0.26010  1.0000 0.0083484954
N   N11       1.0  0.88180  0.12170  0.84290  1.0000 0.0083484954
N   N12       1.0  0.87170  0.52880  0.73990  1.0000 0.0083484954
N   N13       1.0  0.47120  0.12830  0.26010  1.0000 0.0083484954
N   N14       1.0  0.86820  0.21110  0.73990  1.0000 0.0083484954
N   N15       1.0  0.87830  0.11820  0.15710  1.0000 0.0083484954
N   N16       1.0  0.96110  0.72120  0.84290  1.0000 0.0083484954
N   N17       1.0  0.39278  0.68588  0.37690  1.0000 -0.0068478776
N   N18       1.0  0.43588  0.55898  0.79310  1.0000 -0.0068478776
N   N19       1.0  0.30898  0.01588  0.62310  1.0000 -0.0068478776
N   N20       1.0  0.76588  0.64278  0.20690  1.0000 -0.0068478776
N   N21       1.0  0.35722  0.23412  0.79310  1.0000 -0.0068478776
N   N22       1.0  0.44102  0.56412  0.20690  1.0000 -0.0068478776
N   N23       1.0  0.98412  0.69102  0.37690  1.0000 -0.0068478776
N   N24       1.0  0.31412  0.60722  0.62310  1.0000 -0.0068478776
N   N25       1.0  0.35722  0.56412  0.12310  1.0000 -0.0068478776
N   N26       1.0  0.31412  0.69102  0.70690  1.0000 -0.0068478776
N   N27       1.0  0.44102  0.23412  0.87690  1.0000 -0.0068478776
N   N28       1.0  0.98412  0.60722  0.29310  1.0000 -0.0068478776
N   N29       1.0  0.39278  0.01588  0.70690  1.0000 -0.0068478776
N   N30       1.0  0.30898  0.68588  0.29310  1.0000 -0.0068478776
N   N31       1.0  0.76588  0.55898  0.12310  1.0000 -0.0068478776
N   N32       1.0  0.43588  0.64278  0.87690  1.0000 -0.0068478776
O   O1        1.0  0.43519  0.55419  0.43480  1.0000 -0.559134019
O   O2        1.0  0.30419  0.36939  0.61900  1.0000 -0.559134019
O   O3        1.0  0.11939  0.00039  0.56520  1.0000 -0.559134019
O   O4        1.0  0.75039  0.68519  0.38100  1.0000 -0.559134019
O   O5        1.0  0.31481  0.24961  0.61900  1.0000 -0.559134019
O   O6        1.0  0.63061  0.69581  0.38100  1.0000 -0.559134019
O   O7        1.0  0.99961  0.88061  0.43480  1.0000 -0.559134019
O   O8        1.0  0.44581  0.56481  0.56520  1.0000 -0.559134019
O   O9        1.0  0.31481  0.69581  0.06520  1.0000 -0.559134019
O   O10       1.0  0.44581  0.88061  0.88100  1.0000 -0.559134019
O   O11       1.0  0.63061  0.24961  0.93480  1.0000 -0.559134019
O   O12       1.0  0.99961  0.56481  0.11900  1.0000 -0.559134019
O   O13       1.0  0.43519  0.00039  0.88100  1.0000 -0.559134019
O   O14       1.0  0.11939  0.55419  0.11900  1.0000 -0.559134019
O   O15       1.0  0.75039  0.36939  0.06520  1.0000 -0.559134019
O   O16       1.0  0.30419  0.68519  0.93480  1.0000 -0.559134019
O   O17       1.0  0.45870  0.41290  0.41860  1.0000 -0.559134019
O   O18       1.0  0.16290  0.24430  0.45420  1.0000 -0.559134019
O   O19       1.0  0.99430  0.04010  0.58140  1.0000 -0.559134019
O   O20       1.0  0.79010  0.70870  0.54580  1.0000 -0.5546461222
O   O21       1.0  0.29130  0.20990  0.45420  1.0000 -0.559134019
O   O22       1.0  0.75570  0.83710  0.54580  1.0000 -0.559134019
O   O23       1.0  0.95990  0.00570  0.41860  1.0000 -0.559134019
O   O24       1.0  0.58710  0.54130  0.58140  1.0000 -0.559134019
O   O25       1.0  0.29130  0.83710  0.08140  1.0000 -0.5546461222
O   O26       1.0  0.58710  0.00570  0.04580  1.0000 -0.559134019
O   O27       1.0  0.75570  0.20990  0.91860  1.0000 -0.559134019
O   O28       1.0  0.95990  0.54130  0.95420  1.0000 -0.559134019
O   O29       1.0  0.45870  0.04010  0.04580  1.0000 -0.5546461222
O   O30       1.0  0.99430  0.41290  0.95420  1.0000 -0.559134019
O   O31       1.0  0.79010  0.24430  0.08140  1.0000 -0.559134019
O   O32       1.0  0.16290  0.70870  0.91860  1.0000 -0.559134019
O   O33       1.0  0.50411  0.61121  0.55870  1.0000 -0.5403517127
O   O34       1.0  0.36121  0.30251  0.60710  1.0000 -0.5403517127
O   O35       1.0  0.05251  0.94541  0.44130  1.0000 -0.5403517127
O   O36       1.0  0.69541  0.75411  0.39290  1.0000 -0.5403517127
O   O37       1.0  0.24589  0.30459  0.60710  1.0000 -0.5403517127
O   O38       1.0  0.69749  0.63879  0.39290  1.0000 -0.5403517127
O   O39       1.0  0.05459  0.94749  0.55870  1.0000 -0.5403517127
O   O40       1.0  0.38879  0.49589  0.44130  1.0000 -0.5403517127
O   O41       1.0  0.24589  0.63879  0.94130  1.0000 -0.5403517127
O   O42       1.0  0.38879  0.94749  0.89290  1.0000 -0.5403517127
O   O43       1.0  0.69749  0.30459  0.05870  1.0000 -0.5403517127
O   O44       1.0  0.05459  0.49589  0.10710  1.0000 -0.5403517127
O   O45       1.0  0.50411  0.94541  0.89290  1.0000 -0.5403517127
O   O46       1.0  0.05251  0.61121  0.10710  1.0000 -0.5403517127
O   O47       1.0  0.69541  0.30251  0.94130  1.0000 -0.5403517127
O   O48       1.0  0.36121  0.75411  0.05870  1.0000 -0.5403517127
O   O49       1.0  0.58370  0.30460  0.61090  1.0000 -0.5403517127
O   O50       1.0  0.05460  0.94370  0.22090  1.0000 -0.5403517127
O   O51       1.0  0.69370  0.97280  0.38910  1.0000 -0.5403517127
O   O52       1.0  0.72280  0.83370  0.77910  1.0000 -0.5403517127
O   O53       1.0  0.16630  0.27720  0.22090  1.0000 -0.5403517127
O   O54       1.0  0.05630  0.94540  0.77910  1.0000 -0.5403517127
O   O55       1.0  0.02720  0.30630  0.61090  1.0000 -0.5403517127
O   O56       1.0  0.69540  0.41630  0.38910  1.0000 -0.5403517127
O   O57       1.0  0.16630  0.94540  0.88910  1.0000 -0.5403517127
O   O58       1.0  0.69540  0.30630  0.27910  1.0000 -0.5403517127
O   O59       1.0  0.05630  0.27720  0.11090  1.0000 -0.5403517127
O   O60       1.0  0.02720  0.41630  0.72090  1.0000 -0.5403517127
O   O61       1.0  0.58370  0.97280  0.27910  1.0000 -0.5403517127
O   O62       1.0  0.69370  0.30460  0.72090  1.0000 -0.5403517127
O   O63       1.0  0.72280  0.94370  0.88910  1.0000 -0.5403517127
O   O64       1.0  0.05460  0.83370  0.11090  1.0000 -0.5403517127
O   O65       1.0  0.61316  0.39666  0.67170  1.0000 -0.5403517127
O   O66       1.0  0.14666  0.97496  0.28350  1.0000 -0.5403517127
O   O67       1.0  0.72496  0.94146  0.32830  1.0000 -0.5403517127
O   O68       1.0  0.69146  0.86316  0.71650  1.0000 -0.5403517127
O   O69       1.0  0.13684  0.30854  0.28350  1.0000 -0.5403517127
O   O70       1.0  0.02504  0.85334  0.71650  1.0000 -0.5403517127
O   O71       1.0  0.05854  0.27504  0.67170  1.0000 -0.5403517127
O   O72       1.0  0.60334  0.38684  0.32830  1.0000 -0.5403517127
O   O73       1.0  0.13684  0.85334  0.82830  1.0000 -0.5403517127
O   O74       1.0  0.60334  0.27504  0.21650  1.0000 -0.5403517127
O   O75       1.0  0.02504  0.30854  0.17170  1.0000 -0.5403517127
O   O76       1.0  0.05854  0.38684  0.78350  1.0000 -0.5403517127
O   O77       1.0  0.61316  0.94146  0.21650  1.0000 -0.5403517127
O   O78       1.0  0.72496  0.39666  0.78350  1.0000 -0.5403517127
O   O79       1.0  0.69146  0.97496  0.82830  1.0000 -0.5403517127
O   O80       1.0  0.14666  0.86316  0.17170  1.0000 -0.5403517127
O   O81       1.0  0.60349  0.79869  0.69420  1.0000 -0.5094006536
O   O82       1.0  0.54869  0.35449  0.69520  1.0000 -0.5094006536
O   O83       1.0  0.10449  0.90929  0.30580  1.0000 -0.5094006536
O   O84       1.0  0.65929  0.85349  0.30480  1.0000 -0.5094006536
O   O85       1.0  0.14651  0.34071  0.69520  1.0000 -0.5094006536
O   O86       1.0  0.64551  0.45131  0.30480  1.0000 -0.5094006536
O   O87       1.0  0.09071  0.89551  0.69420  1.0000 -0.5094006536
O   O88       1.0  0.20131  0.39651  0.30580  1.0000 -0.5094006536
O   O89       1.0  0.14651  0.45131  0.80580  1.0000 -0.5094006536
O   O90       1.0  0.20131  0.89551  0.80480  1.0000 -0.5094006536
O   O91       1.0  0.64551  0.34071  0.19420  1.0000 -0.5094006536
O   O92       1.0  0.09071  0.39651  0.19520  1.0000 -0.5094006536
O   O93       1.0  0.60349  0.90929  0.80480  1.0000 -0.5094006536
O   O94       1.0  0.10449  0.79869  0.19520  1.0000 -0.5094006536
O   O95       1.0  0.65929  0.35449  0.80580  1.0000 -0.5094006536
O   O96       1.0  0.54869  0.85349  0.19420  1.0000 -0.5094006536
O   O97       1.0  0.50814  0.47294  0.53980  1.0000 -0.5222280798
O   O98       1.0  0.22294  0.18314  0.46480  1.0000 -0.5222280798
O   O99       1.0  0.93314  0.96834  0.46020  1.0000 -0.5222280798
O   O100      1.0  0.71834  0.75814  0.53520  1.0000 -0.5222280798
O   O101      1.0  0.24186  0.28166  0.46480  1.0000 -0.5222280798
O   O102      1.0  0.81686  0.77706  0.53520  1.0000 -0.5222280798
O   O103      1.0  0.03166  0.06686  0.53980  1.0000 -0.5222280798
O   O104      1.0  0.52706  0.49186  0.46020  1.0000 -0.5222280798
O   O105      1.0  0.24186  0.77706  0.96020  1.0000 -0.5222280798
O   O106      1.0  0.52706  0.06686  0.03520  1.0000 -0.5222280798
O   O107      1.0  0.81686  0.28166  0.03980  1.0000 -0.5222280798
O   O108      1.0  0.03166  0.49186  0.96480  1.0000 -0.5222280798
O   O109      1.0  0.50814  0.96834  0.03520  1.0000 -0.5222280798
O   O110      1.0  0.93314  0.47294  0.96480  1.0000 -0.5222280798
O   O111      1.0  0.71834  0.18314  0.96020  1.0000 -0.5222280798
O   O112      1.0  0.22294  0.75814  0.03980  1.0000 -0.5222280798
O   O113      1.0  0.57308  0.83218  0.63490  1.0000 -0.5784468529
O   O114      1.0  0.58218  0.44728  0.75910  1.0000 -0.5784468529
O   O115      1.0  0.19728  0.93818  0.36510  1.0000 -0.5784468529
O   O116      1.0  0.68818  0.82308  0.24090  1.0000 -0.5784468529
O   O117      1.0  0.17692  0.31182  0.75910  1.0000 -0.5784468529
O   O118      1.0  0.55272  0.41782  0.24090  1.0000 -0.5784468529
O   O119      1.0  0.06182  0.80272  0.63490  1.0000 -0.5784468529
O   O120      1.0  0.16782  0.42692  0.36510  1.0000 -0.5784468529
O   O121      1.0  0.17692  0.41782  0.86510  1.0000 -0.5784468529
O   O122      1.0  0.16782  0.80272  0.74090  1.0000 -0.5784468529
O   O123      1.0  0.55272  0.31182  0.13490  1.0000 -0.5784468529
O   O124      1.0  0.06182  0.42692  0.25910  1.0000 -0.5784468529
O   O125      1.0  0.57308  0.93818  0.74090  1.0000 -0.5784468529
O   O126      1.0  0.19728  0.83218  0.25910  1.0000 -0.5784468529
O   O127      1.0  0.68818  0.44728  0.86510  1.0000 -0.5784468529
O   O128      1.0  0.58218  0.82308  0.13490  1.0000 -0.5784468529
