# DDEC6 charges by PACMAN v1.1 (https://github.com/mtap-research/PACMAN-charge/)
data_2015[Zn][nan]3[ASR]42
_chemical_formula_sum              "Zn10 H82 C126 N8 O44"
_cell_length_a       11.092
_cell_length_b       12.199
_cell_length_c       28.767
_cell_angle_alpha    97.64
_cell_angle_beta     92.01
_cell_angle_gamma    115.936

_symmetry_space_group_name_H-M    "P 1"
_symmetry_Int_Tables_number       1

loop_
  _symmetry_equiv_pos_as_xyz
  'x, y, z'

loop_
  _atom_site_type_symbol
  _atom_site_label
  _atom_site_symmetry_multiplicity
  _atom_site_fract_x
  _atom_site_fract_y
  _atom_site_fract_z
  _atom_site_occupancy
  _atom_site_charge
Zn  Zn1       1.0  0.68224  0.69033  0.83802  1.0000 0.9641109268
Zn  Zn2       1.0  0.31776  0.30967  0.16198  1.0000 0.9641109268
Zn  Zn3       1.0  0.73329  0.43428  0.82164  1.0000 0.9820146124
Zn  Zn4       1.0  0.26671  0.56572  0.17836  1.0000 0.9820146124
Zn  Zn5       1.0  0.99630  0.70581  0.83822  1.0000 0.9199691574
Zn  Zn6       1.0  0.00370  0.29419  0.16178  1.0000 0.9199691574
Zn  Zn7       1.0  0.29419  0.08092  0.58621  1.0000 0.8901513378
Zn  Zn8       1.0  0.70581  0.91908  0.41379  1.0000 0.8901513378
Zn  Zn9       1.0  0.58891  0.31481  0.64673  1.0000 0.9683895867
Zn  Zn10      1.0  0.41109  0.68519  0.35327  1.0000 0.9683895867
H   H1        1.0  0.19796  0.98461  0.84180  1.0000 0.0898674873
H   H2        1.0  0.80204  0.01539  0.15820  1.0000 0.0898674873
H   H3        1.0  0.45090  0.11689  0.85163  1.0000 0.1306136887
H   H4        1.0  0.54910  0.88311  0.14837  1.0000 0.1306136887
H   H5        1.0  0.49130  0.79679  0.88619  1.0000 0.1306136887
H   H6        1.0  0.50870  0.20321  0.11381  1.0000 0.1306136887
H   H7        1.0  0.23850  0.68067  0.87351  1.0000 0.0898674873
H   H8        1.0  0.76150  0.31933  0.12649  1.0000 0.0898674873
H   H9        1.0  0.62375  0.12416  0.81052  1.0000 0.1385968189
H   H10       1.0  0.37625  0.87584  0.18948  1.0000 0.1385968189
H   H11       1.0  0.87280  0.24369  0.81150  1.0000 0.1211327259
H   H12       1.0  0.12720  0.75631  0.18850  1.0000 0.1211327259
H   H13       1.0  0.69411  0.97521  0.93252  1.0000 0.1306136887
H   H14       1.0  0.30589  0.02479  0.06748  1.0000 0.1306136887
H   H15       1.0  0.94282  0.10701  0.93009  1.0000 0.1016930243
H   H16       1.0  0.05718  0.89299  0.06991  1.0000 0.1016930243
H   H17       1.0  0.03258  0.41438  0.86875  1.0000 0.1211327259
H   H18       1.0  0.96742  0.58562  0.13125  1.0000 0.1211327259
H   H19       1.0  0.28092  0.54159  0.86102  1.0000 0.1087071814
H   H20       1.0  0.71908  0.45841  0.13898  1.0000 0.1087071814
H   H21       1.0  0.35217  0.22597  0.86530  1.0000 0.1016930243
H   H22       1.0  0.64783  0.77403  0.13470  1.0000 0.1016930243
H   H23       1.0  0.10112  0.09229  0.87049  1.0000 0.1211327259
H   H24       1.0  0.89888  0.90771  0.12951  1.0000 0.1211327259
H   H25       1.0  0.09219  0.82405  0.57763  1.0000 0.1016930243
H   H26       1.0  0.90781  0.17595  0.42237  1.0000 0.1016930243
H   H27       1.0  0.84354  0.69727  0.58364  1.0000 0.1211327259
H   H28       1.0  0.15646  0.30273  0.41636  1.0000 0.1211327259
H   H29       1.0  0.79859  0.03348  0.57971  1.0000 0.1306136887
H   H30       1.0  0.20141  0.96652  0.42029  1.0000 0.1306136887
H   H31       1.0  0.04974  0.14414  0.57679  1.0000 0.1016930243
H   H32       1.0  0.95026  0.85586  0.42321  1.0000 0.1016930243
H   H33       1.0  0.68211  0.66357  0.63518  1.0000 0.1511756788
H   H34       1.0  0.31789  0.33643  0.36482  1.0000 0.1511756788
H   H35       1.0  0.43727  0.55246  0.64307  1.0000 0.1211327259
H   H36       1.0  0.56273  0.44754  0.35693  1.0000 0.1211327259
H   H37       1.0  0.34863  0.76993  0.55857  1.0000 0.1306136887
H   H38       1.0  0.65137  0.23007  0.44143  1.0000 0.1306136887
H   H39       1.0  0.59279  0.89051  0.54753  1.0000 0.1385968189
H   H40       1.0  0.40721  0.10949  0.45247  1.0000 0.1385968189
H   H41       1.0  0.23692  0.41141  0.59716  1.0000 0.1211327259
H   H42       1.0  0.76308  0.58859  0.40284  1.0000 0.1211327259
H   H43       1.0  0.99238  0.30896  0.61211  1.0000 0.1087071814
H   H44       1.0  0.00762  0.69104  0.38789  1.0000 0.1087071814
H   H45       1.0  0.98716  0.66144  0.63897  1.0000 0.1087071814
H   H46       1.0  0.01284  0.33856  0.36103  1.0000 0.1087071814
H   H47       1.0  0.22935  0.76883  0.62330  1.0000 0.1211327259
H   H48       1.0  0.77065  0.23117  0.37670  1.0000 0.1211327259
H   H49       1.0  0.44570  0.77944  0.75954  1.0000 0.1087071814
H   H50       1.0  0.55430  0.22056  0.24046  1.0000 0.1087071814
H   H51       1.0  0.32017  0.84653  0.70327  1.0000 0.1087071814
H   H52       1.0  0.67983  0.15347  0.29673  1.0000 0.1087071814
H   H53       1.0  0.69826  0.10659  0.66366  1.0000 0.1211327259
H   H54       1.0  0.30174  0.89341  0.33634  1.0000 0.1211327259
H   H55       1.0  0.82383  0.03465  0.71913  1.0000 0.1016930243
H   H56       1.0  0.17617  0.96535  0.28087  1.0000 0.1087071814
H   H57       1.0  0.06881  0.17946  0.68512  1.0000 0.1087071814
H   H58       1.0  0.93119  0.82054  0.31488  1.0000 0.1087071814
H   H59       1.0  0.92358  0.26212  0.72906  1.0000 0.1087071814
H   H60       1.0  0.07642  0.73788  0.27094  1.0000 0.1087071814
H   H61       1.0  0.27082  0.61561  0.76886  1.0000 0.1016930243
H   H62       1.0  0.72918  0.38439  0.23114  1.0000 0.1016930243
H   H63       1.0  0.41542  0.53242  0.72577  1.0000 0.1087071814
H   H64       1.0  0.58458  0.46758  0.27423  1.0000 0.1087071814
H   H65       1.0  0.68311  0.46201  0.53684  1.0000 0.1211327259
H   H66       1.0  0.31689  0.53799  0.46316  1.0000 0.1211327259
H   H67       1.0  0.73869  0.63395  0.48697  1.0000 0.1087071814
H   H68       1.0  0.26131  0.36605  0.51303  1.0000 0.1087071814
H   H69       1.0  0.12609  0.69520  0.96743  1.0000 0.1087071814
H   H70       1.0  0.87391  0.30480  0.03257  1.0000 0.1087071814
H   H71       1.0  0.20565  0.66958  0.04787  1.0000 0.1087071814
H   H72       1.0  0.79435  0.33042  0.95213  1.0000 0.1087071814
H   H73       1.0  0.15117  0.99225  0.93854  1.0000 0.1087071814
H   H74       1.0  0.84883  0.00775  0.06146  1.0000 0.1087071814
H   H75       1.0  0.24750  0.13910  0.01625  1.0000 0.1211327259
H   H76       1.0  0.75250  0.86090  0.98375  1.0000 0.1211327259
H   H77       1.0  0.48160  0.17366  0.72906  1.0000 0.0239381912
H   H78       1.0  0.51840  0.82634  0.27094  1.0000 0.0239381912
H   H79       1.0  0.78337  0.60409  0.77443  1.0000 0.416732208
H   H80       1.0  0.21663  0.39591  0.22557  1.0000 0.416732208
H   H81       1.0  0.41604  0.01433  0.53089  1.0000 0.3587888936
H   H82       1.0  0.58396  0.98567  0.46911  1.0000 0.3587888936
C   C1        1.0  0.26796  0.94808  0.85134  1.0000 0.0898674873
C   C2        1.0  0.73204  0.05192  0.14866  1.0000 0.0898674873
C   C3        1.0  0.40714  0.02067  0.85745  1.0000 -0.1695741951
C   C4        1.0  0.59286  0.97933  0.14255  1.0000 -0.1695741951
C   C5        1.0  0.49100  0.96736  0.86998  1.0000 0.1087071814
C   C6        1.0  0.50900  0.03264  0.13002  1.0000 0.1087071814
C   C7        1.0  0.43088  0.84388  0.87759  1.0000 -0.1584696554
C   C8        1.0  0.56912  0.15612  0.12241  1.0000 -0.1584696554
C   C9        1.0  0.29077  0.77801  0.86977  1.0000 0.1016930243
C   C10       1.0  0.70923  0.22199  0.13023  1.0000 0.1016930243
C   C11       1.0  0.63787  0.03857  0.87133  1.0000 0.1211327259
C   C12       1.0  0.36213  0.96143  0.12867  1.0000 0.1211327259
C   C13       1.0  0.68977  0.11497  0.83730  1.0000 -0.1326413889
C   C14       1.0  0.31023  0.88503  0.16270  1.0000 -0.1326413889
C   C15       1.0  0.82724  0.18213  0.83708  1.0000 0.0725836525
C   C16       1.0  0.17276  0.81787  0.16292  1.0000 0.0725836525
C   C17       1.0  0.72909  0.03249  0.90506  1.0000 -0.1493777647
C   C18       1.0  0.27091  0.96751  0.09494  1.0000 -0.1493777647
C   C19       1.0  0.86597  0.10287  0.90422  1.0000 0.0638029414
C   C20       1.0  0.13403  0.89713  0.09578  1.0000 0.0638029414
C   C21       1.0  0.05645  0.24815  0.86965  1.0000 0.1591668065
C   C22       1.0  0.94355  0.75185  0.13035  1.0000 0.1591668065
C   C23       1.0  0.10289  0.37358  0.86759  1.0000 -0.1493777647
C   C24       1.0  0.89711  0.62642  0.13241  1.0000 -0.1493777647
C   C25       1.0  0.23910  0.44363  0.86394  1.0000 -0.0638109361
C   C26       1.0  0.76090  0.55637  0.13606  1.0000 -0.0638109361
C   C27       1.0  0.32764  0.38973  0.86283  1.0000 -0.0224108537
C   C28       1.0  0.67236  0.61027  0.13717  1.0000 -0.0224108537
C   C29       1.0  0.27957  0.26456  0.86633  1.0000 -0.0704179526
C   C30       1.0  0.72043  0.73544  0.13367  1.0000 -0.0704179526
C   C31       1.0  0.14256  0.19161  0.86955  1.0000 -0.1584696554
C   C32       1.0  0.85744  0.80839  0.13045  1.0000 -0.1584696554
C   C33       1.0  0.47229  0.46833  0.85626  1.0000 0.5889781873
C   C34       1.0  0.52771  0.53167  0.14374  1.0000 0.5889781873
C   C35       1.0  0.02247  0.86561  0.57982  1.0000 0.1087071814
C   C36       1.0  0.97753  0.13439  0.42018  1.0000 0.1087071814
C   C37       1.0  0.88558  0.79701  0.58349  1.0000 -0.1695741951
C   C38       1.0  0.11442  0.20299  0.41651  1.0000 -0.1695741951
C   C39       1.0  0.80241  0.85733  0.58536  1.0000 0.1016930243
C   C40       1.0  0.19759  0.14267  0.41464  1.0000 0.1016930243
C   C41       1.0  0.85974  0.98346  0.58108  1.0000 -0.1584696554
C   C42       1.0  0.14026  0.01654  0.41892  1.0000 -0.1584696554
C   C43       1.0  0.99857  0.04540  0.57888  1.0000 0.1087071814
C   C44       1.0  0.00143  0.95460  0.42112  1.0000 0.1087071814
C   C45       1.0  0.65841  0.78898  0.59125  1.0000 0.1211327259
C   C46       1.0  0.34159  0.21102  0.40875  1.0000 0.1211327259
C   C47       1.0  0.61288  0.69138  0.61768  1.0000 -0.1358775933
C   C48       1.0  0.38712  0.30862  0.38232  1.0000 -0.1358775933
C   C49       1.0  0.47717  0.62822  0.62257  1.0000 0.0725836525
C   C50       1.0  0.52283  0.37178  0.37743  1.0000 0.0725836525
C   C51       1.0  0.42755  0.75283  0.57542  1.0000 0.0725836525
C   C52       1.0  0.57245  0.24717  0.42458  1.0000 0.0638029414
C   C53       1.0  0.56250  0.81889  0.57013  1.0000 -0.1493777647
C   C54       1.0  0.43750  0.18111  0.42987  1.0000 -0.1493777647
C   C55       1.0  0.24497  0.59535  0.60874  1.0000 0.1511756788
C   C56       1.0  0.75503  0.40465  0.39126  1.0000 0.1511756788
C   C57       1.0  0.18238  0.46661  0.60594  1.0000 -0.1584696554
C   C58       1.0  0.81762  0.53339  0.39406  1.0000 -0.1584696554
C   C59       1.0  0.04669  0.40934  0.61406  1.0000 -0.0638109361
C   C60       1.0  0.95331  0.59066  0.38594  1.0000 -0.0638109361
C   C61       1.0  0.97716  0.47991  0.62554  1.0000 -0.0224108537
C   C62       1.0  0.02284  0.52009  0.37446  1.0000 -0.0224108537
C   C63       1.0  0.04274  0.60841  0.62848  1.0000 -0.0704179526
C   C64       1.0  0.95726  0.39159  0.37152  1.0000 -0.0704179526
C   C65       1.0  0.17723  0.66746  0.61960  1.0000 -0.1695741951
C   C66       1.0  0.82277  0.33254  0.38040  1.0000 -0.1695741951
C   C67       1.0  0.83319  0.41860  0.63524  1.0000 0.55296369
C   C68       1.0  0.16681  0.58140  0.36476  1.0000 0.55296369
C   C69       1.0  0.71662  0.86960  0.77742  1.0000 0.5635588626
C   C70       1.0  0.28338  0.13040  0.22258  1.0000 0.5635588626
C   C71       1.0  0.64178  0.90525  0.74245  1.0000 -0.0300992882
C   C72       1.0  0.35822  0.09475  0.25755  1.0000 -0.0300992882
C   C73       1.0  0.49986  0.85018  0.73820  1.0000 -0.1001124409
C   C74       1.0  0.50014  0.14982  0.26180  1.0000 -0.1001124409
C   C75       1.0  0.43046  0.88684  0.70733  1.0000 -0.1093869721
C   C76       1.0  0.56954  0.11316  0.29267  1.0000 -0.1093869721
C   C77       1.0  0.50267  0.97950  0.68092  1.0000 -0.0456363157
C   C78       1.0  0.49733  0.02050  0.31908  1.0000 -0.0456363157
C   C79       1.0  0.64447  0.03387  0.68451  1.0000 -0.1001124409
C   C80       1.0  0.35553  0.96613  0.31549  1.0000 -0.1001124409
C   C81       1.0  0.71357  0.99565  0.71513  1.0000 -0.1001124409
C   C82       1.0  0.28643  0.00435  0.28487  1.0000 -0.1001124409
C   C83       1.0  0.42508  0.01925  0.64915  1.0000 0.5635588626
C   C84       1.0  0.57492  0.98075  0.35085  1.0000 0.5635588626
C   C85       1.0  0.32940  0.29989  0.67343  1.0000 0.5718187253
C   C86       1.0  0.67060  0.70011  0.32657  1.0000 0.5718187253
C   C87       1.0  0.24871  0.35135  0.70234  1.0000 -0.0300992882
C   C88       1.0  0.75129  0.64865  0.29766  1.0000 -0.0300992882
C   C89       1.0  0.11109  0.27455  0.70418  1.0000 -0.1001124409
C   C90       1.0  0.88891  0.72545  0.29582  1.0000 -0.1001124409
C   C91       1.0  0.03166  0.32004  0.72858  1.0000 -0.0921726353
C   C92       1.0  0.96834  0.67996  0.27142  1.0000 -0.0921726353
C   C93       1.0  0.08966  0.44404  0.75129  1.0000 -0.0373849672
C   C94       1.0  0.91034  0.55596  0.24871  1.0000 -0.0373849672
C   C95       1.0  0.22770  0.52035  0.75016  1.0000 -0.0921726353
C   C96       1.0  0.77230  0.47965  0.24984  1.0000 -0.0921726353
C   C97       1.0  0.30731  0.47418  0.72616  1.0000 -0.1001124409
C   C98       1.0  0.69269  0.52582  0.27384  1.0000 -0.1001124409
C   C99       1.0  0.00603  0.49396  0.77793  1.0000 0.5979815285
C   C100      1.0  0.99397  0.50604  0.22207  1.0000 0.5979815285
C   C101      1.0  0.44049  0.30990  0.55729  1.0000 0.5718187253
C   C102      1.0  0.55951  0.69010  0.44271  1.0000 0.5718187253
C   C103      1.0  0.47002  0.40707  0.52700  1.0000 -0.0300992882
C   C104      1.0  0.52998  0.59293  0.47300  1.0000 -0.0300992882
C   C105      1.0  0.60504  0.48033  0.52006  1.0000 -0.1093869721
C   C106      1.0  0.39496  0.51967  0.47994  1.0000 -0.1093869721
C   C107      1.0  0.63496  0.57378  0.49305  1.0000 -0.1093869721
C   C108      1.0  0.36504  0.42622  0.50695  1.0000 -0.1093869721
C   C109      1.0  0.91218  0.52616  0.90919  1.0000 0.5889781873
C   C110      1.0  0.08782  0.47384  0.09081  1.0000 0.5889781873
C   C111      1.0  0.95671  0.51335  0.95659  1.0000 -0.0373849672
C   C112      1.0  0.04329  0.48665  0.04341  1.0000 -0.0373849672
C   C113      1.0  0.07245  0.61077  0.98243  1.0000 -0.0921726353
C   C114      1.0  0.92755  0.38923  0.01757  1.0000 -0.0921726353
C   C115      1.0  0.11603  0.59717  0.02617  1.0000 -0.1001124409
C   C116      1.0  0.88397  0.40283  0.97383  1.0000 -0.1001124409
C   C117      1.0  0.89093  0.84062  0.90931  1.0000 0.5846811096
C   C118      1.0  0.10907  0.15938  0.09069  1.0000 0.5846811096
C   C119      1.0  0.94722  0.92001  0.95686  1.0000 -0.0300992882
C   C120      1.0  0.05278  0.07999  0.04314  1.0000 -0.0300992882
C   C121      1.0  0.08673  0.99699  0.96596  1.0000 -0.1001124409
C   C122      1.0  0.91327  0.00301  0.03404  1.0000 -0.1001124409
C   C123      1.0  0.13936  0.07739  0.00877  1.0000 -0.1001124409
C   C124      1.0  0.86064  0.92261  0.99123  1.0000 -0.1001124409
C   C125      1.0  0.57024  0.25930  0.74568  1.0000 0.4933701913
C   C126      1.0  0.42976  0.74070  0.25432  1.0000 0.4933701913
N   N1        1.0  0.91311  0.17530  0.87044  1.0000 0.0638029414
N   N2        1.0  0.08689  0.82470  0.12956  1.0000 0.0638029414
N   N3        1.0  0.20968  0.82744  0.85626  1.0000 -0.2336824824
N   N4        1.0  0.79032  0.17256  0.14374  1.0000 -0.2336824824
N   N5        1.0  0.07954  0.98873  0.57920  1.0000 -0.2122792293
N   N6        1.0  0.92046  0.01127  0.42080  1.0000 -0.2122792293
N   N7        1.0  0.38627  0.65931  0.60169  1.0000 0.0469860482
N   N8        1.0  0.61373  0.34069  0.39831  1.0000 0.0469860482
O   O1        1.0  0.49825  0.57842  0.84933  1.0000 -0.5590561767
O   O2        1.0  0.50175  0.42158  0.15067  1.0000 -0.5590561767
O   O3        1.0  0.55514  0.42312  0.85740  1.0000 -0.5491102328
O   O4        1.0  0.44486  0.57688  0.14260  1.0000 -0.5491102328
O   O5        1.0  0.77212  0.48584  0.64569  1.0000 -0.5590561767
O   O6        1.0  0.22788  0.51416  0.35431  1.0000 -0.5590561767
O   O7        1.0  0.77545  0.30133  0.63261  1.0000 -0.5422842343
O   O8        1.0  0.22455  0.69867  0.36739  1.0000 -0.5422842343
O   O9        1.0  0.63322  0.77966  0.79804  1.0000 -0.6114597161
O   O10       1.0  0.36678  0.22034  0.20196  1.0000 -0.6114597161
O   O11       1.0  0.84200  0.92330  0.78549  1.0000 -0.5590561767
O   O12       1.0  0.15800  0.07670  0.21451  1.0000 -0.5590561767
O   O13       1.0  0.29934  0.95194  0.63890  1.0000 -0.5333224674
O   O14       1.0  0.70066  0.04806  0.36110  1.0000 -0.5333224674
O   O15       1.0  0.48923  0.11929  0.63221  1.0000 -0.5712465261
O   O16       1.0  0.51077  0.88071  0.36779  1.0000 -0.5712465261
O   O17       1.0  0.27236  0.18528  0.65762  1.0000 -0.5712465261
O   O18       1.0  0.72764  0.81472  0.34238  1.0000 -0.5712465261
O   O19       1.0  0.44988  0.37899  0.66738  1.0000 -0.5799662212
O   O20       1.0  0.55012  0.62101  0.33262  1.0000 -0.5799662212
O   O21       1.0  0.89451  0.41567  0.78972  1.0000 -0.5799662212
O   O22       1.0  0.10549  0.58433  0.21028  1.0000 -0.5799662212
O   O23       1.0  0.05563  0.61292  0.78815  1.0000 -0.5799662212
O   O24       1.0  0.94437  0.38708  0.21185  1.0000 -0.5799662212
O   O25       1.0  0.31661  0.24233  0.56247  1.0000 -0.5491102328
O   O26       1.0  0.68339  0.75767  0.43753  1.0000 -0.5491102328
O   O27       1.0  0.54257  0.30237  0.57557  1.0000 -0.5590561767
O   O28       1.0  0.45743  0.69763  0.42443  1.0000 -0.5590561767
O   O29       1.0  0.80805  0.43487  0.88643  1.0000 -0.5491102328
O   O30       1.0  0.19195  0.56513  0.11357  1.0000 -0.5491102328
O   O31       1.0  0.98626  0.62820  0.89546  1.0000 -0.5712465261
O   O32       1.0  0.01374  0.37180  0.10454  1.0000 -0.5712465261
O   O33       1.0  0.76345  0.76962  0.90397  1.0000 -0.5491102328
O   O34       1.0  0.23655  0.23038  0.09603  1.0000 -0.5491102328
O   O35       1.0  0.97168  0.85243  0.87764  1.0000 -0.5712465261
O   O36       1.0  0.02832  0.14757  0.12236  1.0000 -0.5712465261
O   O37       1.0  0.79219  0.61139  0.80876  1.0000 -0.8617126932
O   O38       1.0  0.20781  0.38861  0.19124  1.0000 -0.8617126932
O   O39       1.0  0.63912  0.33806  0.72139  1.0000 -0.5028172572
O   O40       1.0  0.36088  0.66194  0.27861  1.0000 -0.5028172572
O   O41       1.0  0.59347  0.27026  0.79078  1.0000 -0.5166540284
O   O42       1.0  0.40653  0.72974  0.20922  1.0000 -0.5166540284
O   O43       1.0  0.31917  0.98625  0.53054  1.0000 -0.8617126932
O   O44       1.0  0.68083  0.01375  0.46946  1.0000 -0.8617126932
