# DDEC6 charges by PACMAN v1.1 (https://github.com/mtap-research/PACMAN-charge/)
data_2015[Zn][nan]3[ASR]55
_chemical_formula_sum              "Zn6 P6 H30 C36 N10 O18"
_cell_length_a       9.149
_cell_length_b       11.202
_cell_length_c       14.628
_cell_angle_alpha    73.526
_cell_angle_beta     88.045
_cell_angle_gamma    71.284

_symmetry_space_group_name_H-M    "P 1"
_symmetry_Int_Tables_number       1

loop_
  _symmetry_equiv_pos_as_xyz
  'x, y, z'

loop_
  _atom_site_type_symbol
  _atom_site_label
  _atom_site_symmetry_multiplicity
  _atom_site_fract_x
  _atom_site_fract_y
  _atom_site_fract_z
  _atom_site_occupancy
  _atom_site_charge
Zn  Zn1       1.0  0.85797  0.17627  0.98563  1.0000 1.0510149835
Zn  Zn2       1.0  0.26586  0.24649  0.75645  1.0000 0.8577469526
Zn  Zn3       1.0  0.50401  0.48752  0.15542  1.0000 0.9635120867
Zn  Zn4       1.0  0.14280  0.82161  0.01351  1.0000 1.0510149835
Zn  Zn5       1.0  0.73359  0.75329  0.24332  1.0000 0.8577469526
Zn  Zn6       1.0  0.49457  0.51237  0.84404  1.0000 0.9635120867
P   P1        1.0  0.75847  0.48784  0.99544  1.0000 1.2956085442
P   P2        1.0  0.06719  0.07948  0.82949  1.0000 1.2042230605
P   P3        1.0  0.59343  0.22284  0.83243  1.0000 1.2063961266
P   P4        1.0  0.23981  0.51337  0.00205  1.0000 1.2794220684
P   P5        1.0  0.93359  0.92001  0.17013  1.0000 1.2063961266
P   P6        1.0  0.40659  0.77662  0.16759  1.0000 1.2063961266
H   H1        1.0  0.94258  0.11874  0.76184  1.0000 -0.1231835062
H   H2        1.0  0.66160  0.15463  0.76600  1.0000 -0.1231835062
H   H3        1.0  0.61380  0.82091  0.03490  1.0000 0.2816139845
H   H4        1.0  0.87556  0.75838  0.99986  1.0000 0.1089251781
H   H5        1.0  0.94628  0.79151  0.82866  1.0000 0.1303742139
H   H6        1.0  0.40561  0.91507  0.92227  1.0000 0.1215080371
H   H7        1.0  0.45323  0.95120  0.74649  1.0000 0.1303742139
H   H8        1.0  0.26834  0.48324  0.58107  1.0000 0.0905841174
H   H9        1.0  0.09811  0.72159  0.53554  1.0000 0.1303742139
H   H10       1.0  0.01448  0.38877  0.81740  1.0000 0.0980910471
H   H11       1.0  0.82796  0.61414  0.77844  1.0000 0.1215080371
H   H12       1.0  0.75780  0.22331  0.20569  1.0000 0.0980910471
H   H13       1.0  0.84784  0.02877  0.35432  1.0000 0.1303742139
H   H14       1.0  0.40438  0.42562  0.34606  1.0000 0.0905841174
H   H15       1.0  0.47796  0.23454  0.50009  1.0000 0.1303742139
H   H16       1.0  0.05771  0.88096  0.23807  1.0000 -0.1231835062
H   H17       1.0  0.33812  0.84536  0.23372  1.0000 -0.1231835062
H   H18       1.0  0.38608  0.17933  0.96504  1.0000 0.2816139845
H   H19       1.0  0.12428  0.24173  0.00008  1.0000 0.1089251781
H   H20       1.0  0.05375  0.20846  0.17140  1.0000 0.1303742139
H   H21       1.0  0.59429  0.08492  0.07766  1.0000 0.1215080371
H   H22       1.0  0.54671  0.04886  0.25347  1.0000 0.1303742139
H   H23       1.0  0.73161  0.51672  0.41898  1.0000 0.0905841174
H   H24       1.0  0.90193  0.27841  0.46450  1.0000 0.1303742139
H   H25       1.0  0.98543  0.61122  0.18264  1.0000 0.0980910471
H   H26       1.0  0.17186  0.38610  0.22144  1.0000 0.1215080371
H   H27       1.0  0.24219  0.77655  0.79428  1.0000 0.0980910471
H   H28       1.0  0.15218  0.97135  0.64563  1.0000 0.1303742139
H   H29       1.0  0.59553  0.57439  0.65386  1.0000 0.0905841174
H   H30       1.0  0.52213  0.76556  0.49983  1.0000 0.1303742139
C   C1        1.0  0.78970  0.79798  0.93999  1.0000 0.0905841174
C   C2        1.0  0.82468  0.81656  0.84525  1.0000 -0.1514573541
C   C3        1.0  0.52048  0.88991  0.89508  1.0000 0.1089251781
C   C4        1.0  0.55059  0.90879  0.79983  1.0000 -0.1443346651
C   C5        1.0  0.70444  0.87211  0.77262  1.0000 0.0980910471
C   C6        1.0  0.17007  0.51955  0.62205  1.0000 0.0980910471
C   C7        1.0  0.07558  0.64894  0.59737  1.0000 -0.1514573541
C   C8        1.0  0.02638  0.46659  0.75533  1.0000 0.0980910471
C   C9        1.0  0.92524  0.59361  0.73334  1.0000 -0.1731977822
C   C10       1.0  0.94820  0.68981  0.65239  1.0000 0.0905841174
C   C11       1.0  0.70164  0.22259  0.27335  1.0000 0.0905841174
C   C12       1.0  0.75023  0.11599  0.35456  1.0000 -0.1514573541
C   C13       1.0  0.50173  0.33488  0.35289  1.0000 0.0792898623
C   C14       1.0  0.54286  0.23167  0.43615  1.0000 -0.1608360471
C   C15       1.0  0.67118  0.11873  0.43881  1.0000 0.0792898623
C   C16       1.0  0.73379  0.89912  0.67186  1.0000 0.0905841174
C   C17       1.0  0.84624  0.82349  0.62190  1.0000 0.0792898623
C   C18       1.0  0.71964  0.01045  0.52503  1.0000 0.2717141597
C   C19       1.0  0.21021  0.20200  0.05993  1.0000 0.0905841174
C   C20       1.0  0.17530  0.18347  0.15469  1.0000 -0.1514573541
C   C21       1.0  0.47944  0.11008  0.10487  1.0000 0.1089251781
C   C22       1.0  0.44936  0.09127  0.20013  1.0000 -0.1514573541
C   C23       1.0  0.29551  0.12797  0.22735  1.0000 0.0980910471
C   C24       1.0  0.82985  0.48043  0.37798  1.0000 0.0980910471
C   C25       1.0  0.92441  0.35108  0.40265  1.0000 -0.1514573541
C   C26       1.0  0.97347  0.53341  0.24469  1.0000 0.0980910471
C   C27       1.0  0.07468  0.40645  0.26664  1.0000 -0.1731977822
C   C28       1.0  0.05175  0.31022  0.34760  1.0000 0.0905841174
C   C29       1.0  0.29813  0.77746  0.72653  1.0000 0.0905841174
C   C30       1.0  0.24973  0.88412  0.64535  1.0000 -0.1514573541
C   C31       1.0  0.49812  0.66513  0.64693  1.0000 0.0792898623
C   C32       1.0  0.45716  0.76842  0.56373  1.0000 -0.1608360471
C   C33       1.0  0.32882  0.88132  0.56113  1.0000 0.0792898623
C   C34       1.0  0.26616  0.10095  0.32809  1.0000 0.0905841174
C   C35       1.0  0.15370  0.17653  0.37807  1.0000 0.0792898623
C   C36       1.0  0.28035  0.98959  0.47490  1.0000 0.2717141597
N   N1        1.0  0.63971  0.83591  0.96272  1.0000 -0.1284045638
N   N2        1.0  0.14615  0.42805  0.70020  1.0000 -0.304588473
N   N3        1.0  0.58001  0.33179  0.27200  1.0000 -0.2823343487
N   N4        1.0  0.65203  0.01718  0.60990  1.0000 -0.3978206204
N   N5        1.0  0.83615  0.89647  0.52807  1.0000 -0.3978206204
N   N6        1.0  0.36020  0.16400  0.03724  1.0000 -0.1284045638
N   N7        1.0  0.85365  0.57194  0.29979  1.0000 -0.304588473
N   N8        1.0  0.41956  0.66820  0.72771  1.0000 -0.2823343487
N   N9        1.0  0.34795  0.98288  0.39003  1.0000 -0.3978206204
N   N10       1.0  0.16382  0.10354  0.47189  1.0000 -0.3978206204
O   O1        1.0  0.65878  0.55591  0.90014  1.0000 -0.8011971326
O   O2        1.0  0.67297  0.52804  0.08028  1.0000 -0.7853188874
O   O3        1.0  0.02351  0.17234  0.89325  1.0000 -0.7798430285
O   O4        1.0  0.09351  0.93547  0.88163  1.0000 -0.73033551
O   O5        1.0  0.20822  0.09656  0.77221  1.0000 -0.714557177
O   O6        1.0  0.68415  0.15266  0.92929  1.0000 -0.7553846897
O   O7        1.0  0.43050  0.20717  0.84598  1.0000 -0.7203215422
O   O8        1.0  0.58731  0.36473  0.78755  1.0000 -0.73033551
O   O9        1.0  0.83233  0.33847  0.01656  1.0000 -0.8011971326
O   O10       1.0  0.33601  0.45120  0.09880  1.0000 -0.8011971326
O   O11       1.0  0.33033  0.46584  0.92080  1.0000 -0.7798430285
O   O12       1.0  0.17066  0.66431  0.97497  1.0000 -0.8011971326
O   O13       1.0  0.97803  0.82715  0.10642  1.0000 -0.7798430285
O   O14       1.0  0.90668  0.06435  0.11795  1.0000 -0.73033551
O   O15       1.0  0.79253  0.90276  0.22726  1.0000 -0.714557177
O   O16       1.0  0.31579  0.84600  0.07081  1.0000 -0.7553846897
O   O17       1.0  0.56935  0.79285  0.15365  1.0000 -0.7203215422
O   O18       1.0  0.41407  0.63450  0.21300  1.0000 -0.73033551
