# DDEC6 charges by PACMAN v1.1 (https://github.com/mtap-research/PACMAN-charge/)
data_2015[Co][nan]3[ASR]3
_chemical_formula_sum              "Co4 H92 C100 N16 O20"
_cell_length_a       9.6859
_cell_length_b       16.914
_cell_length_c       18.412
_cell_angle_alpha    90
_cell_angle_beta     115.16
_cell_angle_gamma    90

_symmetry_space_group_name_H-M    "P 1"
_symmetry_Int_Tables_number       1

loop_
  _symmetry_equiv_pos_as_xyz
  'x, y, z'

loop_
  _atom_site_type_symbol
  _atom_site_label
  _atom_site_symmetry_multiplicity
  _atom_site_fract_x
  _atom_site_fract_y
  _atom_site_fract_z
  _atom_site_occupancy
  _atom_site_charge
Co  Co1       1.0  0.42360  0.70778  0.29267  1.0000 0.7889361776
Co  Co2       1.0  0.57640  0.20778  0.20733  1.0000 0.7889361776
Co  Co3       1.0  0.57640  0.29222  0.70733  1.0000 0.7889361776
Co  Co4       1.0  0.42360  0.79222  0.79267  1.0000 0.7889361776
H   H1        1.0  0.37390  0.72440  0.52090  1.0000 0.1198964186
H   H2        1.0  0.62610  0.22440  0.97910  1.0000 0.1198964186
H   H3        1.0  0.62610  0.27560  0.47910  1.0000 0.1198964186
H   H4        1.0  0.37390  0.77560  0.02090  1.0000 0.1198964186
H   H5        1.0  0.07050  0.64010  0.59730  1.0000 0.1300803771
H   H6        1.0  0.92950  0.14010  0.90270  1.0000 0.1300803771
H   H7        1.0  0.92950  0.35990  0.40270  1.0000 0.1300803771
H   H8        1.0  0.07050  0.85990  0.09730  1.0000 0.1300803771
H   H9        1.0  0.00550  0.60740  0.36870  1.0000 0.1300803771
H   H10       1.0  0.99450  0.10740  0.13130  1.0000 0.1300803771
H   H11       1.0  0.99450  0.39260  0.63130  1.0000 0.1300803771
H   H12       1.0  0.00550  0.89260  0.86870  1.0000 0.1300803771
H   H13       1.0  0.87830  0.54140  0.55980  1.0000 0.098918889
H   H14       1.0  0.12170  0.04140  0.94020  1.0000 0.098918889
H   H15       1.0  0.12170  0.45860  0.44020  1.0000 0.098918889
H   H16       1.0  0.87830  0.95860  0.05980  1.0000 0.098918889
H   H17       1.0  0.80050  0.62470  0.53230  1.0000 0.0907489505
H   H18       1.0  0.19950  0.12470  0.96770  1.0000 0.0907489505
H   H19       1.0  0.19950  0.37530  0.46770  1.0000 0.0907489505
H   H20       1.0  0.80050  0.87530  0.03230  1.0000 0.0907489505
H   H21       1.0  0.59890  0.56490  0.42390  1.0000 0.1069749765
H   H22       1.0  0.40110  0.06490  0.07610  1.0000 0.1069749765
H   H23       1.0  0.40110  0.43510  0.57610  1.0000 0.1069749765
H   H24       1.0  0.59890  0.93510  0.92390  1.0000 0.1069749765
H   H25       1.0  0.67640  0.48210  0.45080  1.0000 0.1069749765
H   H26       1.0  0.32360  0.98210  0.04920  1.0000 0.1069749765
H   H27       1.0  0.32360  0.51790  0.54920  1.0000 0.1069749765
H   H28       1.0  0.67640  0.01790  0.95080  1.0000 0.1069749765
H   H29       1.0  0.63940  0.49110  0.56960  1.0000 0.098918889
H   H30       1.0  0.36060  0.99110  0.93040  1.0000 0.098918889
H   H31       1.0  0.36060  0.50890  0.43040  1.0000 0.098918889
H   H32       1.0  0.63940  0.00890  0.06960  1.0000 0.098918889
H   H33       1.0  0.55720  0.57260  0.54030  1.0000 0.098918889
H   H34       1.0  0.44280  0.07260  0.95970  1.0000 0.098918889
H   H35       1.0  0.44280  0.42740  0.45970  1.0000 0.098918889
H   H36       1.0  0.55720  0.92740  0.04030  1.0000 0.098918889
H   H37       1.0  0.74230  0.75600  0.27740  1.0000 0.1300803771
H   H38       1.0  0.25770  0.25600  0.22260  1.0000 0.1300803771
H   H39       1.0  0.25770  0.24400  0.72260  1.0000 0.1300803771
H   H40       1.0  0.74230  0.74400  0.77740  1.0000 0.1300803771
H   H41       1.0  0.64420  0.77280  0.46270  1.0000 0.1198964186
H   H42       1.0  0.35580  0.27280  0.03730  1.0000 0.1198964186
H   H43       1.0  0.35580  0.22720  0.53730  1.0000 0.1198964186
H   H44       1.0  0.64420  0.72720  0.96270  1.0000 0.1198964186
H   H45       1.0  0.96270  0.81290  0.38720  1.0000 0.1300803771
H   H46       1.0  0.03730  0.31290  0.11280  1.0000 0.1300803771
H   H47       1.0  0.03730  0.18710  0.61280  1.0000 0.1300803771
H   H48       1.0  0.96270  0.68710  0.88720  1.0000 0.1300803771
H   H49       1.0  0.88040  0.83920  0.56480  1.0000 0.1368386519
H   H50       1.0  0.11960  0.33920  0.93520  1.0000 0.1368386519
H   H51       1.0  0.11960  0.16080  0.43520  1.0000 0.1368386519
H   H52       1.0  0.88040  0.66080  0.06480  1.0000 0.1368386519
H   H53       1.0  0.02730  0.80980  0.55690  1.0000 0.1300803771
H   H54       1.0  0.97270  0.30980  0.94310  1.0000 0.1300803771
H   H55       1.0  0.97270  0.19020  0.44310  1.0000 0.1300803771
H   H56       1.0  0.02730  0.69020  0.05690  1.0000 0.1300803771
H   H57       1.0  0.76320  0.96880  0.49170  1.0000 0.1069749765
H   H58       1.0  0.23680  0.46880  0.00830  1.0000 0.1069749765
H   H59       1.0  0.23680  0.03120  0.50830  1.0000 0.1069749765
H   H60       1.0  0.76320  0.53120  0.99170  1.0000 0.1069749765
H   H61       1.0  0.18630  0.90510  0.53490  1.0000 0.1198964186
H   H62       1.0  0.81370  0.40510  0.96510  1.0000 0.1198964186
H   H63       1.0  0.81370  0.09490  0.46510  1.0000 0.1198964186
H   H64       1.0  0.18630  0.59490  0.03490  1.0000 0.1198964186
H   H65       1.0  0.64250  0.60620  0.24790  1.0000 0.1198964186
H   H66       1.0  0.35750  0.10620  0.25210  1.0000 0.1198964186
H   H67       1.0  0.35750  0.39380  0.75210  1.0000 0.1198964186
H   H68       1.0  0.64250  0.89380  0.74790  1.0000 0.1198964186
H   H69       1.0  0.27090  0.52840  0.25380  1.0000 0.1300803771
H   H70       1.0  0.72910  0.02840  0.24620  1.0000 0.1300803771
H   H71       1.0  0.72910  0.47160  0.74620  1.0000 0.1300803771
H   H72       1.0  0.27090  0.97160  0.75380  1.0000 0.1300803771
H   H73       1.0  0.36510  0.42460  0.19570  1.0000 0.1300803771
H   H74       1.0  0.63490  0.92460  0.30430  1.0000 0.1300803771
H   H75       1.0  0.63490  0.57540  0.80430  1.0000 0.1300803771
H   H76       1.0  0.36510  0.07540  0.69570  1.0000 0.1300803771
H   H77       1.0  0.73000  0.48420  0.19650  1.0000 0.1368386519
H   H78       1.0  0.27000  0.98420  0.30350  1.0000 0.1368386519
H   H79       1.0  0.27000  0.51580  0.80350  1.0000 0.1368386519
H   H80       1.0  0.73000  0.01580  0.69650  1.0000 0.1368386519
H   H81       1.0  0.62760  0.40840  0.17900  1.0000 0.1368386519
H   H82       1.0  0.37240  0.90840  0.32100  1.0000 0.1368386519
H   H83       1.0  0.37240  0.59160  0.82100  1.0000 0.1368386519
H   H84       1.0  0.62760  0.09160  0.67900  1.0000 0.1368386519
H   H85       1.0  0.51970  0.59950  0.08930  1.0000 0.1198964186
H   H86       1.0  0.48030  0.09950  0.41070  1.0000 0.1198964186
H   H87       1.0  0.48030  0.40050  0.91070  1.0000 0.1198964186
H   H88       1.0  0.51970  0.90050  0.58930  1.0000 0.1198964186
H   H89       1.0  0.57720  0.37280  0.04530  1.0000 0.1300803771
H   H90       1.0  0.42280  0.87280  0.45470  1.0000 0.1300803771
H   H91       1.0  0.42280  0.62720  0.95470  1.0000 0.1300803771
H   H92       1.0  0.57720  0.12720  0.54530  1.0000 0.1300803771
C   C1        1.0  0.24810  0.67810  0.36940  1.0000 0.5439631886
C   C2        1.0  0.75190  0.17810  0.13060  1.0000 0.5439631886
C   C3        1.0  0.75190  0.32190  0.63060  1.0000 0.5439631886
C   C4        1.0  0.24810  0.82190  0.86940  1.0000 0.5439631886
C   C5        1.0  0.19680  0.66780  0.43480  1.0000 -0.0118379431
C   C6        1.0  0.80320  0.16780  0.06520  1.0000 -0.0118379431
C   C7        1.0  0.80320  0.33220  0.56520  1.0000 -0.0118379431
C   C8        1.0  0.19680  0.83220  0.93480  1.0000 -0.0118379431
C   C9        1.0  0.28380  0.69760  0.51080  1.0000 -0.159635446
C   C10       1.0  0.71620  0.19760  0.98920  1.0000 -0.159635446
C   C11       1.0  0.71620  0.30240  0.48920  1.0000 -0.159635446
C   C12       1.0  0.28380  0.80240  0.01080  1.0000 -0.159635446
C   C13       1.0  0.23760  0.68770  0.57180  1.0000 -0.0032811374
C   C14       1.0  0.76240  0.18770  0.92820  1.0000 -0.0032811374
C   C15       1.0  0.76240  0.31230  0.42820  1.0000 -0.0032811374
C   C16       1.0  0.23760  0.81230  0.07180  1.0000 -0.0032811374
C   C17       1.0  0.10200  0.64730  0.55660  1.0000 -0.261169111
C   C18       1.0  0.89800  0.14730  0.94340  1.0000 -0.261169111
C   C19       1.0  0.89800  0.35270  0.44340  1.0000 -0.261169111
C   C20       1.0  0.10200  0.85270  0.05660  1.0000 -0.261169111
C   C21       1.0  0.01490  0.61810  0.48010  1.0000 0.2532271541
C   C22       1.0  0.98510  0.11810  0.01990  1.0000 0.2532271541
C   C23       1.0  0.98510  0.38190  0.51990  1.0000 0.2532271541
C   C24       1.0  0.01490  0.88190  0.98010  1.0000 0.2532271541
C   C25       1.0  0.06330  0.62780  0.41950  1.0000 -0.2322766349
C   C26       1.0  0.93670  0.12780  0.08050  1.0000 -0.2322766349
C   C27       1.0  0.93670  0.37220  0.58050  1.0000 -0.2322766349
C   C28       1.0  0.06330  0.87220  0.91950  1.0000 -0.2322766349
C   C29       1.0  0.33140  0.72360  0.65270  1.0000 0.5338268227
C   C30       1.0  0.66860  0.22360  0.84730  1.0000 0.5338268227
C   C31       1.0  0.66860  0.27640  0.34730  1.0000 0.5338268227
C   C32       1.0  0.33140  0.77640  0.15270  1.0000 0.5338268227
C   C33       1.0  0.81330  0.57270  0.51380  1.0000 -0.0264758474
C   C34       1.0  0.18670  0.07270  0.98620  1.0000 -0.0264758474
C   C35       1.0  0.18670  0.42730  0.48620  1.0000 -0.0264758474
C   C36       1.0  0.81330  0.92730  0.01380  1.0000 -0.0264758474
C   C37       1.0  0.66110  0.53310  0.47020  1.0000 -0.2084556722
C   C38       1.0  0.33890  0.03310  0.02980  1.0000 -0.2084556722
C   C39       1.0  0.33890  0.46690  0.52980  1.0000 -0.2084556722
C   C40       1.0  0.66110  0.96690  0.97020  1.0000 -0.2084556722
C   C41       1.0  0.57610  0.52140  0.52240  1.0000 -0.1520680987
C   C42       1.0  0.42390  0.02140  0.97760  1.0000 -0.1520680987
C   C43       1.0  0.42390  0.47860  0.47760  1.0000 -0.1520680987
C   C44       1.0  0.57610  0.97860  0.02240  1.0000 -0.1520680987
C   C45       1.0  0.74960  0.76680  0.32850  1.0000 -0.0462948444
C   C46       1.0  0.25040  0.26680  0.17150  1.0000 -0.0462948444
C   C47       1.0  0.25040  0.23320  0.67150  1.0000 -0.0462948444
C   C48       1.0  0.74960  0.73320  0.82850  1.0000 -0.0462948444
C   C49       1.0  0.69500  0.77560  0.42970  1.0000 0.0806855358
C   C50       1.0  0.30500  0.27560  0.07030  1.0000 0.0806855358
C   C51       1.0  0.30500  0.22440  0.57030  1.0000 0.0806855358
C   C52       1.0  0.69500  0.72440  0.92970  1.0000 0.0806855358
C   C53       1.0  0.87180  0.79780  0.38880  1.0000 -0.0987611494
C   C54       1.0  0.12820  0.29780  0.11120  1.0000 -0.0987611494
C   C55       1.0  0.12820  0.20220  0.61120  1.0000 -0.0987611494
C   C56       1.0  0.87180  0.70220  0.88880  1.0000 -0.0987611494
C   C57       1.0  0.93350  0.83970  0.53050  1.0000 -0.1682357357
C   C58       1.0  0.06650  0.33970  0.96950  1.0000 -0.1682357357
C   C59       1.0  0.06650  0.16030  0.46950  1.0000 -0.1682357357
C   C60       1.0  0.93350  0.66030  0.03050  1.0000 -0.1682357357
C   C61       1.0  0.96960  0.92300  0.51740  1.0000 0.0907489505
C   C62       1.0  0.03040  0.42300  0.98260  1.0000 0.0907489505
C   C63       1.0  0.03040  0.07700  0.48260  1.0000 0.0907489505
C   C64       1.0  0.96960  0.57700  0.01740  1.0000 0.0907489505
C   C65       1.0  0.85960  0.98100  0.49550  1.0000 -0.1520680987
C   C66       1.0  0.14040  0.48100  0.00450  1.0000 -0.1520680987
C   C67       1.0  0.14040  0.01900  0.50450  1.0000 -0.1520680987
C   C68       1.0  0.85960  0.51900  0.99550  1.0000 -0.1520680987
C   C69       1.0  0.11030  0.94340  0.52100  1.0000 -0.1520680987
C   C70       1.0  0.88970  0.44340  0.97900  1.0000 -0.1520680987
C   C71       1.0  0.88970  0.05660  0.47900  1.0000 -0.1520680987
C   C72       1.0  0.11030  0.55660  0.02100  1.0000 -0.1520680987
C   C73       1.0  0.56000  0.57430  0.24170  1.0000 0.098918889
C   C74       1.0  0.44000  0.07430  0.25830  1.0000 0.098918889
C   C75       1.0  0.44000  0.42570  0.75830  1.0000 0.098918889
C   C76       1.0  0.56000  0.92570  0.74170  1.0000 0.098918889
C   C77       1.0  0.35800  0.53170  0.24470  1.0000 -0.0264758474
C   C78       1.0  0.64200  0.03170  0.25530  1.0000 -0.0264758474
C   C79       1.0  0.64200  0.46830  0.75530  1.0000 -0.0264758474
C   C80       1.0  0.35800  0.96830  0.74470  1.0000 -0.0264758474
C   C81       1.0  0.40960  0.47390  0.21310  1.0000 -0.0987611494
C   C82       1.0  0.59040  0.97390  0.28690  1.0000 -0.0987611494
C   C83       1.0  0.59040  0.52610  0.78690  1.0000 -0.0987611494
C   C84       1.0  0.40960  0.02610  0.71310  1.0000 -0.0987611494
C   C85       1.0  0.62560  0.46530  0.17160  1.0000 -0.1781211325
C   C86       1.0  0.37440  0.96530  0.32840  1.0000 -0.1781211325
C   C87       1.0  0.37440  0.53470  0.82840  1.0000 -0.1781211325
C   C88       1.0  0.62560  0.03470  0.67160  1.0000 -0.1781211325
C   C89       1.0  0.55830  0.48350  0.08240  1.0000 0.0907489505
C   C90       1.0  0.44170  0.98350  0.41760  1.0000 0.0907489505
C   C91       1.0  0.44170  0.51650  0.91760  1.0000 0.0907489505
C   C92       1.0  0.55830  0.01650  0.58240  1.0000 0.0907489505
C   C93       1.0  0.51170  0.55920  0.05340  1.0000 -0.159635446
C   C94       1.0  0.48830  0.05920  0.44660  1.0000 -0.159635446
C   C95       1.0  0.48830  0.44080  0.94660  1.0000 -0.159635446
C   C96       1.0  0.51170  0.94080  0.55340  1.0000 -0.159635446
C   C97       1.0  0.54610  0.42390  0.02730  1.0000 -0.159635446
C   C98       1.0  0.45390  0.92390  0.47270  1.0000 -0.159635446
C   C99       1.0  0.45390  0.57610  0.97270  1.0000 -0.159635446
C   C100      1.0  0.54610  0.07610  0.52730  1.0000 -0.159635446
N   N1        1.0  0.45040  0.59600  0.26160  1.0000 -0.3047350996
N   N2        1.0  0.54960  0.09600  0.23840  1.0000 -0.3047350996
N   N3        1.0  0.54960  0.40400  0.73840  1.0000 -0.3109550528
N   N4        1.0  0.45040  0.90400  0.76160  1.0000 -0.3109550528
N   N5        1.0  0.53920  0.50160  0.21170  1.0000 0.0456713739
N   N6        1.0  0.46080  0.00160  0.28830  1.0000 0.0456713739
N   N7        1.0  0.46080  0.49840  0.78830  1.0000 0.0456713739
N   N8        1.0  0.53920  0.99840  0.71170  1.0000 0.0456713739
N   N9        1.0  0.63660  0.75310  0.35360  1.0000 -0.3109550528
N   N10       1.0  0.36340  0.25310  0.14640  1.0000 -0.3109550528
N   N11       1.0  0.36340  0.24690  0.64640  1.0000 -0.3109550528
N   N12       1.0  0.63660  0.74690  0.85360  1.0000 -0.3109550528
N   N13       1.0  0.83740  0.80300  0.45280  1.0000 0.0415504084
N   N14       1.0  0.16260  0.30300  0.04720  1.0000 0.0415504084
N   N15       1.0  0.16260  0.19700  0.54720  1.0000 0.0415504084
N   N16       1.0  0.83740  0.69700  0.95280  1.0000 0.0415504084
O   O1        1.0  0.17170  0.65170  0.30100  1.0000 -0.5524260306
O   O2        1.0  0.82830  0.15170  0.19900  1.0000 -0.5524260306
O   O3        1.0  0.82830  0.34830  0.69900  1.0000 -0.5524260306
O   O4        1.0  0.17170  0.84830  0.80100  1.0000 -0.5524260306
O   O5        1.0  0.37380  0.71400  0.38670  1.0000 -0.56099469
O   O6        1.0  0.62620  0.21400  0.11330  1.0000 -0.56099469
O   O7        1.0  0.62620  0.28600  0.61330  1.0000 -0.56099469
O   O8        1.0  0.37380  0.78600  0.88670  1.0000 -0.56099469
O   O9        1.0  0.45660  0.75520  0.66667  1.0000 -0.5678794735
O   O10       1.0  0.54340  0.25520  0.83340  1.0000 -0.5678794735
O   O11       1.0  0.54340  0.24480  0.33340  1.0000 -0.5678794735
O   O12       1.0  0.45660  0.74480  0.16660  1.0000 -0.5678794735
O   O13       1.0  0.27790  0.72220  0.70500  1.0000 -0.5369096451
O   O14       1.0  0.72210  0.22220  0.79500  1.0000 -0.5369096451
O   O15       1.0  0.72210  0.27780  0.29500  1.0000 -0.5369096451
O   O16       1.0  0.27790  0.77780  0.20500  1.0000 -0.5369096451
O   O17       1.0  0.87940  0.57900  0.45730  1.0000 -0.1949919813
O   O18       1.0  0.12060  0.07900  0.04270  1.0000 -0.1949919813
O   O19       1.0  0.12060  0.42100  0.54270  1.0000 -0.1949919813
O   O20       1.0  0.87940  0.92100  0.95730  1.0000 -0.1953530811
