# DDEC6 charges by PACMAN v1.1 (https://github.com/mtap-research/PACMAN-charge/)
data_2015[Zn][tcs]3[ASR]2
_chemical_formula_sum              "Zn2 B2 H24 C26 N16 O4"
_cell_length_a       8.8649
_cell_length_b       10.5565
_cell_length_c       10.631
_cell_angle_alpha    99.986
_cell_angle_beta     110.233
_cell_angle_gamma    97.819

_symmetry_space_group_name_H-M    "P 1"
_symmetry_Int_Tables_number       1

loop_
  _symmetry_equiv_pos_as_xyz
  'x, y, z'

loop_
  _atom_site_type_symbol
  _atom_site_label
  _atom_site_symmetry_multiplicity
  _atom_site_fract_x
  _atom_site_fract_y
  _atom_site_fract_z
  _atom_site_occupancy
  _atom_site_charge
Zn  Zn1       1.0  0.79770  0.32194  0.24878  1.0000 0.684653423
Zn  Zn2       1.0  0.20230  0.67806  0.75122  1.0000 0.684653423
B   B1        1.0  0.13740  0.18780  0.89610  1.0000 0.5024073042
B   B2        1.0  0.86260  0.81220  0.10390  1.0000 0.5024073042
H   H1        1.0  0.46130  0.33630  0.03110  1.0000 0.1007988184
H   H2        1.0  0.53870  0.66370  0.96890  1.0000 0.1007988184
H   H3        1.0  0.21840  0.03630  0.10860  1.0000 0.1202214576
H   H4        1.0  0.78160  0.96370  0.89140  1.0000 0.1202214576
H   H5        1.0  0.11890  0.45390  0.90430  1.0000 0.1091550134
H   H6        1.0  0.88110  0.54610  0.09570  1.0000 0.1091550134
H   H7        1.0  0.07260  0.24180  0.14230  1.0000 0.1091550134
H   H8        1.0  0.92740  0.75820  0.85770  1.0000 0.1091550134
H   H9        1.0  0.29670  0.97800  0.87360  1.0000 0.1007988184
H   H10       1.0  0.70330  0.02200  0.12640  1.0000 0.1007988184
H   H11       1.0  0.65400  0.29330  0.89580  1.0000 0.1091550134
H   H12       1.0  0.34600  0.70670  0.10420  1.0000 0.1091550134
H   H13       1.0  0.50710  0.08750  0.26920  1.0000 0.1202214576
H   H14       1.0  0.49290  0.91250  0.73080  1.0000 0.1202214576
H   H15       1.0  0.80960  0.23030  0.75350  1.0000 0.1300911151
H   H16       1.0  0.19040  0.76970  0.24650  1.0000 0.1300911151
H   H17       1.0  0.38020  0.42770  0.67330  1.0000 0.1300911151
H   H18       1.0  0.61980  0.57230  0.32670  1.0000 0.1300911151
H   H19       1.0  0.31130  0.20850  0.71190  1.0000 0.1202214576
H   H20       1.0  0.68870  0.79150  0.28810  1.0000 0.1202214576
H   H21       1.0  0.89620  0.81000  0.55240  1.0000 0.1202214576
H   H22       1.0  0.10380  0.19000  0.44760  1.0000 0.1202214576
H   H23       1.0  0.85730  0.02370  0.65230  1.0000 0.1202214576
H   H24       1.0  0.14270  0.97630  0.34770  1.0000 0.1202214576
C   C1        1.0  0.43730  0.26780  0.07030  1.0000 0.1300911151
C   C2        1.0  0.56270  0.73220  0.92970  1.0000 0.1300911151
C   C3        1.0  0.30170  0.10230  0.11190  1.0000 -0.0914934099
C   C4        1.0  0.69830  0.89770  0.88810  1.0000 -0.0914934099
C   C5        1.0  0.17490  0.42030  0.85100  1.0000 0.1360794224
C   C6        1.0  0.82510  0.57970  0.14900  1.0000 0.1360794224
C   C7        1.0  0.92960  0.48810  0.52690  1.0000 0.4588588692
C   C8        1.0  0.07040  0.51190  0.47310  1.0000 0.4588588692
C   C9        1.0  0.98760  0.24630  0.06300  1.0000 0.1300911151
C   C10       1.0  0.01240  0.75370  0.93700  1.0000 0.1300911151
C   C11       1.0  0.19170  0.96260  0.80600  1.0000 0.1202214576
C   C12       1.0  0.80830  0.03740  0.19400  1.0000 0.1202214576
C   C13       1.0  0.75840  0.27490  0.92800  1.0000 -0.0599160723
C   C14       1.0  0.24160  0.72510  0.07200  1.0000 -0.0599160723
C   C15       1.0  0.46210  0.13140  0.20110  1.0000 -0.0488553129
C   C16       1.0  0.53790  0.86860  0.79890  1.0000 -0.0488553129
C   C17       1.0  0.84410  0.23950  0.84830  1.0000 -0.0819343187
C   C18       1.0  0.15590  0.76050  0.15170  1.0000 -0.0819343187
C   C19       1.0  0.31850  0.40570  0.72440  1.0000 -0.0393589976
C   C20       1.0  0.68150  0.59430  0.27560  1.0000 -0.0393589976
C   C21       1.0  0.28050  0.28390  0.74560  1.0000 -0.0914934099
C   C22       1.0  0.71950  0.71610  0.25440  1.0000 -0.0914934099
C   C23       1.0  0.97240  0.87050  0.63060  1.0000 -0.0393589976
C   C24       1.0  0.02760  0.12950  0.36940  1.0000 -0.0393589976
C   C25       1.0  0.95080  0.98930  0.68490  1.0000 -0.0819343187
C   C26       1.0  0.04920  0.01070  0.31510  1.0000 -0.0819343187
N   N1        1.0  0.18770  0.29320  0.82650  1.0000 -0.2179977976
N   N2        1.0  0.81230  0.70680  0.17350  1.0000 -0.2179977976
N   N3        1.0  0.28630  0.18980  0.02680  1.0000 -0.2179977976
N   N4        1.0  0.71370  0.81020  0.97320  1.0000 -0.2179977976
N   N5        1.0  0.54740  0.23690  0.17420  1.0000 -0.26472921
N   N6        1.0  0.45260  0.76310  0.82580  1.0000 -0.2673207107
N   N7        1.0  0.09330  0.05010  0.79760  1.0000 -0.2117996298
N   N8        1.0  0.90670  0.94990  0.20240  1.0000 -0.2117996298
N   N9        1.0  0.99250  0.21970  0.93470  1.0000 -0.2382427536
N   N10       1.0  0.00750  0.78030  0.06530  1.0000 -0.2382427536
N   N11       1.0  0.12410  0.85330  0.70880  1.0000 -0.2673207107
N   N12       1.0  0.87590  0.14670  0.29120  1.0000 -0.2673207107
N   N13       1.0  0.84930  0.27930  0.06280  1.0000 -0.2894554072
N   N14       1.0  0.15070  0.72070  0.93720  1.0000 -0.2894554072
N   N15       1.0  0.25030  0.49190  0.79140  1.0000 -0.2894554072
N   N16       1.0  0.74970  0.50810  0.20860  1.0000 -0.2894554072
O   O1        1.0  0.80990  0.39510  0.45530  1.0000 -0.5100578003
O   O2        1.0  0.19010  0.60490  0.54470  1.0000 -0.5100578003
O   O3        1.0  0.94710  0.56440  0.63780  1.0000 -0.5100578003
O   O4        1.0  0.05290  0.43560  0.36220  1.0000 -0.5100578003
