# DDEC6 charges by PACMAN v1.1 (https://github.com/mtap-research/PACMAN-charge/)
data_2015[Ce][crs]3[ASR]1
_chemical_formula_sum              "Ce16 H208 C192 N128"
_cell_length_a       23.253
_cell_length_b       14.024
_cell_length_c       27.5602
_cell_angle_alpha    90
_cell_angle_beta     125.821
_cell_angle_gamma    90

_symmetry_space_group_name_H-M    "P 1"
_symmetry_Int_Tables_number       1

loop_
  _symmetry_equiv_pos_as_xyz
  'x, y, z'

loop_
  _atom_site_type_symbol
  _atom_site_label
  _atom_site_symmetry_multiplicity
  _atom_site_fract_x
  _atom_site_fract_y
  _atom_site_fract_z
  _atom_site_occupancy
  _atom_site_charge
Ce  Ce1       1.0  0.26253  0.79717  0.77365  1.0000 1.527167188
Ce  Ce2       1.0  0.73748  0.29717  0.72635  1.0000 1.527167188
Ce  Ce3       1.0  0.73748  0.20283  0.22636  1.0000 1.527167188
Ce  Ce4       1.0  0.26253  0.70283  0.27365  1.0000 1.527167188
Ce  Ce5       1.0  0.95144  0.64470  0.70925  1.0000 1.5448030102
Ce  Ce6       1.0  0.04855  0.14470  0.79075  1.0000 1.5467945206
Ce  Ce7       1.0  0.04856  0.35530  0.29075  1.0000 1.5467945206
Ce  Ce8       1.0  0.95144  0.85530  0.20924  1.0000 1.5448030102
Ce  Ce9       1.0  0.54487  0.55728  0.79236  1.0000 1.493113147
Ce  Ce10      1.0  0.45514  0.05728  0.70764  1.0000 1.4958760607
Ce  Ce11      1.0  0.45514  0.44272  0.20763  1.0000 1.493113147
Ce  Ce12      1.0  0.54487  0.94272  0.29236  1.0000 1.4958760607
Ce  Ce13      1.0  0.22675  0.69951  0.50362  1.0000 1.5448030102
Ce  Ce14      1.0  0.77326  0.19951  0.99638  1.0000 1.5448030102
Ce  Ce15      1.0  0.77326  0.30049  0.49638  1.0000 1.5467945206
Ce  Ce16      1.0  0.22675  0.80049  0.00362  1.0000 1.5467945206
H   H1        1.0  0.19390  0.97010  0.83380  1.0000 0.0815134532
H   H2        1.0  0.80610  0.47010  0.66619  1.0000 0.0815134532
H   H3        1.0  0.80610  0.02990  0.16619  1.0000 0.0815134532
H   H4        1.0  0.19390  0.52990  0.33381  1.0000 0.0815134532
H   H5        1.0  0.12090  0.94420  0.66470  1.0000 0.1102731885
H   H6        1.0  0.87909  0.44420  0.83530  1.0000 0.1102731885
H   H7        1.0  0.87909  0.05580  0.33530  1.0000 0.1102731885
H   H8        1.0  0.12090  0.55580  0.16470  1.0000 0.1102731885
H   H9        1.0  0.06400  0.09550  0.67480  1.0000 0.1006127496
H   H10       1.0  0.93600  0.59550  0.82520  1.0000 0.1006127496
H   H11       1.0  0.93600  0.90450  0.32520  1.0000 0.1006127496
H   H12       1.0  0.06401  0.40450  0.17480  1.0000 0.1006127496
H   H13       1.0  0.10240  0.76740  0.74550  1.0000 0.0815134532
H   H14       1.0  0.89760  0.26740  0.75450  1.0000 0.0815134532
H   H15       1.0  0.89760  0.23260  0.25450  1.0000 0.0815134532
H   H16       1.0  0.10240  0.73260  0.24550  1.0000 0.0815134532
H   H17       1.0  0.12320  0.65650  0.62780  1.0000 0.1006127496
H   H18       1.0  0.87679  0.15650  0.87220  1.0000 0.1006127496
H   H19       1.0  0.87679  0.34350  0.37219  1.0000 0.1006127496
H   H20       1.0  0.12320  0.84350  0.12781  1.0000 0.1006127496
H   H21       1.0  0.00690  0.60290  0.60650  1.0000 0.1006127496
H   H22       1.0  0.99310  0.10290  0.89349  1.0000 0.1006127496
H   H23       1.0  0.99310  0.39710  0.39349  1.0000 0.1006127496
H   H24       1.0  0.00690  0.89710  0.10650  1.0000 0.1006127496
H   H25       1.0  0.40190  0.89060  0.77280  1.0000 0.0815134532
H   H26       1.0  0.59809  0.39060  0.72719  1.0000 0.0815134532
H   H27       1.0  0.59810  0.10940  0.22720  1.0000 0.0815134532
H   H28       1.0  0.40191  0.60940  0.27281  1.0000 0.0815134532
H   H29       1.0  0.26690  0.05990  0.77310  1.0000 0.1102731885
H   H30       1.0  0.73310  0.55990  0.72689  1.0000 0.1102731885
H   H31       1.0  0.73310  0.94010  0.22690  1.0000 0.1102731885
H   H32       1.0  0.26691  0.44010  0.27310  1.0000 0.1102731885
H   H33       1.0  0.32961  0.15760  0.73891  1.0000 0.1006127496
H   H34       1.0  0.67039  0.65760  0.76109  1.0000 0.1006127496
H   H35       1.0  0.67039  0.84240  0.26109  1.0000 0.1006127496
H   H36       1.0  0.32960  0.34240  0.23890  1.0000 0.1006127496
H   H37       1.0  0.37170  0.63630  0.74560  1.0000 0.0901390327
H   H38       1.0  0.62829  0.13630  0.75439  1.0000 0.0901390327
H   H39       1.0  0.62830  0.36370  0.25439  1.0000 0.0901390327
H   H40       1.0  0.37170  0.86370  0.24560  1.0000 0.0901390327
H   H41       1.0  0.43870  0.77350  0.89090  1.0000 0.1102731885
H   H42       1.0  0.56130  0.27350  0.60910  1.0000 0.1102731885
H   H43       1.0  0.56129  0.22650  0.10909  1.0000 0.1102731885
H   H44       1.0  0.43870  0.72650  0.39090  1.0000 0.1102731885
H   H45       1.0  0.54360  0.67050  0.91090  1.0000 0.0901390327
H   H46       1.0  0.45639  0.17050  0.58910  1.0000 0.0901390327
H   H47       1.0  0.45639  0.32950  0.08909  1.0000 0.0901390327
H   H48       1.0  0.54361  0.82950  0.41091  1.0000 0.0901390327
H   H49       1.0  0.26090  0.68540  0.65251  1.0000 0.0815134532
H   H50       1.0  0.73909  0.18540  0.84749  1.0000 0.0815134532
H   H51       1.0  0.73909  0.31460  0.34749  1.0000 0.0815134532
H   H52       1.0  0.26090  0.81460  0.15251  1.0000 0.0815134532
H   H53       1.0  0.19510  0.44110  0.81990  1.0000 0.2796515952
H   H54       1.0  0.80490  0.94110  0.68010  1.0000 0.2796515952
H   H55       1.0  0.80490  0.55890  0.18009  1.0000 0.2796515952
H   H56       1.0  0.19511  0.05890  0.31990  1.0000 0.2796515952
H   H57       1.0  0.18630  0.91250  0.55100  1.0000 0.0901390327
H   H58       1.0  0.81369  0.41250  0.94899  1.0000 0.0901390327
H   H59       1.0  0.81369  0.08750  0.44899  1.0000 0.0901390327
H   H60       1.0  0.18630  0.58750  0.05100  1.0000 0.0901390327
H   H61       1.0  0.25181  0.73580  0.88980  1.0000 0.0901390327
H   H62       1.0  0.74820  0.23580  0.61020  1.0000 0.0901390327
H   H63       1.0  0.74820  0.26420  0.11020  1.0000 0.0901390327
H   H64       1.0  0.25180  0.76420  0.38980  1.0000 0.0901390327
H   H65       1.0  0.36180  0.95830  0.90570  1.0000 0.1102731885
H   H66       1.0  0.63819  0.45830  0.59430  1.0000 0.1102731885
H   H67       1.0  0.63819  0.04170  0.09429  1.0000 0.1102731885
H   H68       1.0  0.36180  0.54170  0.40570  1.0000 0.1102731885
H   H69       1.0  0.33580  0.96390  0.98730  1.0000 0.1102731885
H   H70       1.0  0.66419  0.46390  0.51270  1.0000 0.1102731885
H   H71       1.0  0.66419  0.03610  0.01269  1.0000 0.1102731885
H   H72       1.0  0.33581  0.53610  0.48730  1.0000 0.1102731885
H   H73       1.0  0.15510  0.58130  0.76311  1.0000 0.0901390327
H   H74       1.0  0.84489  0.08130  0.73689  1.0000 0.0901390327
H   H75       1.0  0.84489  0.41870  0.23689  1.0000 0.0901390327
H   H76       1.0  0.15510  0.91870  0.26310  1.0000 0.0901390327
H   H77       1.0  0.36890  0.60280  0.87940  1.0000 0.1205495502
H   H78       1.0  0.63109  0.10280  0.62059  1.0000 0.1205495502
H   H79       1.0  0.63109  0.39720  0.12059  1.0000 0.1205495502
H   H80       1.0  0.36890  0.89720  0.37940  1.0000 0.1205495502
H   H81       1.0  0.32471  0.44340  0.89740  1.0000 0.1102731885
H   H82       1.0  0.67529  0.94340  0.60259  1.0000 0.1102731885
H   H83       1.0  0.67529  0.55660  0.10259  1.0000 0.1102731885
H   H84       1.0  0.32471  0.05660  0.39741  1.0000 0.1102731885
H   H85       1.0  0.67461  0.71760  0.53951  1.0000 0.2796515952
H   H86       1.0  0.32539  0.21760  0.96049  1.0000 0.2796515952
H   H87       1.0  0.32539  0.28240  0.46049  1.0000 0.2796515952
H   H88       1.0  0.67461  0.78240  0.03950  1.0000 0.2796515952
H   H89       1.0  0.05470  0.47160  0.68960  1.0000 0.0901390327
H   H90       1.0  0.94529  0.97160  0.81039  1.0000 0.0901390327
H   H91       1.0  0.94529  0.52840  0.31039  1.0000 0.0901390327
H   H92       1.0  0.05470  0.02840  0.18960  1.0000 0.0901390327
H   H93       1.0  0.08930  0.30380  0.73040  1.0000 0.0901390327
H   H94       1.0  0.91070  0.80380  0.76959  1.0000 0.0901390327
H   H95       1.0  0.91070  0.69620  0.26959  1.0000 0.0901390327
H   H96       1.0  0.08930  0.19620  0.23040  1.0000 0.0901390327
H   H97       1.0  0.10150  0.77290  0.83850  1.0000 0.0815134532
H   H98       1.0  0.89850  0.27290  0.66150  1.0000 0.0815134532
H   H99       1.0  0.89850  0.22710  0.16149  1.0000 0.0815134532
H   H100      1.0  0.10150  0.72710  0.33850  1.0000 0.0815134532
H   H101      1.0  0.06060  0.50860  0.84910  1.0000 0.1006127496
H   H102      1.0  0.93939  0.00860  0.65090  1.0000 0.1006127496
H   H103      1.0  0.93939  0.49140  0.15090  1.0000 0.1006127496
H   H104      1.0  0.06060  0.99140  0.34910  1.0000 0.1006127496
H   H105      1.0  0.16700  0.56430  0.95230  1.0000 0.1006127496
H   H106      1.0  0.83300  0.06430  0.54770  1.0000 0.1006127496
H   H107      1.0  0.83300  0.43570  0.04769  1.0000 0.1006127496
H   H108      1.0  0.16700  0.93570  0.45231  1.0000 0.1006127496
H   H109      1.0  0.87760  0.43130  0.61630  1.0000 0.0815134532
H   H110      1.0  0.12240  0.93130  0.88370  1.0000 0.0815134532
H   H111      1.0  0.12239  0.56870  0.38370  1.0000 0.0815134532
H   H112      1.0  0.87760  0.06870  0.11631  1.0000 0.0815134532
H   H113      1.0  0.85271  0.69580  0.54931  1.0000 0.0901390327
H   H114      1.0  0.14729  0.19580  0.95069  1.0000 0.0901390327
H   H115      1.0  0.14730  0.30420  0.45070  1.0000 0.0901390327
H   H116      1.0  0.85271  0.80420  0.04931  1.0000 0.0901390327
H   H117      1.0  0.82461  0.64810  0.95361  1.0000 0.2738260495
H   H118      1.0  0.17539  0.14810  0.54639  1.0000 0.2738260495
H   H119      1.0  0.17539  0.35190  0.04639  1.0000 0.2738260495
H   H120      1.0  0.82461  0.85190  0.45360  1.0000 0.2738260495
H   H121      1.0  0.75741  0.63590  0.62591  1.0000 0.1102731885
H   H122      1.0  0.24259  0.13590  0.87409  1.0000 0.1102731885
H   H123      1.0  0.24260  0.36410  0.37410  1.0000 0.1102731885
H   H124      1.0  0.75741  0.86410  0.12590  1.0000 0.1102731885
H   H125      1.0  0.93941  0.67830  0.39410  1.0000 0.2576778698
H   H126      1.0  0.06059  0.17830  0.10589  1.0000 0.2576778698
H   H127      1.0  0.06060  0.32170  0.60589  1.0000 0.2576778698
H   H128      1.0  0.93941  0.82170  0.89411  1.0000 0.2576778698
H   H129      1.0  0.72880  0.87000  0.53560  1.0000 0.1102731885
H   H130      1.0  0.27120  0.37000  0.96440  1.0000 0.1102731885
H   H131      1.0  0.27120  0.13000  0.46440  1.0000 0.1102731885
H   H132      1.0  0.72881  0.63000  0.03560  1.0000 0.1102731885
H   H133      1.0  0.46840  0.40230  0.81420  1.0000 0.1006127496
H   H134      1.0  0.53159  0.90230  0.68579  1.0000 0.1006127496
H   H135      1.0  0.53160  0.59770  0.18579  1.0000 0.1006127496
H   H136      1.0  0.46840  0.09770  0.31421  1.0000 0.1006127496
H   H137      1.0  0.41851  0.66900  0.63821  1.0000 0.1006127496
H   H138      1.0  0.58149  0.16900  0.86179  1.0000 0.1006127496
H   H139      1.0  0.58149  0.33100  0.36179  1.0000 0.1006127496
H   H140      1.0  0.41851  0.83100  0.13820  1.0000 0.1006127496
H   H141      1.0  0.25791  0.51670  0.60150  1.0000 0.0901390327
H   H142      1.0  0.74209  0.01670  0.89849  1.0000 0.0901390327
H   H143      1.0  0.74210  0.48330  0.39849  1.0000 0.0901390327
H   H144      1.0  0.25790  0.98330  0.10150  1.0000 0.0901390327
H   H145      1.0  0.38540  0.03550  0.54151  1.0000 0.0901390327
H   H146      1.0  0.61460  0.53550  0.95849  1.0000 0.0901390327
H   H147      1.0  0.61460  0.96450  0.45849  1.0000 0.0901390327
H   H148      1.0  0.38540  0.46450  0.04151  1.0000 0.0901390327
H   H149      1.0  0.29890  0.90560  0.46680  1.0000 0.0901390327
H   H150      1.0  0.70110  0.40560  0.03320  1.0000 0.0901390327
H   H151      1.0  0.70110  0.09440  0.53319  1.0000 0.0901390327
H   H152      1.0  0.29891  0.59440  0.96680  1.0000 0.0901390327
H   H153      1.0  0.72601  0.54240  0.92020  1.0000 0.0901390327
H   H154      1.0  0.27399  0.04240  0.57979  1.0000 0.0901390327
H   H155      1.0  0.27399  0.45760  0.07980  1.0000 0.0901390327
H   H156      1.0  0.72601  0.95760  0.42020  1.0000 0.0901390327
H   H157      1.0  0.64431  0.78780  0.83930  1.0000 0.1102731885
H   H158      1.0  0.35569  0.28780  0.66070  1.0000 0.1102731885
H   H159      1.0  0.35569  0.21220  0.16069  1.0000 0.1102731885
H   H160      1.0  0.64431  0.71220  0.33931  1.0000 0.1102731885
H   H161      1.0  0.77890  0.80160  0.90460  1.0000 0.1102731885
H   H162      1.0  0.22109  0.30160  0.59540  1.0000 0.1102731885
H   H163      1.0  0.22110  0.19840  0.09539  1.0000 0.1102731885
H   H164      1.0  0.77890  0.69840  0.40460  1.0000 0.1102731885
H   H165      1.0  0.02661  0.74650  0.38731  1.0000 0.1006127496
H   H166      1.0  0.97340  0.24650  0.11270  1.0000 0.1006127496
H   H167      1.0  0.97340  0.25350  0.61269  1.0000 0.1006127496
H   H168      1.0  0.02660  0.75350  0.88730  1.0000 0.1006127496
H   H169      1.0  0.11180  0.58670  0.53550  1.0000 0.1102731885
H   H170      1.0  0.88819  0.08670  0.96449  1.0000 0.1102731885
H   H171      1.0  0.88819  0.41330  0.46449  1.0000 0.1102731885
H   H172      1.0  0.11181  0.91330  0.03551  1.0000 0.1102731885
H   H173      1.0  0.97760  0.58760  0.47480  1.0000 0.1102731885
H   H174      1.0  0.02240  0.08760  0.02519  1.0000 0.1102731885
H   H175      1.0  0.02240  0.41240  0.52519  1.0000 0.1102731885
H   H176      1.0  0.97760  0.91240  0.97481  1.0000 0.1102731885
H   H177      1.0  0.21820  0.95630  0.65370  1.0000 0.1006127496
H   H178      1.0  0.78180  0.45630  0.84630  1.0000 0.1006127496
H   H179      1.0  0.78180  0.04370  0.34630  1.0000 0.1006127496
H   H180      1.0  0.21820  0.54370  0.15371  1.0000 0.1006127496
H   H181      1.0  0.96701  0.40260  0.77190  1.0000 0.0901390327
H   H182      1.0  0.03300  0.90260  0.72810  1.0000 0.0901390327
H   H183      1.0  0.03299  0.59740  0.22809  1.0000 0.0901390327
H   H184      1.0  0.96701  0.09740  0.27191  1.0000 0.0901390327
H   H185      1.0  0.76121  0.57710  0.46680  1.0000 0.0901390327
H   H186      1.0  0.23880  0.07710  0.03320  1.0000 0.0901390327
H   H187      1.0  0.23880  0.42290  0.53319  1.0000 0.0901390327
H   H188      1.0  0.76120  0.92290  0.96680  1.0000 0.0901390327
H   H189      1.0  0.85590  0.85930  0.62760  1.0000 0.1102731885
H   H190      1.0  0.14410  0.35930  0.87240  1.0000 0.1102731885
H   H191      1.0  0.14410  0.14070  0.37239  1.0000 0.1102731885
H   H192      1.0  0.85591  0.64070  0.12760  1.0000 0.1102731885
H   H193      1.0  0.51901  0.29900  0.71380  1.0000 0.0815134532
H   H194      1.0  0.48100  0.79900  0.78619  1.0000 0.0815134532
H   H195      1.0  0.48100  0.70100  0.28619  1.0000 0.0815134532
H   H196      1.0  0.51901  0.20100  0.21380  1.0000 0.0815134532
H   H197      1.0  0.43540  0.22600  0.79700  1.0000 0.1102731885
H   H198      1.0  0.56459  0.72600  0.70300  1.0000 0.1102731885
H   H199      1.0  0.56459  0.77400  0.20300  1.0000 0.1102731885
H   H200      1.0  0.43540  0.27400  0.29701  1.0000 0.1102731885
H   H201      1.0  0.37220  0.44780  0.69961  1.0000 0.1006127496
H   H202      1.0  0.62779  0.94780  0.80039  1.0000 0.1006127496
H   H203      1.0  0.62780  0.55220  0.30039  1.0000 0.1006127496
H   H204      1.0  0.37220  0.05220  0.19960  1.0000 0.1006127496
H   H205      1.0  0.35930  0.84520  0.63250  1.0000 0.0901390327
H   H206      1.0  0.64070  0.34520  0.86750  1.0000 0.0901390327
H   H207      1.0  0.64069  0.15480  0.36749  1.0000 0.0901390327
H   H208      1.0  0.35930  0.65480  0.13251  1.0000 0.0901390327
C   C1        1.0  0.16832  0.98430  0.79205  1.0000 0.1006127496
C   C2        1.0  0.83169  0.48430  0.70795  1.0000 0.1006127496
C   C3        1.0  0.83169  0.01570  0.20794  1.0000 0.1006127496
C   C4        1.0  0.16831  0.51570  0.29206  1.0000 0.1006127496
C   C5        1.0  0.12868  0.96860  0.69998  1.0000 -0.0629258946
C   C6        1.0  0.87133  0.46860  0.80001  1.0000 -0.0629258946
C   C7        1.0  0.87133  0.03140  0.30001  1.0000 -0.0629258946
C   C8        1.0  0.12867  0.53140  0.19998  1.0000 -0.0629258946
C   C9        1.0  0.09759  0.04770  0.70498  1.0000 -0.080359086
C   C10       1.0  0.90241  0.54770  0.79502  1.0000 -0.080359086
C   C11       1.0  0.90241  0.95230  0.29502  1.0000 -0.080359086
C   C12       1.0  0.09758  0.45230  0.20498  1.0000 -0.080359086
C   C13       1.0  0.09146  0.73510  0.71318  1.0000 0.1006127496
C   C14       1.0  0.90853  0.23510  0.78682  1.0000 0.1006127496
C   C15       1.0  0.90853  0.26490  0.28681  1.0000 0.1006127496
C   C16       1.0  0.09147  0.76490  0.21319  1.0000 0.1006127496
C   C17       1.0  0.10441  0.67320  0.64907  1.0000 -0.070003291
C   C18       1.0  0.89560  0.17320  0.85092  1.0000 -0.070003291
C   C19       1.0  0.89560  0.32680  0.35092  1.0000 -0.070003291
C   C20       1.0  0.10441  0.82680  0.14908  1.0000 -0.070003291
C   C21       1.0  0.04169  0.64290  0.63687  1.0000 -0.080359086
C   C22       1.0  0.95831  0.14290  0.86313  1.0000 -0.080359086
C   C23       1.0  0.95832  0.35710  0.36313  1.0000 -0.080359086
C   C24       1.0  0.04168  0.85710  0.13686  1.0000 -0.080359086
C   C25       1.0  0.37559  0.94820  0.76923  1.0000 0.1102731885
C   C26       1.0  0.62440  0.44820  0.73076  1.0000 0.1102731885
C   C27       1.0  0.62440  0.05180  0.23076  1.0000 0.1102731885
C   C28       1.0  0.37560  0.55180  0.26924  1.0000 0.1102731885
C   C29       1.0  0.30261  0.04160  0.76901  1.0000 -0.0629258946
C   C30       1.0  0.69739  0.54160  0.73099  1.0000 -0.0629258946
C   C31       1.0  0.69739  0.95840  0.23100  1.0000 -0.0629258946
C   C32       1.0  0.30261  0.45840  0.26900  1.0000 -0.0629258946
C   C33       1.0  0.33395  0.09050  0.74740  1.0000 -0.070003291
C   C34       1.0  0.66604  0.59050  0.75259  1.0000 -0.070003291
C   C35       1.0  0.66604  0.90950  0.25260  1.0000 -0.070003291
C   C36       1.0  0.33396  0.40950  0.24741  1.0000 -0.070003291
C   C37       1.0  0.39933  0.65360  0.78515  1.0000 0.1102731885
C   C38       1.0  0.60067  0.15360  0.71484  1.0000 0.1102731885
C   C39       1.0  0.60066  0.34640  0.21485  1.0000 0.1102731885
C   C40       1.0  0.39933  0.84640  0.28515  1.0000 0.1102731885
C   C41       1.0  0.44166  0.73140  0.86645  1.0000 -0.070003291
C   C42       1.0  0.55834  0.23140  0.63355  1.0000 -0.070003291
C   C43       1.0  0.55834  0.26860  0.13354  1.0000 -0.070003291
C   C44       1.0  0.44167  0.76860  0.36645  1.0000 -0.070003291
C   C45       1.0  0.49345  0.67280  0.87394  1.0000 -0.080359086
C   C46       1.0  0.50655  0.17280  0.62606  1.0000 -0.080359086
C   C47       1.0  0.50655  0.32720  0.12607  1.0000 -0.080359086
C   C48       1.0  0.49345  0.82720  0.37394  1.0000 -0.080359086
C   C49       1.0  0.24270  0.74830  0.63823  1.0000 0.1102731885
C   C50       1.0  0.75731  0.24830  0.86176  1.0000 0.1102731885
C   C51       1.0  0.75731  0.25170  0.36177  1.0000 0.1102731885
C   C52       1.0  0.24270  0.75170  0.13823  1.0000 0.1102731885
C   C53       1.0  0.21820  0.89560  0.63735  1.0000 -0.070003291
C   C54       1.0  0.78180  0.39560  0.86265  1.0000 -0.070003291
C   C55       1.0  0.78180  0.10440  0.36265  1.0000 -0.070003291
C   C56       1.0  0.21820  0.60440  0.13734  1.0000 -0.070003291
C   C57       1.0  0.20295  0.87190  0.58315  1.0000 -0.080359086
C   C58       1.0  0.79705  0.37190  0.91685  1.0000 -0.080359086
C   C59       1.0  0.79705  0.12810  0.41685  1.0000 -0.080359086
C   C60       1.0  0.20295  0.62810  0.08314  1.0000 -0.080359086
C   C61       1.0  0.27714  0.78900  0.90468  1.0000 0.1102731885
C   C62       1.0  0.72286  0.28900  0.59532  1.0000 0.1102731885
C   C63       1.0  0.72286  0.21100  0.09531  1.0000 0.1102731885
C   C64       1.0  0.27714  0.71100  0.40469  1.0000 0.1102731885
C   C65       1.0  0.33657  0.91340  0.91448  1.0000 -0.080359086
C   C66       1.0  0.66343  0.41340  0.58552  1.0000 -0.080359086
C   C67       1.0  0.66343  0.08660  0.08551  1.0000 -0.080359086
C   C68       1.0  0.33658  0.58660  0.41448  1.0000 -0.080359086
C   C69       1.0  0.32316  0.91580  0.95666  1.0000 -0.070003291
C   C70       1.0  0.67685  0.41580  0.54334  1.0000 -0.070003291
C   C71       1.0  0.67685  0.08420  0.04333  1.0000 -0.070003291
C   C72       1.0  0.32316  0.58420  0.45666  1.0000 -0.070003291
C   C73       1.0  0.20551  0.56910  0.79421  1.0000 0.1205495502
C   C74       1.0  0.79449  0.06910  0.70579  1.0000 0.1205495502
C   C75       1.0  0.79449  0.43090  0.20580  1.0000 0.1205495502
C   C76       1.0  0.20550  0.93090  0.29420  1.0000 0.1205495502
C   C77       1.0  0.31860  0.57570  0.85920  1.0000 -0.070003291
C   C78       1.0  0.68139  0.07570  0.64080  1.0000 -0.0629258946
C   C79       1.0  0.68139  0.42430  0.14080  1.0000 -0.070003291
C   C80       1.0  0.31860  0.92430  0.35920  1.0000 -0.070003291
C   C81       1.0  0.29751  0.49270  0.86890  1.0000 -0.070003291
C   C82       1.0  0.70250  0.99270  0.63109  1.0000 -0.070003291
C   C83       1.0  0.70250  0.50730  0.13109  1.0000 -0.070003291
C   C84       1.0  0.29751  0.00730  0.36890  1.0000 -0.070003291
C   C85       1.0  0.99261  0.39950  0.75495  1.0000 0.1102731885
C   C86       1.0  0.00738  0.89950  0.74504  1.0000 0.1102731885
C   C87       1.0  0.00738  0.60050  0.24504  1.0000 0.1102731885
C   C88       1.0  0.99262  0.10050  0.25495  1.0000 0.1102731885
C   C89       1.0  0.04316  0.43660  0.71279  1.0000 -0.080359086
C   C90       1.0  0.95683  0.93660  0.78720  1.0000 -0.080359086
C   C91       1.0  0.95683  0.56340  0.28720  1.0000 -0.080359086
C   C92       1.0  0.04316  0.06340  0.21279  1.0000 -0.080359086
C   C93       1.0  0.06060  0.34430  0.73282  1.0000 -0.1115204209
C   C94       1.0  0.93939  0.84430  0.76717  1.0000 -0.1115204209
C   C95       1.0  0.93939  0.65570  0.26717  1.0000 -0.1115204209
C   C96       1.0  0.06060  0.15570  0.23283  1.0000 -0.1115204209
C   C97       1.0  0.10581  0.71170  0.85596  1.0000 0.0901390327
C   C98       1.0  0.89419  0.21170  0.64403  1.0000 0.0901390327
C   C99       1.0  0.89419  0.28830  0.14403  1.0000 0.0901390327
C   C100      1.0  0.10580  0.78830  0.35596  1.0000 0.0901390327
C   C101      1.0  0.08223  0.56730  0.86233  1.0000 -0.070003291
C   C102      1.0  0.91777  0.06730  0.63767  1.0000 -0.070003291
C   C103      1.0  0.91778  0.43270  0.13767  1.0000 -0.070003291
C   C104      1.0  0.08222  0.93270  0.36233  1.0000 -0.070003291
C   C105      1.0  0.14030  0.59590  0.91693  1.0000 -0.0901811091
C   C106      1.0  0.85969  0.09590  0.58307  1.0000 -0.080359086
C   C107      1.0  0.85969  0.40410  0.08306  1.0000 -0.080359086
C   C108      1.0  0.14031  0.90410  0.41694  1.0000 -0.0901811091
C   C109      1.0  0.86208  0.48470  0.58900  1.0000 0.1006127496
C   C110      1.0  0.13792  0.98470  0.91100  1.0000 0.1006127496
C   C111      1.0  0.13792  0.51530  0.41101  1.0000 0.1006127496
C   C112      1.0  0.86208  0.01530  0.08900  1.0000 0.1102731885
C   C113      1.0  0.84251  0.62410  0.55310  1.0000 -0.070003291
C   C114      1.0  0.15749  0.12410  0.94690  1.0000 -0.070003291
C   C115      1.0  0.15749  0.37590  0.44689  1.0000 -0.070003291
C   C116      1.0  0.84251  0.87590  0.05310  1.0000 -0.070003291
C   C117      1.0  0.79718  0.56350  0.50818  1.0000 -0.080359086
C   C118      1.0  0.20283  0.06350  0.99182  1.0000 -0.080359086
C   C119      1.0  0.20282  0.43650  0.49183  1.0000 -0.080359086
C   C120      1.0  0.79718  0.93650  0.00817  1.0000 -0.080359086
C   C121      1.0  0.76650  0.69130  0.61591  1.0000 0.1205495502
C   C122      1.0  0.23349  0.19130  0.88409  1.0000 0.1205495502
C   C123      1.0  0.23350  0.30870  0.38410  1.0000 0.1205495502
C   C124      1.0  0.76650  0.80870  0.11590  1.0000 0.1205495502
C   C125      1.0  0.81690  0.81700  0.61411  1.0000 -0.0901811091
C   C126      1.0  0.18310  0.31700  0.88589  1.0000 -0.0901811091
C   C127      1.0  0.18310  0.18300  0.38589  1.0000 -0.0901811091
C   C128      1.0  0.81690  0.68300  0.11410  1.0000 -0.0901811091
C   C129      1.0  0.74801  0.82120  0.56530  1.0000 -0.080359086
C   C130      1.0  0.25199  0.32120  0.93469  1.0000 -0.080359086
C   C131      1.0  0.25200  0.17880  0.43469  1.0000 -0.080359086
C   C132      1.0  0.74801  0.67880  0.06531  1.0000 -0.080359086
C   C133      1.0  0.50228  0.30200  0.73803  1.0000 0.1205495502
C   C134      1.0  0.49772  0.80200  0.76197  1.0000 0.1205495502
C   C135      1.0  0.49772  0.69800  0.26198  1.0000 0.1205495502
C   C136      1.0  0.50228  0.19800  0.23802  1.0000 0.1205495502
C   C137      1.0  0.47468  0.35830  0.79368  1.0000 -0.080359086
C   C138      1.0  0.52531  0.85830  0.70632  1.0000 -0.080359086
C   C139      1.0  0.52531  0.64170  0.20631  1.0000 -0.0901811091
C   C140      1.0  0.47469  0.14170  0.29368  1.0000 -0.080359086
C   C141      1.0  0.45626  0.26400  0.78355  1.0000 -0.0629258946
C   C142      1.0  0.54373  0.76400  0.71645  1.0000 -0.0629258946
C   C143      1.0  0.54373  0.73600  0.21645  1.0000 -0.0629258946
C   C144      1.0  0.45626  0.23600  0.28354  1.0000 -0.0629258946
C   C145      1.0  0.39318  0.62320  0.64053  1.0000 0.1364123318
C   C146      1.0  0.60681  0.12320  0.85947  1.0000 0.1364123318
C   C147      1.0  0.60681  0.37680  0.35947  1.0000 0.1364123318
C   C148      1.0  0.39318  0.87680  0.14053  1.0000 0.1364123318
C   C149      1.0  0.36584  0.50570  0.67335  1.0000 -0.080359086
C   C150      1.0  0.63416  0.00570  0.82664  1.0000 -0.080359086
C   C151      1.0  0.63416  0.49430  0.32665  1.0000 -0.080359086
C   C152      1.0  0.36584  0.99430  0.17336  1.0000 -0.080359086
C   C153      1.0  0.30634  0.53900  0.62243  1.0000 -0.0901811091
C   C154      1.0  0.69367  0.03900  0.87757  1.0000 -0.0901811091
C   C155      1.0  0.69367  0.46100  0.37757  1.0000 -0.0901811091
C   C156      1.0  0.30634  0.96100  0.12243  1.0000 -0.0901811091
C   C157      1.0  0.35431  0.87830  0.60003  1.0000 0.1205495502
C   C158      1.0  0.64568  0.37830  0.89997  1.0000 0.1205495502
C   C159      1.0  0.64568  0.12170  0.39998  1.0000 0.1205495502
C   C160      1.0  0.35431  0.62170  0.10003  1.0000 0.1205495502
C   C161      1.0  0.36916  0.97920  0.55019  1.0000 -0.080359086
C   C162      1.0  0.63084  0.47920  0.94980  1.0000 -0.080359086
C   C163      1.0  0.63084  0.02080  0.44980  1.0000 -0.080359086
C   C164      1.0  0.36916  0.52080  0.05019  1.0000 -0.080359086
C   C165      1.0  0.32388  0.90980  0.51165  1.0000 -0.080359086
C   C166      1.0  0.67612  0.40980  0.98834  1.0000 -0.080359086
C   C167      1.0  0.67612  0.09020  0.48834  1.0000 -0.080359086
C   C168      1.0  0.32388  0.59020  0.01165  1.0000 -0.080359086
C   C169      1.0  0.72171  0.60980  0.91090  1.0000 0.1205495502
C   C170      1.0  0.27830  0.10980  0.58910  1.0000 0.1205495502
C   C171      1.0  0.27830  0.39020  0.08909  1.0000 0.1205495502
C   C172      1.0  0.72171  0.89020  0.41091  1.0000 0.1205495502
C   C173      1.0  0.68061  0.74290  0.86601  1.0000 -0.070003291
C   C174      1.0  0.31939  0.24290  0.63399  1.0000 -0.070003291
C   C175      1.0  0.31940  0.25710  0.13400  1.0000 -0.070003291
C   C176      1.0  0.68061  0.75710  0.36601  1.0000 -0.070003291
C   C177      1.0  0.75191  0.75120  0.90170  1.0000 -0.070003291
C   C178      1.0  0.24810  0.25120  0.59829  1.0000 -0.070003291
C   C179      1.0  0.24809  0.24880  0.09829  1.0000 -0.070003291
C   C180      1.0  0.75191  0.74880  0.40170  1.0000 -0.070003291
C   C181      1.0  0.03320  0.70530  0.42040  1.0000 0.127692705
C   C182      1.0  0.96680  0.20530  0.07959  1.0000 0.127692705
C   C183      1.0  0.96679  0.29470  0.57959  1.0000 0.127692705
C   C184      1.0  0.03320  0.79470  0.92040  1.0000 0.127692705
C   C185      1.0  0.07801  0.62330  0.50011  1.0000 -0.080359086
C   C186      1.0  0.92200  0.12330  0.99989  1.0000 -0.070003291
C   C187      1.0  0.92200  0.37670  0.49989  1.0000 -0.080359086
C   C188      1.0  0.07801  0.87670  0.00011  1.0000 -0.080359086
C   C189      1.0  0.00640  0.61770  0.46910  1.0000 -0.070003291
C   C190      1.0  0.99360  0.11770  0.03089  1.0000 -0.070003291
C   C191      1.0  0.99360  0.38230  0.53090  1.0000 -0.070003291
C   C192      1.0  0.00641  0.88230  0.96910  1.0000 -0.070003291
N   N1        1.0  0.17420  0.92840  0.75576  1.0000 -0.3801622908
N   N2        1.0  0.82579  0.42840  0.74423  1.0000 -0.3801622908
N   N3        1.0  0.82579  0.07160  0.24423  1.0000 -0.3801622908
N   N4        1.0  0.17421  0.57160  0.25577  1.0000 -0.3801622908
N   N5        1.0  0.12271  0.05760  0.76409  1.0000 -0.3983689355
N   N6        1.0  0.87728  0.55760  0.73591  1.0000 -0.3983689355
N   N7        1.0  0.87728  0.94240  0.23591  1.0000 -0.3983689355
N   N8        1.0  0.12271  0.44240  0.26408  1.0000 -0.3983689355
N   N9        1.0  0.13727  0.73320  0.69842  1.0000 -0.3701391684
N   N10       1.0  0.86272  0.23320  0.80158  1.0000 -0.3701391684
N   N11       1.0  0.86272  0.26680  0.30158  1.0000 -0.3701391684
N   N12       1.0  0.13728  0.76680  0.19842  1.0000 -0.3701391684
N   N13       1.0  0.03291  0.68210  0.67839  1.0000 -0.3801622908
N   N14       1.0  0.96708  0.18210  0.82161  1.0000 -0.3801622908
N   N15       1.0  0.96708  0.31790  0.32160  1.0000 -0.3801622908
N   N16       1.0  0.03291  0.81790  0.17839  1.0000 -0.3801622908
N   N17       1.0  0.32917  0.94960  0.78323  1.0000 -0.3701391684
N   N18       1.0  0.67083  0.44960  0.71676  1.0000 -0.3701391684
N   N19       1.0  0.67083  0.05040  0.21677  1.0000 -0.3701391684
N   N20       1.0  0.32917  0.55040  0.28324  1.0000 -0.3701391684
N   N21       1.0  0.38194  0.03080  0.74769  1.0000 -0.3885323196
N   N22       1.0  0.61806  0.53080  0.75230  1.0000 -0.3885323196
N   N23       1.0  0.61807  0.96920  0.25231  1.0000 -0.3885323196
N   N24       1.0  0.38193  0.46920  0.24769  1.0000 -0.3885323196
N   N25       1.0  0.38094  0.72000  0.80917  1.0000 -0.3801622908
N   N26       1.0  0.61906  0.22000  0.69083  1.0000 -0.3801622908
N   N27       1.0  0.61907  0.28000  0.19084  1.0000 -0.3801622908
N   N28       1.0  0.38094  0.78000  0.30917  1.0000 -0.3801622908
N   N29       1.0  0.46614  0.62230  0.82178  1.0000 -0.3701391684
N   N30       1.0  0.53386  0.12230  0.67822  1.0000 -0.3701391684
N   N31       1.0  0.53387  0.37770  0.17822  1.0000 -0.3701391684
N   N32       1.0  0.46614  0.87770  0.32177  1.0000 -0.3701391684
N   N33       1.0  0.24375  0.81530  0.67339  1.0000 -0.3801622908
N   N34       1.0  0.75626  0.31530  0.82661  1.0000 -0.3801622908
N   N35       1.0  0.75626  0.18470  0.32660  1.0000 -0.3801622908
N   N36       1.0  0.24375  0.68470  0.17339  1.0000 -0.3801622908
N   N37       1.0  0.21844  0.77710  0.58286  1.0000 -0.3801622908
N   N38       1.0  0.78155  0.27710  0.91714  1.0000 -0.3801622908
N   N39       1.0  0.78155  0.22290  0.41714  1.0000 -0.3885323196
N   N40       1.0  0.21845  0.72290  0.08285  1.0000 -0.3885323196
N   N41       1.0  0.30644  0.83150  0.88037  1.0000 -0.3801622908
N   N42       1.0  0.69356  0.33150  0.61962  1.0000 -0.3801622908
N   N43       1.0  0.69356  0.16850  0.11962  1.0000 -0.3801622908
N   N44       1.0  0.30645  0.66850  0.38037  1.0000 -0.3801622908
N   N45       1.0  0.28492  0.83580  0.95061  1.0000 -0.3701391684
N   N46       1.0  0.71508  0.33580  0.54939  1.0000 -0.3701391684
N   N47       1.0  0.71508  0.16420  0.04938  1.0000 -0.3701391684
N   N48       1.0  0.28492  0.66420  0.45061  1.0000 -0.3701391684
N   N49       1.0  0.26061  0.62440  0.81227  1.0000 -0.3522255134
N   N50       1.0  0.73938  0.12440  0.68773  1.0000 -0.3522255134
N   N51       1.0  0.73938  0.37560  0.18773  1.0000 -0.3522255134
N   N52       1.0  0.26061  0.87560  0.31228  1.0000 -0.3522255134
N   N53       1.0  0.22524  0.48960  0.82700  1.0000 -0.189046909
N   N54       1.0  0.77477  0.98960  0.67300  1.0000 -0.184742434
N   N55       1.0  0.77477  0.51040  0.17300  1.0000 -0.184742434
N   N56       1.0  0.22523  0.01040  0.32700  1.0000 -0.184742434
N   N57       1.0  0.99979  0.47210  0.72713  1.0000 -0.3801622908
N   N58       1.0  0.00020  0.97210  0.77287  1.0000 -0.3801622908
N   N59       1.0  0.00021  0.52790  0.27287  1.0000 -0.3801622908
N   N60       1.0  0.99979  0.02790  0.22713  1.0000 -0.3801622908
N   N61       1.0  0.02848  0.32000  0.76009  1.0000 -0.3983689355
N   N62       1.0  0.97152  0.82000  0.73991  1.0000 -0.3983689355
N   N63       1.0  0.97152  0.68000  0.23991  1.0000 -0.3983689355
N   N64       1.0  0.02848  0.18000  0.26009  1.0000 -0.3983689355
N   N65       1.0  0.05950  0.64200  0.82232  1.0000 -0.3983689355
N   N66       1.0  0.94051  0.14200  0.67768  1.0000 -0.3983689355
N   N67       1.0  0.94051  0.35800  0.17769  1.0000 -0.3983689355
N   N68       1.0  0.05949  0.85800  0.32232  1.0000 -0.3983689355
N   N69       1.0  0.15522  0.68890  0.91322  1.0000 -0.3801622908
N   N70       1.0  0.84478  0.18890  0.58678  1.0000 -0.3801622908
N   N71       1.0  0.84478  0.31110  0.08677  1.0000 -0.3801622908
N   N72       1.0  0.15523  0.81110  0.41323  1.0000 -0.3801622908
N   N73       1.0  0.88475  0.57420  0.60561  1.0000 -0.3885323196
N   N74       1.0  0.11524  0.07420  0.89438  1.0000 -0.3885323196
N   N75       1.0  0.11525  0.42580  0.39438  1.0000 -0.3885323196
N   N76       1.0  0.88475  0.92580  0.10562  1.0000 -0.3885323196
N   N77       1.0  0.80938  0.47280  0.53079  1.0000 -0.3801622908
N   N78       1.0  0.19061  0.97280  0.96920  1.0000 -0.3801622908
N   N79       1.0  0.19062  0.52720  0.46920  1.0000 -0.3801622908
N   N80       1.0  0.80939  0.02720  0.03079  1.0000 -0.3801622908
N   N81       1.0  0.82847  0.73470  0.64602  1.0000 -0.3522255134
N   N82       1.0  0.17152  0.23470  0.85397  1.0000 -0.3522255134
N   N83       1.0  0.17153  0.26530  0.35397  1.0000 -0.3522255134
N   N84       1.0  0.82847  0.76530  0.14602  1.0000 -0.3522255134
N   N85       1.0  0.71627  0.74080  0.56756  1.0000 -0.189046909
N   N86       1.0  0.28374  0.24080  0.93244  1.0000 -0.189046909
N   N87       1.0  0.28374  0.25920  0.43245  1.0000 -0.189046909
N   N88       1.0  0.71627  0.75920  0.06755  1.0000 -0.189046909
N   N89       1.0  0.50499  0.38330  0.76470  1.0000 -0.3801622908
N   N90       1.0  0.49500  0.88330  0.73530  1.0000 -0.3801622908
N   N91       1.0  0.49500  0.61670  0.23529  1.0000 -0.3801622908
N   N92       1.0  0.50499  0.11670  0.26470  1.0000 -0.3801622908
N   N93       1.0  0.47340  0.22770  0.74740  1.0000 -0.3801622908
N   N94       1.0  0.52659  0.72770  0.75259  1.0000 -0.3801622908
N   N95       1.0  0.52660  0.77230  0.25260  1.0000 -0.3801622908
N   N96       1.0  0.47341  0.27230  0.24741  1.0000 -0.3801622908
N   N97       1.0  0.42360  0.56020  0.68599  1.0000 -0.3701391684
N   N98       1.0  0.57639  0.06020  0.81400  1.0000 -0.3701391684
N   N99       1.0  0.57639  0.43980  0.31400  1.0000 -0.3701391684
N   N100      1.0  0.42361  0.93980  0.18599  1.0000 -0.3701391684
N   N101      1.0  0.32338  0.61350  0.60059  1.0000 -0.3701391684
N   N102      1.0  0.67661  0.11350  0.89941  1.0000 -0.3701391684
N   N103      1.0  0.67661  0.38650  0.39942  1.0000 -0.3801622908
N   N104      1.0  0.32338  0.88650  0.10058  1.0000 -0.3801622908
N   N105      1.0  0.38864  0.96040  0.60733  1.0000 -0.3885323196
N   N106      1.0  0.61135  0.46040  0.89266  1.0000 -0.3885323196
N   N107      1.0  0.61135  0.03960  0.39266  1.0000 -0.3885323196
N   N108      1.0  0.38864  0.53960  0.10733  1.0000 -0.3885323196
N   N109      1.0  0.31442  0.84430  0.54368  1.0000 -0.3701391684
N   N110      1.0  0.68558  0.34430  0.95632  1.0000 -0.3701391684
N   N111      1.0  0.68557  0.15570  0.45632  1.0000 -0.3701391684
N   N112      1.0  0.31443  0.65570  0.04367  1.0000 -0.3701391684
N   N113      1.0  0.66129  0.65250  0.87169  1.0000 -0.3412700029
N   N114      1.0  0.33870  0.15250  0.62831  1.0000 -0.3412700029
N   N115      1.0  0.33870  0.34750  0.12831  1.0000 -0.3412700029
N   N116      1.0  0.66129  0.84750  0.37169  1.0000 -0.3412700029
N   N117      1.0  0.77795  0.66600  0.93032  1.0000 -0.189046909
N   N118      1.0  0.22204  0.16600  0.56968  1.0000 -0.1955841911
N   N119      1.0  0.22204  0.33400  0.06968  1.0000 -0.1955841911
N   N120      1.0  0.77795  0.83400  0.43032  1.0000 -0.189046909
N   N121      1.0  0.09498  0.67850  0.46889  1.0000 -0.3412700029
N   N122      1.0  0.90502  0.17850  0.03111  1.0000 -0.3412700029
N   N123      1.0  0.90502  0.32150  0.53111  1.0000 -0.3522255134
N   N124      1.0  0.09498  0.82150  0.96889  1.0000 -0.3522255134
N   N125      1.0  0.97898  0.66970  0.41876  1.0000 -0.159426896
N   N126      1.0  0.02103  0.16970  0.08124  1.0000 -0.159426896
N   N127      1.0  0.02103  0.33030  0.58123  1.0000 -0.159426896
N   N128      1.0  0.97898  0.83030  0.91877  1.0000 -0.159426896
