# DDEC6 charges by PACMAN v1.1 (https://github.com/mtap-research/PACMAN-charge/)
data_2015[Cd][nan]3[ASR]9
_chemical_formula_sum              "Cd12 H144 C272 O64"
_cell_length_a       15.8555
_cell_length_b       21.4018
_cell_length_c       28.677
_cell_angle_alpha    90
_cell_angle_beta     90
_cell_angle_gamma    90

_symmetry_space_group_name_H-M    "P 1"
_symmetry_Int_Tables_number       1

loop_
  _symmetry_equiv_pos_as_xyz
  'x, y, z'

loop_
  _atom_site_type_symbol
  _atom_site_label
  _atom_site_symmetry_multiplicity
  _atom_site_fract_x
  _atom_site_fract_y
  _atom_site_fract_z
  _atom_site_occupancy
  _atom_site_charge
Cd  Cd1       1.0  0.02845  0.01010  0.70463  1.0000 1.0313804096
Cd  Cd2       1.0  0.97155  0.51010  0.29537  1.0000 1.0313804096
Cd  Cd3       1.0  0.97155  0.48990  0.70463  1.0000 1.0313804096
Cd  Cd4       1.0  0.02845  0.98990  0.29537  1.0000 1.0313804096
Cd  Cd5       1.0  0.51391  0.99313  0.79138  1.0000 1.0368762474
Cd  Cd6       1.0  0.48609  0.49313  0.20862  1.0000 1.0313804096
Cd  Cd7       1.0  0.48609  0.50687  0.79138  1.0000 1.0313804096
Cd  Cd8       1.0  0.51391  0.00687  0.20862  1.0000 1.0313804096
Cd  Cd9       1.0  0.23910  0.01263  0.75326  1.0000 1.1165781479
Cd  Cd10      1.0  0.76090  0.51263  0.24674  1.0000 1.1149783592
Cd  Cd11      1.0  0.76090  0.48737  0.75326  1.0000 1.1149783592
Cd  Cd12      1.0  0.23910  0.98737  0.24674  1.0000 1.1149783592
H   H1        1.0  0.01070  0.99290  0.92020  1.0000 0.1206323593
H   H2        1.0  0.98930  0.49290  0.07980  1.0000 0.1206323593
H   H3        1.0  0.98930  0.50710  0.92020  1.0000 0.1206323593
H   H4        1.0  0.01070  0.00710  0.07980  1.0000 0.1206323593
H   H5        1.0  0.23270  0.93080  0.97770  1.0000 0.1206323593
H   H6        1.0  0.76730  0.43080  0.02230  1.0000 0.1206323593
H   H7        1.0  0.76730  0.56920  0.97770  1.0000 0.1206323593
H   H8        1.0  0.23270  0.06920  0.02230  1.0000 0.1206323593
H   H9        1.0  0.85600  0.92700  0.57570  1.0000 0.1280470561
H   H10       1.0  0.14400  0.42700  0.42430  1.0000 0.1280470561
H   H11       1.0  0.14400  0.57300  0.57570  1.0000 0.1280470561
H   H12       1.0  0.85600  0.07300  0.42430  1.0000 0.1280470561
H   H13       1.0  0.76360  0.07800  0.64110  1.0000 0.1280470561
H   H14       1.0  0.23640  0.57800  0.35890  1.0000 0.1280470561
H   H15       1.0  0.23640  0.42200  0.64110  1.0000 0.1369275329
H   H16       1.0  0.76360  0.92200  0.35890  1.0000 0.1280470561
H   H17       1.0  0.23250  0.06720  0.85260  1.0000 0.1206323593
H   H18       1.0  0.76750  0.56720  0.14740  1.0000 0.1206323593
H   H19       1.0  0.76750  0.43280  0.85260  1.0000 0.1206323593
H   H20       1.0  0.23250  0.93280  0.14740  1.0000 0.1206323593
H   H21       1.0  0.12640  0.07040  0.90590  1.0000 0.1139211144
H   H22       1.0  0.87360  0.57040  0.09410  1.0000 0.1139211144
H   H23       1.0  0.87360  0.42960  0.90590  1.0000 0.1139211144
H   H24       1.0  0.12640  0.92960  0.09410  1.0000 0.1139211144
H   H25       1.0  0.34110  0.92670  0.92390  1.0000 0.1280470561
H   H26       1.0  0.65890  0.42670  0.07610  1.0000 0.1280470561
H   H27       1.0  0.65890  0.57330  0.92390  1.0000 0.1280470561
H   H28       1.0  0.34110  0.07330  0.07610  1.0000 0.1280470561
H   H29       1.0  0.74320  0.92970  0.52460  1.0000 0.1206323593
H   H30       1.0  0.25680  0.42970  0.47540  1.0000 0.1206323593
H   H31       1.0  0.25680  0.57030  0.52460  1.0000 0.1206323593
H   H32       1.0  0.74320  0.07030  0.47540  1.0000 0.1206323593
H   H33       1.0  0.52670  0.00540  0.58030  1.0000 0.1206323593
H   H34       1.0  0.47330  0.50540  0.41970  1.0000 0.1206323593
H   H35       1.0  0.47330  0.49460  0.58030  1.0000 0.1206323593
H   H36       1.0  0.52670  0.99460  0.41970  1.0000 0.1206323593
H   H37       1.0  0.64840  0.07700  0.59260  1.0000 0.1206323593
H   H38       1.0  0.35160  0.57700  0.40740  1.0000 0.1206323593
H   H39       1.0  0.35160  0.42300  0.59260  1.0000 0.1206323593
H   H40       1.0  0.64840  0.92300  0.40740  1.0000 0.1206323593
H   H41       1.0  0.03480  0.85480  0.99530  1.0000 0.1280470561
H   H42       1.0  0.96520  0.35480  0.00470  1.0000 0.1280470561
H   H43       1.0  0.96520  0.64520  0.99530  1.0000 0.1280470561
H   H44       1.0  0.03480  0.14520  0.00470  1.0000 0.1280470561
H   H45       1.0  0.19700  0.08333  0.56660  1.0000 0.1280470561
H   H46       1.0  0.80300  0.58333  0.43340  1.0000 0.1280470561
H   H47       1.0  0.80300  0.41667  0.56660  1.0000 0.1280470561
H   H48       1.0  0.19700  0.91667  0.43340  1.0000 0.1280470561
H   H49       1.0  0.44570  0.07340  0.65470  1.0000 0.1206323593
H   H50       1.0  0.55430  0.57340  0.34530  1.0000 0.1206323593
H   H51       1.0  0.55430  0.42660  0.65470  1.0000 0.1206323593
H   H52       1.0  0.44570  0.92660  0.34530  1.0000 0.1206323593
H   H53       1.0  0.92930  0.87250  0.08420  1.0000 0.1206323593
H   H54       1.0  0.07070  0.37250  0.91580  1.0000 0.1206323593
H   H55       1.0  0.07070  0.62750  0.08420  1.0000 0.1206323593
H   H56       1.0  0.92930  0.12750  0.91580  1.0000 0.1206323593
H   H57       1.0  0.91470  0.79600  0.87630  1.0000 0.1206323593
H   H58       1.0  0.08530  0.29600  0.12370  1.0000 0.1206323593
H   H59       1.0  0.08530  0.70400  0.87630  1.0000 0.1206323593
H   H60       1.0  0.91470  0.20400  0.12370  1.0000 0.1206323593
H   H61       1.0  0.40210  0.21300  0.38860  1.0000 0.1206323593
H   H62       1.0  0.59790  0.71300  0.61140  1.0000 0.1206323593
H   H63       1.0  0.59790  0.28700  0.38860  1.0000 0.1206323593
H   H64       1.0  0.40210  0.78700  0.61140  1.0000 0.1206323593
H   H65       1.0  0.31090  0.07330  0.51570  1.0000 0.1206323593
H   H66       1.0  0.68910  0.57330  0.48430  1.0000 0.1206323593
H   H67       1.0  0.68910  0.42670  0.51570  1.0000 0.1206323593
H   H68       1.0  0.31090  0.92670  0.48430  1.0000 0.1206323593
H   H69       1.0  0.93420  0.85810  0.81120  1.0000 0.1369275329
H   H70       1.0  0.06580  0.35810  0.18880  1.0000 0.1369275329
H   H71       1.0  0.06580  0.64190  0.81120  1.0000 0.1369275329
H   H72       1.0  0.93420  0.14190  0.18880  1.0000 0.1369275329
H   H73       1.0  0.80190  0.07670  0.97270  1.0000 0.1206323593
H   H74       1.0  0.19810  0.57670  0.02730  1.0000 0.1206323593
H   H75       1.0  0.19810  0.42330  0.97270  1.0000 0.1206323593
H   H76       1.0  0.80190  0.92330  0.02730  1.0000 0.1206323593
H   H77       1.0  0.64130  0.18580  0.68330  1.0000 0.1280470561
H   H78       1.0  0.35870  0.68580  0.31670  1.0000 0.1280470561
H   H79       1.0  0.35870  0.31420  0.68330  1.0000 0.1280470561
H   H80       1.0  0.64130  0.81420  0.31670  1.0000 0.1280470561
H   H81       1.0  0.13500  0.76450  0.09900  1.0000 0.1280470561
H   H82       1.0  0.86500  0.26450  0.90100  1.0000 0.1280470561
H   H83       1.0  0.86500  0.73550  0.09900  1.0000 0.1280470561
H   H84       1.0  0.13500  0.23550  0.90100  1.0000 0.1280470561
H   H85       1.0  0.95470  0.91450  0.15770  1.0000 0.1369275329
H   H86       1.0  0.04530  0.41450  0.84230  1.0000 0.1369275329
H   H87       1.0  0.04530  0.58550  0.15770  1.0000 0.1369275329
H   H88       1.0  0.95470  0.08550  0.84230  1.0000 0.1369275329
H   H89       1.0  0.40720  0.93940  0.59880  1.0000 0.1206323593
H   H90       1.0  0.59280  0.43940  0.40120  1.0000 0.1206323593
H   H91       1.0  0.59280  0.56060  0.59880  1.0000 0.1206323593
H   H92       1.0  0.40720  0.06060  0.40120  1.0000 0.1206323593
H   H93       1.0  0.40950  0.16040  0.31880  1.0000 0.1280470561
H   H94       1.0  0.59050  0.66040  0.68120  1.0000 0.1280470561
H   H95       1.0  0.59050  0.33960  0.31880  1.0000 0.1280470561
H   H96       1.0  0.40950  0.83960  0.68120  1.0000 0.1280470561
H   H97       1.0  0.62170  0.13810  0.42810  1.0000 0.1206323593
H   H98       1.0  0.37830  0.63810  0.57190  1.0000 0.1206323593
H   H99       1.0  0.37830  0.36190  0.42810  1.0000 0.1206323593
H   H100      1.0  0.62170  0.86190  0.57190  1.0000 0.1206323593
H   H101      1.0  0.16310  0.81160  0.16900  1.0000 0.1280470561
H   H102      1.0  0.83690  0.31160  0.83100  1.0000 0.1280470561
H   H103      1.0  0.83690  0.68840  0.16900  1.0000 0.1280470561
H   H104      1.0  0.16310  0.18840  0.83100  1.0000 0.1280470561
H   H105      1.0  0.68480  0.07620  0.92320  1.0000 0.1280470561
H   H106      1.0  0.31520  0.57620  0.07680  1.0000 0.1280470561
H   H107      1.0  0.31520  0.42380  0.92320  1.0000 0.1280470561
H   H108      1.0  0.68480  0.92380  0.07680  1.0000 0.1280470561
H   H109      1.0  0.76160  0.91410  0.86840  1.0000 0.1280470561
H   H110      1.0  0.23840  0.41410  0.13160  1.0000 0.1280470561
H   H111      1.0  0.23840  0.58590  0.86840  1.0000 0.1280470561
H   H112      1.0  0.76160  0.08590  0.13160  1.0000 0.1280470561
H   H113      1.0  0.15900  0.90990  0.86010  1.0000 0.1206323593
H   H114      1.0  0.84100  0.40990  0.13990  1.0000 0.1206323593
H   H115      1.0  0.84100  0.59010  0.86010  1.0000 0.1206323593
H   H116      1.0  0.15900  0.09010  0.13990  1.0000 0.1206323593
H   H117      1.0  0.13870  0.85190  0.92590  1.0000 0.1206323593
H   H118      1.0  0.86130  0.35190  0.07410  1.0000 0.1206323593
H   H119      1.0  0.86130  0.64810  0.92590  1.0000 0.1206323593
H   H120      1.0  0.13870  0.14810  0.07410  1.0000 0.1206323593
H   H121      1.0  0.29530  0.95190  0.65010  1.0000 0.1280470561
H   H122      1.0  0.70470  0.45190  0.34990  1.0000 0.1280470561
H   H123      1.0  0.70470  0.54810  0.65010  1.0000 0.1280470561
H   H124      1.0  0.29530  0.04810  0.34990  1.0000 0.1280470561
H   H125      1.0  0.62620  0.08200  0.35930  1.0000 0.1280470561
H   H126      1.0  0.37380  0.58200  0.64070  1.0000 0.1280470561
H   H127      1.0  0.37380  0.41800  0.35930  1.0000 0.1280470561
H   H128      1.0  0.62620  0.91800  0.64070  1.0000 0.1280470561
H   H129      1.0  0.87930  0.91540  0.91520  1.0000 0.1206323593
H   H130      1.0  0.12070  0.41540  0.08480  1.0000 0.1206323593
H   H131      1.0  0.12070  0.58460  0.91520  1.0000 0.1206323593
H   H132      1.0  0.87930  0.08460  0.08480  1.0000 0.1206323593
H   H133      1.0  0.52640  0.14390  0.50390  1.0000 0.1280470561
H   H134      1.0  0.47360  0.64390  0.49610  1.0000 0.1280470561
H   H135      1.0  0.47360  0.35610  0.50390  1.0000 0.1280470561
H   H136      1.0  0.52640  0.85610  0.49610  1.0000 0.1280470561
H   H137      1.0  0.62200  0.23500  0.61160  1.0000 0.1206323593
H   H138      1.0  0.37800  0.73500  0.38840  1.0000 0.1206323593
H   H139      1.0  0.37800  0.26500  0.61160  1.0000 0.1206323593
H   H140      1.0  0.62200  0.76500  0.38840  1.0000 0.1206323593
H   H141      1.0  0.43050  0.12220  0.58260  1.0000 0.1139211144
H   H142      1.0  0.56950  0.62220  0.41740  1.0000 0.1139211144
H   H143      1.0  0.56950  0.37780  0.58260  1.0000 0.1139211144
H   H144      1.0  0.43050  0.87780  0.41740  1.0000 0.1139211144
C   C1        1.0  0.29710  0.99530  0.88077  1.0000 -0.033600035
C   C2        1.0  0.70290  0.49530  0.11923  1.0000 -0.033600035
C   C3        1.0  0.70290  0.50470  0.88077  1.0000 -0.033600035
C   C4        1.0  0.29710  0.00470  0.11923  1.0000 -0.033600035
C   C5        1.0  0.16510  0.99940  0.94618  1.0000 0.0698225402
C   C6        1.0  0.83490  0.49940  0.05382  1.0000 0.0698225402
C   C7        1.0  0.83490  0.50060  0.94618  1.0000 0.0698225402
C   C8        1.0  0.16510  0.00060  0.05382  1.0000 0.0698225402
C   C9        1.0  0.08865  0.99859  0.97598  1.0000 0.029222811
C   C10       1.0  0.91135  0.49859  0.02402  1.0000 0.029222811
C   C11       1.0  0.91135  0.50141  0.97598  1.0000 0.029222811
C   C12       1.0  0.08865  0.00141  0.02402  1.0000 0.029222811
C   C13       1.0  0.01060  0.99600  0.95254  1.0000 -0.1860303161
C   C14       1.0  0.98940  0.49600  0.04746  1.0000 -0.1860303161
C   C15       1.0  0.98940  0.50400  0.95254  1.0000 -0.1860303161
C   C16       1.0  0.01060  0.00400  0.04746  1.0000 -0.1860303161
C   C17       1.0  0.93370  0.99797  0.97538  1.0000 0.0352152745
C   C18       1.0  0.06630  0.49797  0.02462  1.0000 0.0352152745
C   C19       1.0  0.06630  0.50203  0.97538  1.0000 0.0352152745
C   C20       1.0  0.93370  0.00203  0.02462  1.0000 0.0352152745
C   C21       1.0  0.85460  0.99650  0.94721  1.0000 0.0698225402
C   C22       1.0  0.14540  0.49650  0.05279  1.0000 0.0698225402
C   C23       1.0  0.14540  0.50350  0.94721  1.0000 0.0698225402
C   C24       1.0  0.85460  0.00350  0.05279  1.0000 0.0698225402
C   C25       1.0  0.82210  0.00270  0.61326  1.0000 0.0090745008
C   C26       1.0  0.17790  0.50270  0.38674  1.0000 0.0090745008
C   C27       1.0  0.17790  0.49730  0.61326  1.0000 0.0090745008
C   C28       1.0  0.82210  0.99730  0.38674  1.0000 0.0090745008
C   C29       1.0  0.89650  0.00250  0.64586  1.0000 0.5514130454
C   C30       1.0  0.10350  0.50250  0.35414  1.0000 0.5514130454
C   C31       1.0  0.10350  0.49750  0.64586  1.0000 0.5514130454
C   C32       1.0  0.89650  0.99750  0.35414  1.0000 0.5514130454
C   C33       1.0  0.36390  0.99280  0.84487  1.0000 0.5786435764
C   C34       1.0  0.63610  0.49280  0.15513  1.0000 0.5786435764
C   C35       1.0  0.63610  0.50720  0.84487  1.0000 0.5786435764
C   C36       1.0  0.36390  0.00720  0.15513  1.0000 0.5786435764
C   C37       1.0  0.23200  0.95737  0.95202  1.0000 -0.1493850372
C   C38       1.0  0.76800  0.45737  0.04798  1.0000 -0.1493850372
C   C39       1.0  0.76800  0.54263  0.95202  1.0000 -0.1493850372
C   C40       1.0  0.23200  0.04263  0.04798  1.0000 -0.1493850372
C   C41       1.0  0.81500  0.95780  0.57869  1.0000 -0.090671861
C   C42       1.0  0.18500  0.45780  0.42131  1.0000 -0.090671861
C   C43       1.0  0.18500  0.54220  0.57869  1.0000 -0.090671861
C   C44       1.0  0.81500  0.04220  0.42131  1.0000 -0.090671861
C   C45       1.0  0.06560  0.93156  0.78687  1.0000 0.5940275053
C   C46       1.0  0.93440  0.43156  0.21313  1.0000 0.5940275053
C   C47       1.0  0.93440  0.56844  0.78687  1.0000 0.5940275053
C   C48       1.0  0.06560  0.06844  0.21313  1.0000 0.5940275053
C   C49       1.0  0.75920  0.04760  0.61809  1.0000 -0.0829580099
C   C50       1.0  0.24080  0.54760  0.38191  1.0000 -0.0829580099
C   C51       1.0  0.24080  0.45240  0.61809  1.0000 -0.0829580099
C   C52       1.0  0.75920  0.95240  0.38191  1.0000 -0.0829580099
C   C53       1.0  0.23240  0.03887  0.87713  1.0000 -0.0967051004
C   C54       1.0  0.76760  0.53887  0.12287  1.0000 -0.0967051004
C   C55       1.0  0.76760  0.46113  0.87713  1.0000 -0.0967051004
C   C56       1.0  0.23240  0.96113  0.12287  1.0000 -0.0967051004
C   C57       1.0  0.16870  0.04060  0.90917  1.0000 -0.1325110485
C   C58       1.0  0.83130  0.54060  0.09083  1.0000 -0.1325110485
C   C59       1.0  0.83130  0.45940  0.90917  1.0000 -0.1325110485
C   C60       1.0  0.16870  0.95940  0.09083  1.0000 -0.1325110485
C   C61       1.0  0.05040  0.88970  0.82901  1.0000 -0.0201763163
C   C62       1.0  0.94960  0.38970  0.17099  1.0000 -0.0201763163
C   C63       1.0  0.94960  0.61030  0.82901  1.0000 -0.0201763163
C   C64       1.0  0.05040  0.11030  0.17099  1.0000 -0.0201763163
C   C65       1.0  0.29710  0.95500  0.91980  1.0000 -0.090671861
C   C66       1.0  0.70290  0.45500  0.08020  1.0000 -0.090671861
C   C67       1.0  0.70290  0.54500  0.91980  1.0000 -0.090671861
C   C68       1.0  0.29710  0.04500  0.08020  1.0000 -0.090671861
C   C69       1.0  0.74620  0.95900  0.54850  1.0000 -0.1570347885
C   C70       1.0  0.25380  0.45900  0.45150  1.0000 -0.1570347885
C   C71       1.0  0.25380  0.54100  0.54850  1.0000 -0.1570347885
C   C72       1.0  0.74620  0.04100  0.45150  1.0000 -0.1570347885
C   C73       1.0  0.45020  0.00248  0.52416  1.0000 0.029222811
C   C74       1.0  0.54980  0.50248  0.47584  1.0000 0.029222811
C   C75       1.0  0.54980  0.49752  0.52416  1.0000 0.029222811
C   C76       1.0  0.45020  0.99752  0.47584  1.0000 0.029222811
C   C77       1.0  0.52703  0.00357  0.54785  1.0000 -0.1810492217
C   C78       1.0  0.47297  0.50357  0.45215  1.0000 -0.1810492217
C   C79       1.0  0.47297  0.49643  0.54785  1.0000 -0.1810492217
C   C80       1.0  0.52703  0.99643  0.45215  1.0000 -0.1810492217
C   C81       1.0  0.60470  0.00199  0.52448  1.0000 0.029222811
C   C82       1.0  0.39530  0.50199  0.47552  1.0000 0.029222811
C   C83       1.0  0.39530  0.49801  0.52448  1.0000 0.029222811
C   C84       1.0  0.60470  0.99801  0.47552  1.0000 0.029222811
C   C85       1.0  0.68230  0.00240  0.55300  1.0000 0.0611849347
C   C86       1.0  0.31770  0.50240  0.44700  1.0000 0.0611849347
C   C87       1.0  0.31770  0.49760  0.55300  1.0000 0.0611849347
C   C88       1.0  0.68230  0.99760  0.44700  1.0000 0.0611849347
C   C89       1.0  0.51970  0.11650  0.33147  1.0000 -0.004100111
C   C90       1.0  0.48030  0.61650  0.66853  1.0000 -0.004100111
C   C91       1.0  0.48030  0.38350  0.33147  1.0000 -0.004100111
C   C92       1.0  0.51970  0.88350  0.66853  1.0000 -0.004100111
C   C93       1.0  0.52600  0.08060  0.28598  1.0000 0.5423642258
C   C94       1.0  0.47400  0.58060  0.71402  1.0000 0.5423642258
C   C95       1.0  0.47400  0.41940  0.28598  1.0000 0.5423642258
C   C96       1.0  0.52600  0.91940  0.71402  1.0000 0.5423642258
C   C97       1.0  0.63870  0.99560  0.85679  1.0000 0.5423642258
C   C98       1.0  0.36130  0.49560  0.14321  1.0000 0.5423642258
C   C99       1.0  0.36130  0.50440  0.85679  1.0000 0.5423642258
C   C100      1.0  0.63870  0.00440  0.14321  1.0000 0.5423642258
C   C101      1.0  0.69040  0.04710  0.58874  1.0000 -0.1401812707
C   C102      1.0  0.30960  0.54710  0.41126  1.0000 -0.1401812707
C   C103      1.0  0.30960  0.45290  0.58874  1.0000 -0.1401812707
C   C104      1.0  0.69040  0.95290  0.41126  1.0000 -0.1401812707
C   C105      1.0  0.02340  0.81803  0.90901  1.0000 0.0698225402
C   C106      1.0  0.97660  0.31803  0.09099  1.0000 0.0698225402
C   C107      1.0  0.97660  0.68197  0.90901  1.0000 0.0698225402
C   C108      1.0  0.02340  0.18197  0.09099  1.0000 0.0698225402
C   C109      1.0  0.37230  0.00623  0.55310  1.0000 0.0781144585
C   C110      1.0  0.62770  0.50623  0.44690  1.0000 0.0781144585
C   C111      1.0  0.62770  0.49377  0.55310  1.0000 0.0781144585
C   C112      1.0  0.37230  0.99377  0.44690  1.0000 0.0781144585
C   C113      1.0  0.02910  0.81317  0.08336  1.0000 0.0698225402
C   C114      1.0  0.97090  0.31317  0.91664  1.0000 0.0698225402
C   C115      1.0  0.97090  0.68683  0.08336  1.0000 0.0698225402
C   C116      1.0  0.02910  0.18683  0.91664  1.0000 0.0698225402
C   C117      1.0  0.50940  0.18150  0.41558  1.0000 0.0611849347
C   C118      1.0  0.49060  0.68150  0.58442  1.0000 0.0611849347
C   C119      1.0  0.49060  0.31850  0.41558  1.0000 0.0611849347
C   C120      1.0  0.50940  0.81850  0.58442  1.0000 0.0611849347
C   C121      1.0  0.50720  0.21743  0.46063  1.0000 0.029222811
C   C122      1.0  0.49280  0.71743  0.53937  1.0000 0.029222811
C   C123      1.0  0.49280  0.28257  0.46063  1.0000 0.029222811
C   C124      1.0  0.50720  0.78257  0.53937  1.0000 0.029222811
C   C125      1.0  0.01050  0.78218  0.95313  1.0000 0.029222811
C   C126      1.0  0.98950  0.28218  0.04687  1.0000 0.029222811
C   C127      1.0  0.98950  0.71782  0.95313  1.0000 0.029222811
C   C128      1.0  0.01050  0.21782  0.04687  1.0000 0.029222811
C   C129      1.0  0.01270  0.78151  0.03752  1.0000 0.029222811
C   C130      1.0  0.98730  0.28151  0.96248  1.0000 0.029222811
C   C131      1.0  0.98730  0.71849  0.03752  1.0000 0.029222811
C   C132      1.0  0.01270  0.21849  0.96248  1.0000 0.029222811
C   C133      1.0  0.02130  0.81250  0.99523  1.0000 -0.1810492217
C   C134      1.0  0.97870  0.31250  0.00477  1.0000 -0.1810492217
C   C135      1.0  0.97870  0.68750  0.99523  1.0000 -0.1810492217
C   C136      1.0  0.02130  0.18750  0.00477  1.0000 -0.1810492217
C   C137      1.0  0.23990  0.05520  0.57331  1.0000 -0.0829580099
C   C138      1.0  0.76010  0.55520  0.42669  1.0000 -0.0829580099
C   C139      1.0  0.76010  0.44480  0.57331  1.0000 -0.0829580099
C   C140      1.0  0.23990  0.94480  0.42669  1.0000 -0.0829580099
C   C141      1.0  0.71090  0.99600  0.89027  1.0000 -0.0062486153
C   C142      1.0  0.28910  0.49600  0.10973  1.0000 -0.0062486153
C   C143      1.0  0.28910  0.50400  0.89027  1.0000 -0.0062486153
C   C144      1.0  0.71090  0.00400  0.10973  1.0000 -0.0062486153
C   C145      1.0  0.54380  0.12454  0.67683  1.0000 -0.0201763163
C   C146      1.0  0.45620  0.62454  0.32317  1.0000 -0.0201763163
C   C147      1.0  0.45620  0.37546  0.67683  1.0000 -0.0201763163
C   C148      1.0  0.54380  0.87546  0.32317  1.0000 -0.0201763163
C   C149      1.0  0.23570  0.01920  0.61375  1.0000 -0.0201763163
C   C150      1.0  0.76430  0.51920  0.38625  1.0000 -0.0201763163
C   C151      1.0  0.76430  0.48080  0.61375  1.0000 -0.0201763163
C   C152      1.0  0.23570  0.98080  0.38625  1.0000 -0.0201763163
C   C153      1.0  0.48170  0.10584  0.64649  1.0000 -0.090671861
C   C154      1.0  0.51830  0.60584  0.35351  1.0000 -0.090671861
C   C155      1.0  0.51830  0.39416  0.64649  1.0000 -0.090671861
C   C156      1.0  0.48170  0.89416  0.35351  1.0000 -0.090671861
C   C157      1.0  0.97560  0.85910  0.10140  1.0000 -0.1401812707
C   C158      1.0  0.02440  0.35910  0.89860  1.0000 -0.1401812707
C   C159      1.0  0.02440  0.64090  0.10140  1.0000 -0.1401812707
C   C160      1.0  0.97560  0.14090  0.89860  1.0000 -0.1401812707
C   C161      1.0  0.96360  0.81970  0.87353  1.0000 -0.1493850372
C   C162      1.0  0.03640  0.31970  0.12647  1.0000 -0.1493850372
C   C163      1.0  0.03640  0.68030  0.87353  1.0000 -0.1493850372
C   C164      1.0  0.96360  0.18030  0.12647  1.0000 -0.1493850372
C   C165      1.0  0.44800  0.18716  0.38268  1.0000 -0.1493850372
C   C166      1.0  0.55200  0.68716  0.61732  1.0000 -0.1493850372
C   C167      1.0  0.55200  0.31284  0.38268  1.0000 -0.1493850372
C   C168      1.0  0.44800  0.81284  0.61732  1.0000 -0.1493850372
C   C169      1.0  0.30810  0.04910  0.54266  1.0000 -0.1570347885
C   C170      1.0  0.69190  0.54910  0.45734  1.0000 -0.1570347885
C   C171      1.0  0.69190  0.45090  0.54266  1.0000 -0.1570347885
C   C172      1.0  0.30810  0.95090  0.45734  1.0000 -0.1570347885
C   C173      1.0  0.97570  0.85610  0.83408  1.0000 -0.090671861
C   C174      1.0  0.02430  0.35610  0.16592  1.0000 -0.090671861
C   C175      1.0  0.02430  0.64390  0.83408  1.0000 -0.090671861
C   C176      1.0  0.97570  0.14390  0.16592  1.0000 -0.090671861
C   C177      1.0  0.79470  0.04480  0.95105  1.0000 -0.1570347885
C   C178      1.0  0.20530  0.54480  0.04895  1.0000 -0.1570347885
C   C179      1.0  0.20530  0.45520  0.95105  1.0000 -0.1570347885
C   C180      1.0  0.79470  0.95520  0.04895  1.0000 -0.1570347885
C   C181      1.0  0.59810  0.17310  0.66356  1.0000 -0.0829580099
C   C182      1.0  0.40190  0.67310  0.33644  1.0000 -0.0829580099
C   C183      1.0  0.40190  0.32690  0.66356  1.0000 -0.0829580099
C   C184      1.0  0.59810  0.82690  0.33644  1.0000 -0.0829580099
C   C185      1.0  0.09900  0.79550  0.11004  1.0000 -0.1401812707
C   C186      1.0  0.90100  0.29550  0.88996  1.0000 -0.1401812707
C   C187      1.0  0.90100  0.70450  0.11004  1.0000 -0.1401812707
C   C188      1.0  0.09900  0.20450  0.88996  1.0000 -0.1401812707
C   C189      1.0  0.99180  0.88520  0.14537  1.0000 -0.0967051004
C   C190      1.0  0.00820  0.38520  0.85463  1.0000 -0.0967051004
C   C191      1.0  0.00820  0.61480  0.14537  1.0000 -0.0967051004
C   C192      1.0  0.99180  0.11480  0.85463  1.0000 -0.0967051004
C   C193      1.0  0.36590  0.96920  0.59261  1.0000 -0.1401812707
C   C194      1.0  0.63410  0.46920  0.40739  1.0000 -0.1401812707
C   C195      1.0  0.63410  0.53080  0.59261  1.0000 -0.1401812707
C   C196      1.0  0.36590  0.03080  0.40739  1.0000 -0.1401812707
C   C197      1.0  0.55420  0.09460  0.72345  1.0000 0.5571788262
C   C198      1.0  0.44580  0.59460  0.27655  1.0000 0.5571788262
C   C199      1.0  0.44580  0.40540  0.72345  1.0000 0.5571788262
C   C200      1.0  0.55420  0.90540  0.27655  1.0000 0.5571788262
C   C201      1.0  0.06180  0.86800  0.17034  1.0000 -0.0201763163
C   C202      1.0  0.93820  0.36800  0.82966  1.0000 -0.0201763163
C   C203      1.0  0.93820  0.63200  0.17034  1.0000 -0.0201763163
C   C204      1.0  0.06180  0.13200  0.82966  1.0000 -0.0201763163
C   C205      1.0  0.45210  0.15549  0.34074  1.0000 -0.090671861
C   C206      1.0  0.54790  0.65549  0.65926  1.0000 -0.090671861
C   C207      1.0  0.54790  0.34451  0.34074  1.0000 -0.090671861
C   C208      1.0  0.45210  0.84451  0.65926  1.0000 -0.090671861
C   C209      1.0  0.57850  0.14210  0.40643  1.0000 -0.1493850372
C   C210      1.0  0.42150  0.64210  0.59357  1.0000 -0.1493850372
C   C211      1.0  0.42150  0.35790  0.40643  1.0000 -0.1493850372
C   C212      1.0  0.57850  0.85790  0.59357  1.0000 -0.1493850372
C   C213      1.0  0.11530  0.82320  0.15229  1.0000 -0.090671861
C   C214      1.0  0.88470  0.32320  0.84771  1.0000 -0.090671861
C   C215      1.0  0.88470  0.67680  0.15229  1.0000 -0.090671861
C   C216      1.0  0.11530  0.17680  0.84771  1.0000 -0.090671861
C   C217      1.0  0.08140  0.89880  0.21653  1.0000 0.5957123498
C   C218      1.0  0.91860  0.39880  0.78347  1.0000 0.5957123498
C   C219      1.0  0.91860  0.60120  0.21653  1.0000 0.5957123498
C   C220      1.0  0.08140  0.10120  0.78347  1.0000 0.5957123498
C   C221      1.0  0.72380  0.04380  0.92155  1.0000 -0.0829580099
C   C222      1.0  0.27620  0.54380  0.07845  1.0000 -0.0829580099
C   C223      1.0  0.27620  0.45620  0.92155  1.0000 -0.0829580099
C   C224      1.0  0.72380  0.95620  0.07845  1.0000 -0.0829580099
C   C225      1.0  0.77000  0.94740  0.88875  1.0000 -0.0829580099
C   C226      1.0  0.23000  0.44740  0.11125  1.0000 -0.0829580099
C   C227      1.0  0.23000  0.55260  0.88875  1.0000 -0.0829580099
C   C228      1.0  0.77000  0.05260  0.11125  1.0000 -0.0829580099
C   C229      1.0  0.10930  0.88730  0.86349  1.0000 -0.0829580099
C   C230      1.0  0.89070  0.38730  0.13651  1.0000 -0.0829580099
C   C231      1.0  0.89070  0.61270  0.86349  1.0000 -0.0829580099
C   C232      1.0  0.10930  0.11270  0.13651  1.0000 -0.0829580099
C   C233      1.0  0.09730  0.85250  0.90294  1.0000 -0.1401812707
C   C234      1.0  0.90270  0.35250  0.09706  1.0000 -0.1401812707
C   C235      1.0  0.90270  0.64750  0.90294  1.0000 -0.1401812707
C   C236      1.0  0.09730  0.14750  0.09706  1.0000 -0.1401812707
C   C237      1.0  0.29820  0.97620  0.62327  1.0000 -0.090671861
C   C238      1.0  0.70180  0.47620  0.37673  1.0000 -0.090671861
C   C239      1.0  0.70180  0.52380  0.62327  1.0000 -0.090671861
C   C240      1.0  0.29820  0.02380  0.37673  1.0000 -0.090671861
C   C241      1.0  0.16300  0.02660  0.64594  1.0000 0.5786435764
C   C242      1.0  0.83700  0.52660  0.35406  1.0000 0.5786435764
C   C243      1.0  0.83700  0.47340  0.64594  1.0000 0.5786435764
C   C244      1.0  0.16300  0.97340  0.35406  1.0000 0.5786435764
C   C245      1.0  0.58170  0.10930  0.36485  1.0000 -0.090671861
C   C246      1.0  0.41830  0.60930  0.63515  1.0000 -0.090671861
C   C247      1.0  0.41830  0.39070  0.36485  1.0000 -0.090671861
C   C248      1.0  0.58170  0.89070  0.63515  1.0000 -0.090671861
C   C249      1.0  0.84070  0.94810  0.91687  1.0000 -0.1493850372
C   C250      1.0  0.15930  0.44810  0.08313  1.0000 -0.1493850372
C   C251      1.0  0.15930  0.55190  0.91687  1.0000 -0.1493850372
C   C252      1.0  0.84070  0.05190  0.08313  1.0000 -0.1493850372
C   C253      1.0  0.51590  0.18660  0.50356  1.0000 -0.1810492217
C   C254      1.0  0.48410  0.68660  0.49644  1.0000 -0.1810492217
C   C255      1.0  0.48410  0.31340  0.50356  1.0000 -0.1810492217
C   C256      1.0  0.51590  0.81340  0.49644  1.0000 -0.1810492217
C   C257      1.0  0.50920  0.21831  0.54546  1.0000 0.029222811
C   C258      1.0  0.49080  0.71831  0.45454  1.0000 0.029222811
C   C259      1.0  0.49080  0.28169  0.54546  1.0000 0.029222811
C   C260      1.0  0.50920  0.78169  0.45454  1.0000 0.029222811
C   C261      1.0  0.52400  0.18417  0.58985  1.0000 0.0611849347
C   C262      1.0  0.47600  0.68417  0.41015  1.0000 0.0611849347
C   C263      1.0  0.47600  0.31583  0.58985  1.0000 0.0611849347
C   C264      1.0  0.52400  0.81583  0.41015  1.0000 0.0611849347
C   C265      1.0  0.58640  0.20240  0.62006  1.0000 -0.1493850372
C   C266      1.0  0.41360  0.70240  0.37994  1.0000 -0.1493850372
C   C267      1.0  0.41360  0.29760  0.62006  1.0000 -0.1493850372
C   C268      1.0  0.58640  0.79760  0.37994  1.0000 -0.1493850372
C   C269      1.0  0.47240  0.13560  0.60292  1.0000 -0.1493850372
C   C270      1.0  0.52760  0.63560  0.39708  1.0000 -0.1493850372
C   C271      1.0  0.52760  0.36440  0.60292  1.0000 -0.1493850372
C   C272      1.0  0.47240  0.86440  0.39708  1.0000 -0.1493850372
O   O1        1.0  0.95005  0.96030  0.64314  1.0000 -0.5131712546
O   O2        1.0  0.04995  0.46030  0.35686  1.0000 -0.5131712546
O   O3        1.0  0.04995  0.53970  0.64314  1.0000 -0.5131712546
O   O4        1.0  0.95005  0.03970  0.35686  1.0000 -0.5131712546
O   O5        1.0  0.00940  0.93186  0.75533  1.0000 -0.5304019515
O   O6        1.0  0.99060  0.43186  0.24467  1.0000 -0.5304019515
O   O7        1.0  0.99060  0.56814  0.75533  1.0000 -0.5304019515
O   O8        1.0  0.00940  0.06814  0.24467  1.0000 -0.5304019515
O   O9        1.0  0.43140  0.96404  0.85372  1.0000 -0.4897518339
O   O10       1.0  0.56860  0.46404  0.14628  1.0000 -0.4897518339
O   O11       1.0  0.56860  0.53596  0.85372  1.0000 -0.4897518339
O   O12       1.0  0.43140  0.03596  0.14628  1.0000 -0.4897518339
O   O13       1.0  0.90170  0.04631  0.67610  1.0000 -0.5187627514
O   O14       1.0  0.09830  0.54631  0.32390  1.0000 -0.5187627514
O   O15       1.0  0.09830  0.45369  0.67610  1.0000 -0.5187627514
O   O16       1.0  0.90170  0.95369  0.32390  1.0000 -0.5187627514
O   O17       1.0  0.35104  0.01845  0.80564  1.0000 -0.5904259672
O   O18       1.0  0.64896  0.51845  0.19436  1.0000 -0.5904259672
O   O19       1.0  0.64896  0.48155  0.80564  1.0000 -0.5904259672
O   O20       1.0  0.35104  0.98155  0.19436  1.0000 -0.5904259672
O   O21       1.0  0.13170  0.96243  0.78785  1.0000 -0.5733763268
O   O22       1.0  0.86830  0.46243  0.21215  1.0000 -0.5733763268
O   O23       1.0  0.86830  0.53757  0.78785  1.0000 -0.5733763268
O   O24       1.0  0.13170  0.03757  0.21215  1.0000 -0.5733763268
O   O25       1.0  0.16375  0.99240  0.68316  1.0000 -0.619457065
O   O26       1.0  0.83625  0.49240  0.31684  1.0000 -0.619457065
O   O27       1.0  0.83625  0.50760  0.68316  1.0000 -0.619457065
O   O28       1.0  0.16375  0.00760  0.31684  1.0000 -0.619457065
O   O29       1.0  0.48845  0.06916  0.74029  1.0000 -0.5528938983
O   O30       1.0  0.51155  0.56916  0.25971  1.0000 -0.5528938983
O   O31       1.0  0.51155  0.43084  0.74029  1.0000 -0.5528938983
O   O32       1.0  0.48845  0.93084  0.25971  1.0000 -0.5528938983
O   O33       1.0  0.46570  0.08556  0.25683  1.0000 -0.5425984849
O   O34       1.0  0.53430  0.58556  0.74317  1.0000 -0.5425984849
O   O35       1.0  0.53430  0.41444  0.25683  1.0000 -0.5425984849
O   O36       1.0  0.46570  0.91444  0.74317  1.0000 -0.5425984849
O   O37       1.0  0.01900  0.92100  0.23826  1.0000 -0.5304019515
O   O38       1.0  0.98100  0.42100  0.76174  1.0000 -0.5304019515
O   O39       1.0  0.98100  0.57900  0.23826  1.0000 -0.5304019515
O   O40       1.0  0.01900  0.07900  0.76174  1.0000 -0.5304019515
O   O41       1.0  0.15520  0.90090  0.22973  1.0000 -0.5528938983
O   O42       1.0  0.84480  0.40090  0.77027  1.0000 -0.5528938983
O   O43       1.0  0.84480  0.59910  0.22973  1.0000 -0.5528938983
O   O44       1.0  0.15520  0.09910  0.77027  1.0000 -0.5528938983
O   O45       1.0  0.62440  0.94940  0.83375  1.0000 -0.4527039518
O   O46       1.0  0.37560  0.44940  0.16625  1.0000 -0.4527039518
O   O47       1.0  0.37560  0.55060  0.83375  1.0000 -0.4527039518
O   O48       1.0  0.62440  0.05060  0.16625  1.0000 -0.4527039518
O   O49       1.0  0.10380  0.06263  0.63662  1.0000 -0.4897518339
O   O50       1.0  0.89620  0.56263  0.36338  1.0000 -0.4897518339
O   O51       1.0  0.89620  0.43737  0.63662  1.0000 -0.4897518339
O   O52       1.0  0.10380  0.93737  0.36338  1.0000 -0.4845970114
O   O53       1.0  0.59360  0.04440  0.85410  1.0000 -0.4706680764
O   O54       1.0  0.40640  0.54440  0.14590  1.0000 -0.4706680764
O   O55       1.0  0.40640  0.45560  0.85410  1.0000 -0.4706680764
O   O56       1.0  0.59360  0.95560  0.14590  1.0000 -0.4706680764
O   O57       1.0  0.62315  0.09592  0.74385  1.0000 -0.4604071592
O   O58       1.0  0.37685  0.59592  0.25615  1.0000 -0.4604071592
O   O59       1.0  0.37685  0.40408  0.74385  1.0000 -0.4604071592
O   O60       1.0  0.62315  0.90408  0.25615  1.0000 -0.4604071592
O   O61       1.0  0.58640  0.04732  0.27894  1.0000 -0.4706680764
O   O62       1.0  0.41360  0.54732  0.72106  1.0000 -0.4706680764
O   O63       1.0  0.41360  0.45268  0.27894  1.0000 -0.4706680764
O   O64       1.0  0.58640  0.95268  0.72106  1.0000 -0.4706680764
