# DDEC6 charges by PACMAN v1.1 (https://github.com/mtap-research/PACMAN-charge/)
data_2015[Cu][qtz]3[ASR]1
_chemical_formula_sum              "Cu6 H96 C120 N36 O24"
_cell_length_a       11.3128
_cell_length_b       11.3128
_cell_length_c       34.111
_cell_angle_alpha    90
_cell_angle_beta     90
_cell_angle_gamma    120

_symmetry_space_group_name_H-M    "P 1"
_symmetry_Int_Tables_number       1

loop_
  _symmetry_equiv_pos_as_xyz
  'x, y, z'

loop_
  _atom_site_type_symbol
  _atom_site_label
  _atom_site_symmetry_multiplicity
  _atom_site_fract_x
  _atom_site_fract_y
  _atom_site_fract_z
  _atom_site_occupancy
  _atom_site_charge
Cu  Cu1       1.0  0.55853  0.44147  0.91667  1.0000 0.7426871976
Cu  Cu2       1.0  0.11706  0.55853  0.08333  1.0000 0.7426871976
Cu  Cu3       1.0  0.55853  0.11706  0.25000  1.0000 0.7426871976
Cu  Cu4       1.0  0.44147  0.55853  0.41667  1.0000 0.7426871976
Cu  Cu5       1.0  0.88294  0.44147  0.58333  1.0000 0.7426871976
Cu  Cu6       1.0  0.44147  0.88294  0.75000  1.0000 0.7426871976
H   H1        1.0  0.87380  0.26040  0.83950  1.0000 0.2881081969
H   H2        1.0  0.61340  0.87380  0.00617  1.0000 0.2881081969
H   H3        1.0  0.73960  0.61340  0.17283  1.0000 0.2881081969
H   H4        1.0  0.12620  0.73960  0.33950  1.0000 0.2881081969
H   H5        1.0  0.38660  0.12620  0.50617  1.0000 0.2881081969
H   H6        1.0  0.26040  0.38660  0.67283  1.0000 0.2881081969
H   H7        1.0  0.73960  0.12620  0.99383  1.0000 0.2881081969
H   H8        1.0  0.61340  0.73960  0.16050  1.0000 0.2881081969
H   H9        1.0  0.87380  0.61340  0.32717  1.0000 0.2881081969
H   H10       1.0  0.26040  0.87380  0.49383  1.0000 0.2881081969
H   H11       1.0  0.38660  0.26040  0.66050  1.0000 0.2881081969
H   H12       1.0  0.12620  0.38660  0.82717  1.0000 0.2881081969
H   H13       1.0  0.77340  0.15320  0.81270  1.0000 0.3307796141
H   H14       1.0  0.62020  0.77340  0.97937  1.0000 0.3307796141
H   H15       1.0  0.84680  0.62020  0.14603  1.0000 0.3307796141
H   H16       1.0  0.22660  0.84680  0.31270  1.0000 0.3307796141
H   H17       1.0  0.37980  0.22660  0.47937  1.0000 0.3307796141
H   H18       1.0  0.15320  0.37980  0.64603  1.0000 0.3307796141
H   H19       1.0  0.84680  0.22660  0.02063  1.0000 0.3307796141
H   H20       1.0  0.62020  0.84680  0.18730  1.0000 0.3307796141
H   H21       1.0  0.77340  0.62020  0.35397  1.0000 0.3307796141
H   H22       1.0  0.15320  0.77340  0.52063  1.0000 0.3307796141
H   H23       1.0  0.37980  0.15320  0.68730  1.0000 0.3307796141
H   H24       1.0  0.22660  0.37980  0.85397  1.0000 0.3307796141
H   H25       1.0  0.42330  0.24600  0.84860  1.0000 0.1282722399
H   H26       1.0  0.17730  0.42330  0.01527  1.0000 0.1282722399
H   H27       1.0  0.75400  0.17730  0.18193  1.0000 0.1282722399
H   H28       1.0  0.57670  0.75400  0.34860  1.0000 0.1282722399
H   H29       1.0  0.82270  0.57670  0.51527  1.0000 0.1282722399
H   H30       1.0  0.24600  0.82270  0.68193  1.0000 0.1282722399
H   H31       1.0  0.75400  0.57670  0.98473  1.0000 0.1282722399
H   H32       1.0  0.17730  0.75400  0.15140  1.0000 0.1282722399
H   H33       1.0  0.42330  0.17730  0.31807  1.0000 0.1282722399
H   H34       1.0  0.24600  0.42330  0.48473  1.0000 0.1282722399
H   H35       1.0  0.82270  0.24600  0.65140  1.0000 0.1282722399
H   H36       1.0  0.57670  0.82270  0.81807  1.0000 0.1282722399
H   H37       1.0  0.09670  0.45000  0.93650  1.0000 0.1181212802
H   H38       1.0  0.64670  0.09670  0.10317  1.0000 0.1181212802
H   H39       1.0  0.55000  0.64670  0.26983  1.0000 0.1181212802
H   H40       1.0  0.90330  0.55000  0.43650  1.0000 0.1181212802
H   H41       1.0  0.35330  0.90330  0.60317  1.0000 0.1181212802
H   H42       1.0  0.45000  0.35330  0.76983  1.0000 0.1181212802
H   H43       1.0  0.55000  0.90330  0.89683  1.0000 0.1181212802
H   H44       1.0  0.64670  0.55000  0.06350  1.0000 0.1181212802
H   H45       1.0  0.09670  0.64670  0.23017  1.0000 0.1181212802
H   H46       1.0  0.45000  0.09670  0.39683  1.0000 0.1181212802
H   H47       1.0  0.35330  0.45000  0.56350  1.0000 0.1181212802
H   H48       1.0  0.90330  0.35330  0.73017  1.0000 0.1181212802
H   H49       1.0  0.89800  0.29800  0.90410  1.0000 0.1181212802
H   H50       1.0  0.60000  0.89800  0.07077  1.0000 0.1181212802
H   H51       1.0  0.70200  0.60000  0.23743  1.0000 0.1181212802
H   H52       1.0  0.10200  0.70200  0.40410  1.0000 0.1181212802
H   H53       1.0  0.40000  0.10200  0.57077  1.0000 0.1181212802
H   H54       1.0  0.29800  0.40000  0.73743  1.0000 0.1181212802
H   H55       1.0  0.70200  0.10200  0.92923  1.0000 0.1181212802
H   H56       1.0  0.60000  0.70200  0.09590  1.0000 0.1181212802
H   H57       1.0  0.89800  0.60000  0.26257  1.0000 0.1181212802
H   H58       1.0  0.29800  0.89800  0.42923  1.0000 0.1181212802
H   H59       1.0  0.40000  0.29800  0.59590  1.0000 0.1181212802
H   H60       1.0  0.10200  0.40000  0.76257  1.0000 0.1181212802
H   H61       1.0  0.15850  0.67550  0.94090  1.0000 0.1132689585
H   H62       1.0  0.48300  0.15850  0.10757  1.0000 0.1132689585
H   H63       1.0  0.32450  0.48300  0.27423  1.0000 0.1132689585
H   H64       1.0  0.84150  0.32450  0.44090  1.0000 0.1132689585
H   H65       1.0  0.51700  0.84150  0.60757  1.0000 0.1132689585
H   H66       1.0  0.67550  0.51700  0.77423  1.0000 0.1132689585
H   H67       1.0  0.32450  0.84150  0.89243  1.0000 0.1132689585
H   H68       1.0  0.48300  0.32450  0.05910  1.0000 0.1132689585
H   H69       1.0  0.15850  0.48300  0.22577  1.0000 0.1132689585
H   H70       1.0  0.67550  0.15850  0.39243  1.0000 0.1132689585
H   H71       1.0  0.51700  0.67550  0.55910  1.0000 0.1132689585
H   H72       1.0  0.84150  0.51700  0.72577  1.0000 0.1132689585
H   H73       1.0  0.03330  0.75540  0.90910  1.0000 0.1132689585
H   H74       1.0  0.27790  0.03330  0.07577  1.0000 0.1132689585
H   H75       1.0  0.24460  0.27790  0.24243  1.0000 0.1132689585
H   H76       1.0  0.96670  0.24460  0.40910  1.0000 0.1132689585
H   H77       1.0  0.72210  0.96670  0.57577  1.0000 0.1132689585
H   H78       1.0  0.75540  0.72210  0.74243  1.0000 0.1132689585
H   H79       1.0  0.24460  0.96670  0.92423  1.0000 0.1132689585
H   H80       1.0  0.27790  0.24460  0.09090  1.0000 0.1132689585
H   H81       1.0  0.03330  0.27790  0.25757  1.0000 0.1132689585
H   H82       1.0  0.75540  0.03330  0.42423  1.0000 0.1132689585
H   H83       1.0  0.72210  0.75540  0.59090  1.0000 0.1132689585
H   H84       1.0  0.96670  0.72210  0.75757  1.0000 0.1132689585
H   H85       1.0  0.83720  0.60700  0.87470  1.0000 0.1402533224
H   H86       1.0  0.23020  0.83720  0.04137  1.0000 0.1402533224
H   H87       1.0  0.39300  0.23020  0.20803  1.0000 0.1402533224
H   H88       1.0  0.16280  0.39300  0.37470  1.0000 0.1402533224
H   H89       1.0  0.76980  0.16280  0.54137  1.0000 0.1402533224
H   H90       1.0  0.60700  0.76980  0.70803  1.0000 0.1402533224
H   H91       1.0  0.39300  0.16280  0.95863  1.0000 0.1402533224
H   H92       1.0  0.23020  0.39300  0.12530  1.0000 0.1402533224
H   H93       1.0  0.83720  0.23020  0.29197  1.0000 0.1402533224
H   H94       1.0  0.60700  0.83720  0.45863  1.0000 0.1402533224
H   H95       1.0  0.76980  0.60700  0.62530  1.0000 0.1402533224
H   H96       1.0  0.16280  0.76980  0.79197  1.0000 0.1402533224
C   C1        1.0  0.84750  0.43770  0.88702  1.0000 0.1467410098
C   C2        1.0  0.40980  0.84750  0.05369  1.0000 0.1467410098
C   C3        1.0  0.56230  0.40980  0.22035  1.0000 0.1467410098
C   C4        1.0  0.15250  0.56230  0.38702  1.0000 0.1467410098
C   C5        1.0  0.59020  0.15250  0.55369  1.0000 0.1467410098
C   C6        1.0  0.43770  0.59020  0.72035  1.0000 0.1467410098
C   C7        1.0  0.56230  0.15250  0.94631  1.0000 0.1467410098
C   C8        1.0  0.40980  0.56230  0.11298  1.0000 0.1467410098
C   C9        1.0  0.84750  0.40980  0.27965  1.0000 0.1467410098
C   C10       1.0  0.43770  0.84750  0.44631  1.0000 0.1467410098
C   C11       1.0  0.59020  0.43770  0.61298  1.0000 0.1467410098
C   C12       1.0  0.15250  0.59020  0.77965  1.0000 0.1467410098
C   C13       1.0  0.51210  0.26180  0.85061  1.0000 0.020173348
C   C14       1.0  0.25030  0.51210  0.01728  1.0000 0.020173348
C   C15       1.0  0.73820  0.25030  0.18394  1.0000 0.020173348
C   C16       1.0  0.48790  0.73820  0.35061  1.0000 0.020173348
C   C17       1.0  0.74970  0.48790  0.51728  1.0000 0.020173348
C   C18       1.0  0.26180  0.74970  0.68394  1.0000 0.020173348
C   C19       1.0  0.73820  0.48790  0.98272  1.0000 0.020173348
C   C20       1.0  0.25030  0.73820  0.14939  1.0000 0.020173348
C   C21       1.0  0.51210  0.25030  0.31606  1.0000 0.020173348
C   C22       1.0  0.26180  0.51210  0.48272  1.0000 0.020173348
C   C23       1.0  0.74970  0.26180  0.64939  1.0000 0.020173348
C   C24       1.0  0.48790  0.74970  0.81606  1.0000 0.020173348
C   C25       1.0  0.69710  0.24570  0.84135  1.0000 0.3061623147
C   C26       1.0  0.45140  0.69710  0.00802  1.0000 0.3061623147
C   C27       1.0  0.75430  0.45140  0.17468  1.0000 0.3061623147
C   C28       1.0  0.30290  0.75430  0.34135  1.0000 0.3061623147
C   C29       1.0  0.54860  0.30290  0.50802  1.0000 0.3061623147
C   C30       1.0  0.24570  0.54860  0.67468  1.0000 0.3061623147
C   C31       1.0  0.75430  0.30290  0.99198  1.0000 0.3061623147
C   C32       1.0  0.45140  0.75430  0.15865  1.0000 0.3061623147
C   C33       1.0  0.69710  0.45140  0.32532  1.0000 0.3061623147
C   C34       1.0  0.24570  0.69710  0.49198  1.0000 0.3061623147
C   C35       1.0  0.54860  0.24570  0.65865  1.0000 0.3061623147
C   C36       1.0  0.30290  0.54860  0.82532  1.0000 0.3061623147
C   C37       1.0  0.04310  0.48110  0.92472  1.0000 -0.071061675
C   C38       1.0  0.56200  0.04310  0.09139  1.0000 -0.071061675
C   C39       1.0  0.51890  0.56200  0.25805  1.0000 -0.071061675
C   C40       1.0  0.95690  0.51890  0.42472  1.0000 -0.071061675
C   C41       1.0  0.43800  0.95690  0.59139  1.0000 -0.071061675
C   C42       1.0  0.48110  0.43800  0.75805  1.0000 -0.071061675
C   C43       1.0  0.51890  0.95690  0.90861  1.0000 -0.071061675
C   C44       1.0  0.56200  0.51890  0.07528  1.0000 -0.071061675
C   C45       1.0  0.04310  0.56200  0.24195  1.0000 -0.071061675
C   C46       1.0  0.48110  0.04310  0.40861  1.0000 -0.071061675
C   C47       1.0  0.43800  0.48110  0.57528  1.0000 -0.071061675
C   C48       1.0  0.95690  0.43800  0.74195  1.0000 -0.071061675
C   C49       1.0  0.92500  0.39020  0.90511  1.0000 -0.2033468316
C   C50       1.0  0.53480  0.92500  0.07178  1.0000 -0.2033468316
C   C51       1.0  0.60980  0.53480  0.23844  1.0000 -0.2033468316
C   C52       1.0  0.07500  0.60980  0.40511  1.0000 -0.2033468316
C   C53       1.0  0.46520  0.07500  0.57178  1.0000 -0.2033468316
C   C54       1.0  0.39020  0.46520  0.73844  1.0000 -0.2033468316
C   C55       1.0  0.60980  0.07500  0.92822  1.0000 -0.2033468316
C   C56       1.0  0.53480  0.60980  0.09489  1.0000 -0.2033468316
C   C57       1.0  0.92500  0.53480  0.26156  1.0000 -0.2033468316
C   C58       1.0  0.39020  0.92500  0.42822  1.0000 -0.2033468316
C   C59       1.0  0.46520  0.39020  0.59489  1.0000 -0.2033468316
C   C60       1.0  0.07500  0.46520  0.76156  1.0000 -0.2033468316
C   C61       1.0  0.08120  0.61550  0.92681  1.0000 -0.1014628166
C   C62       1.0  0.46570  0.08120  0.09348  1.0000 -0.1014628166
C   C63       1.0  0.38450  0.46570  0.26014  1.0000 -0.1014628166
C   C64       1.0  0.91880  0.38450  0.42681  1.0000 -0.1014628166
C   C65       1.0  0.53430  0.91880  0.59348  1.0000 -0.1014628166
C   C66       1.0  0.61550  0.53430  0.76014  1.0000 -0.1014628166
C   C67       1.0  0.38450  0.91880  0.90652  1.0000 -0.1014628166
C   C68       1.0  0.46570  0.38450  0.07319  1.0000 -0.1014628166
C   C69       1.0  0.08120  0.46570  0.23986  1.0000 -0.1014628166
C   C70       1.0  0.61550  0.08120  0.40652  1.0000 -0.1014628166
C   C71       1.0  0.53430  0.61550  0.57319  1.0000 -0.1014628166
C   C72       1.0  0.91880  0.53430  0.73986  1.0000 -0.1014628166
C   C73       1.0  0.00530  0.66290  0.90807  1.0000 -0.071061675
C   C74       1.0  0.34240  0.00530  0.07474  1.0000 -0.071061675
C   C75       1.0  0.33710  0.34240  0.24140  1.0000 -0.071061675
C   C76       1.0  0.99470  0.33710  0.40807  1.0000 -0.071061675
C   C77       1.0  0.65760  0.99470  0.57474  1.0000 -0.071061675
C   C78       1.0  0.66290  0.65760  0.74140  1.0000 -0.071061675
C   C79       1.0  0.33710  0.99470  0.92526  1.0000 -0.071061675
C   C80       1.0  0.34240  0.33710  0.09193  1.0000 -0.071061675
C   C81       1.0  0.00530  0.34240  0.25860  1.0000 -0.071061675
C   C82       1.0  0.66290  0.00530  0.42526  1.0000 -0.071061675
C   C83       1.0  0.65760  0.66290  0.59193  1.0000 -0.071061675
C   C84       1.0  0.99470  0.65760  0.75860  1.0000 -0.071061675
C   C85       1.0  0.88770  0.57460  0.88762  1.0000 -0.1831584142
C   C86       1.0  0.31310  0.88770  0.05429  1.0000 -0.1831584142
C   C87       1.0  0.42540  0.31310  0.22095  1.0000 -0.1831584142
C   C88       1.0  0.11230  0.42540  0.38762  1.0000 -0.1831584142
C   C89       1.0  0.68690  0.11230  0.55429  1.0000 -0.1831584142
C   C90       1.0  0.57460  0.68690  0.72095  1.0000 -0.1831584142
C   C91       1.0  0.42540  0.11230  0.94571  1.0000 -0.1831584142
C   C92       1.0  0.31310  0.42540  0.11238  1.0000 -0.1831584142
C   C93       1.0  0.88770  0.31310  0.27905  1.0000 -0.1831584142
C   C94       1.0  0.57460  0.88770  0.44571  1.0000 -0.1831584142
C   C95       1.0  0.68690  0.57460  0.61238  1.0000 -0.1831584142
C   C96       1.0  0.11230  0.68690  0.77905  1.0000 -0.1831584142
C   C97       1.0  0.56160  0.19010  0.82974  1.0000 -0.2367401569
C   C98       1.0  0.37150  0.56160  0.99641  1.0000 -0.2367401569
C   C99       1.0  0.80990  0.37150  0.16307  1.0000 -0.2367401569
C   C100      1.0  0.43840  0.80990  0.32974  1.0000 -0.2367401569
C   C101      1.0  0.62850  0.43840  0.49641  1.0000 -0.2367401569
C   C102      1.0  0.19010  0.62850  0.66307  1.0000 -0.2367401569
C   C103      1.0  0.80990  0.43840  0.00359  1.0000 -0.2367401569
C   C104      1.0  0.37150  0.80990  0.17026  1.0000 -0.2367401569
C   C105      1.0  0.56160  0.37150  0.33693  1.0000 -0.2367401569
C   C106      1.0  0.19010  0.56160  0.50359  1.0000 -0.2367401569
C   C107      1.0  0.62850  0.19010  0.67026  1.0000 -0.2367401569
C   C108      1.0  0.43840  0.62850  0.83693  1.0000 -0.2367401569
C   C109      1.0  0.48480  0.07540  0.80284  1.0000 0.581589224
C   C110      1.0  0.40940  0.48480  0.96951  1.0000 0.581589224
C   C111      1.0  0.92460  0.40940  0.13617  1.0000 0.581589224
C   C112      1.0  0.51520  0.92460  0.30284  1.0000 0.581589224
C   C113      1.0  0.59060  0.51520  0.46951  1.0000 0.581589224
C   C114      1.0  0.07540  0.59060  0.63617  1.0000 0.581589224
C   C115      1.0  0.92460  0.51520  0.03049  1.0000 0.581589224
C   C116      1.0  0.40940  0.92460  0.19716  1.0000 0.581589224
C   C117      1.0  0.48480  0.40940  0.36383  1.0000 0.581589224
C   C118      1.0  0.07540  0.48480  0.53049  1.0000 0.581589224
C   C119      1.0  0.59060  0.07540  0.69716  1.0000 0.581589224
C   C120      1.0  0.51520  0.59060  0.86383  1.0000 0.581589224
N   N1        1.0  0.60654  0.35560  0.87376  1.0000 -0.2367401569
N   N2        1.0  0.25094  0.60654  0.04043  1.0000 -0.2347646037
N   N3        1.0  0.64440  0.25094  0.20709  1.0000 -0.2367401569
N   N4        1.0  0.39346  0.64440  0.37376  1.0000 -0.2367401569
N   N5        1.0  0.74906  0.39346  0.54043  1.0000 -0.2367401569
N   N6        1.0  0.35560  0.74906  0.70709  1.0000 -0.2367401569
N   N7        1.0  0.64440  0.39346  0.95957  1.0000 -0.2367401569
N   N8        1.0  0.25094  0.64440  0.12624  1.0000 -0.2367401569
N   N9        1.0  0.60654  0.25094  0.29291  1.0000 -0.2367401569
N   N10       1.0  0.35560  0.60654  0.45957  1.0000 -0.2367401569
N   N11       1.0  0.74906  0.35560  0.62624  1.0000 -0.2367401569
N   N12       1.0  0.39346  0.74906  0.79291  1.0000 -0.2367401569
N   N13       1.0  0.79290  0.21620  0.82982  1.0000 -0.5840770731
N   N14       1.0  0.57670  0.79290  0.99649  1.0000 -0.5840770731
N   N15       1.0  0.78380  0.57670  0.16315  1.0000 -0.5840770731
N   N16       1.0  0.20710  0.78380  0.32982  1.0000 -0.5840770731
N   N17       1.0  0.42330  0.20710  0.49649  1.0000 -0.5840770731
N   N18       1.0  0.21620  0.42330  0.66315  1.0000 -0.5840770731
N   N19       1.0  0.78380  0.20710  0.00351  1.0000 -0.5840770731
N   N20       1.0  0.57670  0.78380  0.17018  1.0000 -0.5840770731
N   N21       1.0  0.79290  0.57670  0.33685  1.0000 -0.5840770731
N   N22       1.0  0.21620  0.79290  0.50351  1.0000 -0.5840770731
N   N23       1.0  0.42330  0.21620  0.67018  1.0000 -0.5840770731
N   N24       1.0  0.20710  0.42330  0.83685  1.0000 -0.5840770731
N   N25       1.0  0.72189  0.34459  0.86838  1.0000 0.0059136311
N   N26       1.0  0.37730  0.72189  0.03505  1.0000 0.0059136311
N   N27       1.0  0.65541  0.37730  0.20171  1.0000 0.0059136311
N   N28       1.0  0.27811  0.65541  0.36838  1.0000 0.0059136311
N   N29       1.0  0.62270  0.27811  0.53505  1.0000 0.0059136311
N   N30       1.0  0.34459  0.62270  0.70171  1.0000 0.0037542919
N   N31       1.0  0.65541  0.27811  0.96495  1.0000 0.0059136311
N   N32       1.0  0.37730  0.65541  0.13162  1.0000 0.0059136311
N   N33       1.0  0.72189  0.37730  0.29829  1.0000 0.0059136311
N   N34       1.0  0.34459  0.72189  0.46495  1.0000 0.0059136311
N   N35       1.0  0.62270  0.34459  0.63162  1.0000 0.0059136311
N   N36       1.0  0.27811  0.62270  0.79829  1.0000 0.0037542919
O   O1        1.0  0.55223  0.02481  0.78742  1.0000 -0.5237956623
O   O2        1.0  0.52742  0.55223  0.95409  1.0000 -0.5237956623
O   O3        1.0  0.97519  0.52742  0.12075  1.0000 -0.5237956623
O   O4        1.0  0.44777  0.97519  0.28742  1.0000 -0.5237956623
O   O5        1.0  0.47258  0.44777  0.45409  1.0000 -0.5237956623
O   O6        1.0  0.02481  0.47258  0.62075  1.0000 -0.5237956623
O   O7        1.0  0.97519  0.44777  0.04591  1.0000 -0.5237956623
O   O8        1.0  0.52742  0.97519  0.21258  1.0000 -0.5237956623
O   O9        1.0  0.55223  0.52742  0.37925  1.0000 -0.5237956623
O   O10       1.0  0.02481  0.55223  0.54591  1.0000 -0.5237956623
O   O11       1.0  0.47258  0.02481  0.71258  1.0000 -0.5237956623
O   O12       1.0  0.44777  0.47258  0.87925  1.0000 -0.5237956623
O   O13       1.0  0.36113  0.03209  0.79631  1.0000 -0.5704772551
O   O14       1.0  0.32904  0.36113  0.96298  1.0000 -0.5704772551
O   O15       1.0  0.96791  0.32904  0.12964  1.0000 -0.5704772551
O   O16       1.0  0.63887  0.96791  0.29631  1.0000 -0.5704772551
O   O17       1.0  0.67096  0.63887  0.46298  1.0000 -0.5704772551
O   O18       1.0  0.03209  0.67096  0.62964  1.0000 -0.5704772551
O   O19       1.0  0.96791  0.63887  0.03702  1.0000 -0.5704772551
O   O20       1.0  0.32904  0.96791  0.20369  1.0000 -0.5704772551
O   O21       1.0  0.36113  0.32904  0.37036  1.0000 -0.5704772551
O   O22       1.0  0.03209  0.36113  0.53702  1.0000 -0.5704772551
O   O23       1.0  0.67096  0.03209  0.70369  1.0000 -0.5704772551
O   O24       1.0  0.63887  0.67096  0.87036  1.0000 -0.5704772551
