# DDEC6 charges by PACMAN v1.1 (https://github.com/mtap-research/PACMAN-charge/)
data_2015[Ni][nan]3[ASR]2
_chemical_formula_sum              "Ni8 H160 C212 N16 O56"
_cell_length_a       23.6639
_cell_length_b       23.6639
_cell_length_c       23.633
_cell_angle_alpha    84.8623
_cell_angle_beta     95.1377
_cell_angle_gamma    153.927

_symmetry_space_group_name_H-M    "P 1"
_symmetry_Int_Tables_number       1

loop_
  _symmetry_equiv_pos_as_xyz
  'x, y, z'

loop_
  _atom_site_type_symbol
  _atom_site_label
  _atom_site_symmetry_multiplicity
  _atom_site_fract_x
  _atom_site_fract_y
  _atom_site_fract_z
  _atom_site_occupancy
  _atom_site_charge
Ni  Ni1       1.0  0.93893  0.36883  0.92603  1.0000 0.7112297062
Ni  Ni2       1.0  0.36883  0.93893  0.57397  1.0000 0.7112297062
Ni  Ni3       1.0  0.06107  0.63117  0.07397  1.0000 0.7112297062
Ni  Ni4       1.0  0.63117  0.06107  0.42603  1.0000 0.7112297062
Ni  Ni5       1.0  0.17719  0.16019  0.06997  1.0000 0.7112297062
Ni  Ni6       1.0  0.16019  0.17719  0.43003  1.0000 0.7112297062
Ni  Ni7       1.0  0.82281  0.83981  0.93003  1.0000 0.7112297062
Ni  Ni8       1.0  0.83981  0.82281  0.56997  1.0000 0.7112297062
H   H1        1.0  0.73750  0.04110  0.87280  1.0000 0.1094700309
H   H2        1.0  0.04110  0.73750  0.62720  1.0000 0.1094700309
H   H3        1.0  0.26250  0.95890  0.12720  1.0000 0.1094700309
H   H4        1.0  0.95890  0.26250  0.37280  1.0000 0.1094700309
H   H5        1.0  0.60240  0.84780  0.84460  1.0000 0.1301484169
H   H6        1.0  0.84780  0.60240  0.65540  1.0000 0.1301484169
H   H7        1.0  0.39760  0.15220  0.15540  1.0000 0.1301484169
H   H8        1.0  0.15220  0.39760  0.34460  1.0000 0.1301484169
H   H9        1.0  0.34710  0.66250  0.95510  1.0000 0.1192258644
H   H10       1.0  0.66250  0.34710  0.54490  1.0000 0.1192258644
H   H11       1.0  0.65290  0.33750  0.04490  1.0000 0.1192258644
H   H12       1.0  0.33750  0.65290  0.45510  1.0000 0.1192258644
H   H13       1.0  0.48840  0.85400  0.98820  1.0000 0.1192258644
H   H14       1.0  0.85400  0.48840  0.51180  1.0000 0.1192258644
H   H15       1.0  0.51160  0.14600  0.01180  1.0000 0.1192258644
H   H16       1.0  0.14600  0.51160  0.48820  1.0000 0.1192258644
H   H17       1.0  0.48070  0.66830  0.96930  1.0000 0.1192258644
H   H18       1.0  0.66830  0.48070  0.53070  1.0000 0.1192258644
H   H19       1.0  0.51930  0.33170  0.03070  1.0000 0.1192258644
H   H20       1.0  0.33170  0.51930  0.46930  1.0000 0.1192258644
H   H21       1.0  0.41160  0.52600  0.02210  1.0000 0.1192258644
H   H22       1.0  0.52600  0.41160  0.47790  1.0000 0.1192258644
H   H23       1.0  0.58840  0.47400  0.97790  1.0000 0.1192258644
H   H24       1.0  0.47400  0.58840  0.52210  1.0000 0.1192258644
H   H25       1.0  0.09840  0.24020  0.92380  1.0000 0.1192258644
H   H26       1.0  0.24020  0.09840  0.57620  1.0000 0.1192258644
H   H27       1.0  0.90160  0.75980  0.07620  1.0000 0.1192258644
H   H28       1.0  0.75980  0.90160  0.42380  1.0000 0.1192258644
H   H29       1.0  0.17040  0.38460  0.86900  1.0000 0.1301484169
H   H30       1.0  0.38460  0.17040  0.63100  1.0000 0.1301484169
H   H31       1.0  0.82960  0.61540  0.13100  1.0000 0.1301484169
H   H32       1.0  0.61540  0.82960  0.36900  1.0000 0.1301484169
H   H33       1.0  0.84680  0.44100  0.79630  1.0000 0.1192258644
H   H34       1.0  0.44100  0.84680  0.70370  1.0000 0.1192258644
H   H35       1.0  0.15320  0.55900  0.20370  1.0000 0.1192258644
H   H36       1.0  0.55900  0.15320  0.29630  1.0000 0.1192258644
H   H37       1.0  0.89060  0.56780  0.74700  1.0000 0.1301484169
H   H38       1.0  0.56780  0.89060  0.75300  1.0000 0.1301484169
H   H39       1.0  0.10940  0.43220  0.25300  1.0000 0.1301484169
H   H40       1.0  0.43220  0.10940  0.24700  1.0000 0.1301484169
H   H41       1.0  0.20220  0.86260  0.84600  1.0000 0.1420131519
H   H42       1.0  0.86260  0.20220  0.65400  1.0000 0.1420131519
H   H43       1.0  0.79780  0.13740  0.15400  1.0000 0.1420131519
H   H44       1.0  0.13740  0.79780  0.34600  1.0000 0.1420131519
H   H45       1.0  0.15820  0.73520  0.89230  1.0000 0.1301484169
H   H46       1.0  0.73520  0.15820  0.60770  1.0000 0.1301484169
H   H47       1.0  0.84180  0.26480  0.10770  1.0000 0.1301484169
H   H48       1.0  0.26480  0.84180  0.39230  1.0000 0.1301484169
H   H49       1.0  0.96060  0.71760  0.85230  1.0000 0.1301484169
H   H50       1.0  0.71760  0.96060  0.64770  1.0000 0.1301484169
H   H51       1.0  0.03940  0.28240  0.14770  1.0000 0.1301484169
H   H52       1.0  0.28240  0.03940  0.35230  1.0000 0.1301484169
H   H53       1.0  0.92150  0.76870  0.88500  1.0000 0.1192258644
H   H54       1.0  0.76870  0.92150  0.61500  1.0000 0.1192258644
H   H55       1.0  0.07850  0.23130  0.11500  1.0000 0.1192258644
H   H56       1.0  0.23130  0.07850  0.38500  1.0000 0.1192258644
H   H57       1.0  0.13200  0.03240  0.76090  1.0000 0.1192258644
H   H58       1.0  0.03240  0.13200  0.73910  1.0000 0.1192258644
H   H59       1.0  0.86800  0.96760  0.23910  1.0000 0.1192258644
H   H60       1.0  0.96760  0.86800  0.26090  1.0000 0.1192258644
H   H61       1.0  0.16170  0.97190  0.72460  1.0000 0.1301484169
H   H62       1.0  0.97190  0.16170  0.77540  1.0000 0.1301484169
H   H63       1.0  0.83830  0.02810  0.27540  1.0000 0.1301484169
H   H64       1.0  0.02810  0.83830  0.22460  1.0000 0.1301484169
H   H65       1.0  0.90450  0.25710  0.83430  1.0000 0.1192258644
H   H66       1.0  0.25710  0.90450  0.66570  1.0000 0.1192258644
H   H67       1.0  0.09550  0.74290  0.16570  1.0000 0.1192258644
H   H68       1.0  0.74290  0.09550  0.33430  1.0000 0.1192258644
H   H69       1.0  0.01600  0.31500  0.76730  1.0000 0.1301484169
H   H70       1.0  0.31500  0.01600  0.73270  1.0000 0.1301484169
H   H71       1.0  0.98400  0.68500  0.23270  1.0000 0.1301484169
H   H72       1.0  0.68500  0.98400  0.26730  1.0000 0.1301484169
H   H73       1.0  0.31450  0.68130  0.80310  1.0000 0.1597408659
H   H74       1.0  0.68130  0.31450  0.69690  1.0000 0.1597408659
H   H75       1.0  0.68550  0.31870  0.19690  1.0000 0.1597408659
H   H76       1.0  0.31870  0.68550  0.30310  1.0000 0.1597408659
H   H77       1.0  0.19260  0.61100  0.86770  1.0000 0.1192258644
H   H78       1.0  0.61100  0.19260  0.63230  1.0000 0.1192258644
H   H79       1.0  0.80740  0.38900  0.13230  1.0000 0.1192258644
H   H80       1.0  0.38900  0.80740  0.36770  1.0000 0.1192258644
H   H81       1.0  0.43370  0.85930  0.51180  1.0000 0.1301484169
H   H82       1.0  0.85930  0.43370  0.98820  1.0000 0.1301484169
H   H83       1.0  0.56630  0.14070  0.48820  1.0000 0.1301484169
H   H84       1.0  0.14070  0.56630  0.01180  1.0000 0.1301484169
H   H85       1.0  0.35610  0.72050  0.57600  1.0000 0.1506642234
H   H86       1.0  0.72050  0.35610  0.92400  1.0000 0.1506642234
H   H87       1.0  0.64390  0.27950  0.42400  1.0000 0.1506642234
H   H88       1.0  0.27950  0.64390  0.07600  1.0000 0.1506642234
H   H89       1.0  0.64140  0.87760  0.53360  1.0000 0.1597408659
H   H90       1.0  0.87760  0.64140  0.96640  1.0000 0.1597408659
H   H91       1.0  0.35860  0.12240  0.46640  1.0000 0.1597408659
H   H92       1.0  0.12240  0.35860  0.03360  1.0000 0.1597408659
H   H93       1.0  0.70360  0.00460  0.47000  1.0000 0.1094700309
H   H94       1.0  0.00460  0.70360  0.03000  1.0000 0.1094700309
H   H95       1.0  0.29640  0.99540  0.53000  1.0000 0.1094700309
H   H96       1.0  0.99540  0.29640  0.97000  1.0000 0.1094700309
H   H97       1.0  0.80850  0.90930  0.82400  1.0000 0.1192258644
H   H98       1.0  0.90930  0.80850  0.67600  1.0000 0.1192258644
H   H99       1.0  0.19150  0.09070  0.17600  1.0000 0.1192258644
H   H100      1.0  0.09070  0.19150  0.32400  1.0000 0.1192258644
H   H101      1.0  0.66600  0.82220  0.75960  1.0000 0.1420131519
H   H102      1.0  0.82220  0.66600  0.74040  1.0000 0.1420131519
H   H103      1.0  0.33400  0.17780  0.24040  1.0000 0.1420131519
H   H104      1.0  0.17780  0.33400  0.25960  1.0000 0.1420131519
H   H105      1.0  0.39110  0.48770  0.84230  1.0000 0.1506642234
H   H106      1.0  0.48770  0.39110  0.65770  1.0000 0.1506642234
H   H107      1.0  0.60890  0.51230  0.15770  1.0000 0.1506642234
H   H108      1.0  0.51230  0.60890  0.34230  1.0000 0.1506642234
H   H109      1.0  0.54360  0.59020  0.90740  1.0000 0.1094700309
H   H110      1.0  0.59020  0.54360  0.59260  1.0000 0.1094700309
H   H111      1.0  0.45640  0.40980  0.09260  1.0000 0.1094700309
H   H112      1.0  0.40980  0.45640  0.40740  1.0000 0.1094700309
H   H113      1.0  0.03730  0.17870  0.45760  1.0000 0.1094700309
H   H114      1.0  0.17870  0.03730  0.04240  1.0000 0.1094700309
H   H115      1.0  0.96270  0.82130  0.54240  1.0000 0.1094700309
H   H116      1.0  0.82130  0.96270  0.95760  1.0000 0.1094700309
H   H117      1.0  0.05440  0.26120  0.52020  1.0000 0.1597408659
H   H118      1.0  0.26120  0.05440  0.97980  1.0000 0.1597408659
H   H119      1.0  0.94560  0.73880  0.47980  1.0000 0.1597408659
H   H120      1.0  0.73880  0.94560  0.02020  1.0000 0.1597408659
H   H121      1.0  0.29960  0.37900  0.61320  1.0000 0.1420131519
H   H122      1.0  0.37900  0.29960  0.88680  1.0000 0.1420131519
H   H123      1.0  0.70040  0.62100  0.38680  1.0000 0.1420131519
H   H124      1.0  0.62100  0.70040  0.11320  1.0000 0.1420131519
H   H125      1.0  0.27200  0.29100  0.54630  1.0000 0.1094700309
H   H126      1.0  0.29100  0.27200  0.95370  1.0000 0.1094700309
H   H127      1.0  0.72800  0.70900  0.45370  1.0000 0.1094700309
H   H128      1.0  0.70900  0.72800  0.04630  1.0000 0.1094700309
H   H129      1.0  0.27720  0.42320  0.67870  1.0000 0.1094700309
H   H130      1.0  0.42320  0.27720  0.82130  1.0000 0.1094700309
H   H131      1.0  0.72280  0.57680  0.32130  1.0000 0.1094700309
H   H132      1.0  0.57680  0.72280  0.17870  1.0000 0.1094700309
H   H133      1.0  0.37600  0.53020  0.63110  1.0000 0.1094700309
H   H134      1.0  0.53020  0.37600  0.86890  1.0000 0.1094700309
H   H135      1.0  0.62400  0.46980  0.36890  1.0000 0.1094700309
H   H136      1.0  0.46980  0.62400  0.13110  1.0000 0.1094700309
H   H137      1.0  0.47460  0.70820  0.72870  1.0000 0.1094700309
H   H138      1.0  0.70820  0.47460  0.77130  1.0000 0.1094700309
H   H139      1.0  0.52540  0.29180  0.27130  1.0000 0.1094700309
H   H140      1.0  0.29180  0.52540  0.22870  1.0000 0.1094700309
H   H141      1.0  0.51380  0.69540  0.69060  1.0000 0.1094700309
H   H142      1.0  0.69540  0.51380  0.80940  1.0000 0.1094700309
H   H143      1.0  0.48620  0.30460  0.30940  1.0000 0.1094700309
H   H144      1.0  0.30460  0.48620  0.19060  1.0000 0.1094700309
H   H145      1.0  0.35790  0.66390  0.65160  1.0000 0.1012441754
H   H146      1.0  0.66390  0.35790  0.84840  1.0000 0.1012441754
H   H147      1.0  0.64210  0.33610  0.34840  1.0000 0.1012441754
H   H148      1.0  0.33610  0.64210  0.15160  1.0000 0.1012441754
H   H149      1.0  0.27190  0.55690  0.60780  1.0000 0.1094700309
H   H150      1.0  0.55690  0.27190  0.89220  1.0000 0.1094700309
H   H151      1.0  0.72810  0.44310  0.39220  1.0000 0.1094700309
H   H152      1.0  0.44310  0.72810  0.10780  1.0000 0.1094700309
H   H153      1.0  0.19160  0.41660  0.73900  1.0000 0.1094700309
H   H154      1.0  0.41660  0.19160  0.76100  1.0000 0.1094700309
H   H155      1.0  0.80840  0.58340  0.26100  1.0000 0.1094700309
H   H156      1.0  0.58340  0.80840  0.23900  1.0000 0.1094700309
H   H157      1.0  0.14130  0.41330  0.68770  1.0000 0.1094700309
H   H158      1.0  0.41330  0.14130  0.81230  1.0000 0.1094700309
H   H159      1.0  0.85870  0.58670  0.31230  1.0000 0.1094700309
H   H160      1.0  0.58670  0.85870  0.18770  1.0000 0.1094700309
C   C1        1.0  0.71085  0.08855  0.95017  1.0000 0.5572501589
C   C2        1.0  0.08855  0.71085  0.54983  1.0000 0.5572501589
C   C3        1.0  0.28915  0.91145  0.04983  1.0000 0.5572501589
C   C4        1.0  0.91145  0.28915  0.45017  1.0000 0.5572501589
C   C5        1.0  0.62607  0.96773  0.93244  1.0000 -0.0510321129
C   C6        1.0  0.96773  0.62607  0.56756  1.0000 -0.0510321129
C   C7        1.0  0.37393  0.03227  0.06756  1.0000 -0.0510321129
C   C8        1.0  0.03227  0.37393  0.43244  1.0000 -0.0510321129
C   C9        1.0  0.65892  0.96428  0.89033  1.0000 -0.0902525629
C   C10       1.0  0.96428  0.65892  0.60967  1.0000 -0.0902525629
C   C11       1.0  0.34108  0.03572  0.10967  1.0000 -0.0902525629
C   C12       1.0  0.03572  0.34108  0.39033  1.0000 -0.0902525629
C   C13       1.0  0.57796  0.84864  0.87264  1.0000 -0.2178271009
C   C14       1.0  0.84864  0.57796  0.62736  1.0000 -0.2178271009
C   C15       1.0  0.42204  0.15136  0.12736  1.0000 -0.2178271009
C   C16       1.0  0.15136  0.42204  0.37264  1.0000 -0.2178271009
C   C17       1.0  0.46257  0.73823  0.89827  1.0000 0.2203295176
C   C18       1.0  0.73823  0.46257  0.60173  1.0000 0.2203295176
C   C19       1.0  0.53743  0.26177  0.10173  1.0000 0.2203295176
C   C20       1.0  0.26177  0.53743  0.39827  1.0000 0.2203295176
C   C21       1.0  0.42793  0.73967  0.93926  1.0000 -0.2098344099
C   C22       1.0  0.73967  0.42793  0.56074  1.0000 -0.2098344099
C   C23       1.0  0.57207  0.26033  0.06074  1.0000 -0.2098344099
C   C24       1.0  0.26033  0.57207  0.43926  1.0000 -0.2098344099
C   C25       1.0  0.51093  0.85407  0.95789  1.0000 -0.0827285479
C   C26       1.0  0.85407  0.51093  0.54211  1.0000 -0.0827285479
C   C27       1.0  0.48907  0.14593  0.04211  1.0000 -0.0827285479
C   C28       1.0  0.14593  0.48907  0.45789  1.0000 -0.0827285479
C   C29       1.0  0.33374  0.54006  0.91379  1.0000 0.2375624758
C   C30       1.0  0.54006  0.33374  0.58621  1.0000 0.2375624758
C   C31       1.0  0.66626  0.45994  0.08621  1.0000 0.2375624758
C   C32       1.0  0.45994  0.66626  0.41379  1.0000 0.2375624758
C   C33       1.0  0.40439  0.58221  0.95945  1.0000 -0.2178271009
C   C34       1.0  0.58221  0.40439  0.54055  1.0000 -0.2178271009
C   C35       1.0  0.59561  0.41779  0.04055  1.0000 -0.2178271009
C   C36       1.0  0.41779  0.59561  0.45945  1.0000 -0.2178271009
C   C37       1.0  0.36266  0.49714  0.99096  1.0000 -0.0902525629
C   C38       1.0  0.49714  0.36266  0.50904  1.0000 -0.0902525629
C   C39       1.0  0.63734  0.50286  0.00904  1.0000 -0.0902525629
C   C40       1.0  0.50286  0.63734  0.49096  1.0000 -0.0902525629
C   C41       1.0  0.24943  0.36957  0.97710  1.0000 -0.0349557455
C   C42       1.0  0.36957  0.24943  0.52290  1.0000 -0.0349557455
C   C43       1.0  0.75057  0.63043  0.02290  1.0000 -0.0349557455
C   C44       1.0  0.63043  0.75057  0.47710  1.0000 -0.0349557455
C   C45       1.0  0.17676  0.32704  0.93255  1.0000 -0.0902525629
C   C46       1.0  0.32704  0.17676  0.56745  1.0000 -0.0902525629
C   C47       1.0  0.82324  0.67296  0.06745  1.0000 -0.0902525629
C   C48       1.0  0.67296  0.82324  0.43255  1.0000 -0.0902525629
C   C49       1.0  0.21933  0.41307  0.90000  1.0000 -0.2178271009
C   C50       1.0  0.41307  0.21933  0.60000  1.0000 -0.2178271009
C   C51       1.0  0.78067  0.58693  0.10000  1.0000 -0.2178271009
C   C52       1.0  0.58693  0.78067  0.40000  1.0000 -0.2178271009
C   C53       1.0  0.21501  0.28419  0.00950  1.0000 0.5374698881
C   C54       1.0  0.28419  0.21501  0.49050  1.0000 0.5374698881
C   C55       1.0  0.78499  0.71581  0.99050  1.0000 0.5374698881
C   C56       1.0  0.71581  0.78499  0.50950  1.0000 0.5374698881
C   C57       1.0  0.99878  0.57502  0.84943  1.0000 -0.0594532652
C   C58       1.0  0.57502  0.99878  0.65057  1.0000 -0.0594532652
C   C59       1.0  0.00122  0.42498  0.15057  1.0000 -0.0594532652
C   C60       1.0  0.42498  0.00122  0.34943  1.0000 -0.0594532652
C   C61       1.0  0.91957  0.52643  0.80621  1.0000 -0.0902525629
C   C62       1.0  0.52643  0.91957  0.69379  1.0000 -0.0902525629
C   C63       1.0  0.08043  0.47357  0.19379  1.0000 -0.0902525629
C   C64       1.0  0.47357  0.08043  0.30621  1.0000 -0.0902525629
C   C65       1.0  0.94517  0.60223  0.77642  1.0000 -0.2098344099
C   C66       1.0  0.60223  0.94517  0.72358  1.0000 -0.2098344099
C   C67       1.0  0.05483  0.39777  0.22358  1.0000 -0.2098344099
C   C68       1.0  0.39777  0.05483  0.27642  1.0000 -0.2098344099
C   C69       1.0  0.05369  0.72991  0.79169  1.0000 0.2375624758
C   C70       1.0  0.72991  0.05369  0.70831  1.0000 0.2375624758
C   C71       1.0  0.94631  0.27009  0.20831  1.0000 0.2375624758
C   C72       1.0  0.27009  0.94631  0.29169  1.0000 0.2375624758
C   C73       1.0  0.13108  0.77832  0.83494  1.0000 -0.2098344099
C   C74       1.0  0.77832  0.13108  0.66506  1.0000 -0.2098344099
C   C75       1.0  0.86892  0.22168  0.16506  1.0000 -0.2098344099
C   C76       1.0  0.22168  0.86892  0.33494  1.0000 -0.2098344099
C   C77       1.0  0.10316  0.70024  0.86303  1.0000 -0.0594532652
C   C78       1.0  0.70024  0.10316  0.63697  1.0000 -0.0594532652
C   C79       1.0  0.89684  0.29976  0.13697  1.0000 -0.0594532652
C   C80       1.0  0.29976  0.89684  0.36303  1.0000 -0.0594532652
C   C81       1.0  0.06225  0.83695  0.78540  1.0000 0.2375624758
C   C82       1.0  0.83695  0.06225  0.71460  1.0000 0.2375624758
C   C83       1.0  0.93775  0.16305  0.21460  1.0000 0.2375624758
C   C84       1.0  0.16305  0.93775  0.28540  1.0000 0.2375624758
C   C85       1.0  0.99327  0.77953  0.83290  1.0000 -0.2385260984
C   C86       1.0  0.77953  0.99327  0.66710  1.0000 -0.2385260984
C   C87       1.0  0.00673  0.22047  0.16710  1.0000 -0.2385260984
C   C88       1.0  0.22047  0.00673  0.33290  1.0000 -0.2385260984
C   C89       1.0  0.97081  0.81119  0.85286  1.0000 -0.0902525629
C   C90       1.0  0.81119  0.97081  0.64714  1.0000 -0.0902525629
C   C91       1.0  0.02919  0.18881  0.14714  1.0000 -0.0902525629
C   C92       1.0  0.18881  0.02919  0.35286  1.0000 -0.0902525629
C   C93       1.0  0.02009  0.90491  0.82611  1.0000 -0.0231742672
C   C94       1.0  0.90491  0.02009  0.67389  1.0000 -0.0231742672
C   C95       1.0  0.97991  0.09509  0.17389  1.0000 -0.0231742672
C   C96       1.0  0.09509  0.97991  0.32611  1.0000 -0.0231742672
C   C97       1.0  0.09430  0.96630  0.77882  1.0000 -0.0902525629
C   C98       1.0  0.96630  0.09430  0.72118  1.0000 -0.0902525629
C   C99       1.0  0.90570  0.03370  0.22118  1.0000 -0.0902525629
C   C100      1.0  0.03370  0.90570  0.27882  1.0000 -0.0902525629
C   C101      1.0  0.11427  0.93173  0.75725  1.0000 -0.2314129986
C   C102      1.0  0.93173  0.11427  0.74275  1.0000 -0.2314129986
C   C103      1.0  0.88573  0.06827  0.24275  1.0000 -0.2314129986
C   C104      1.0  0.06827  0.88573  0.25725  1.0000 -0.2385260984
C   C105      1.0  0.99125  0.93555  0.84809  1.0000 0.5572501589
C   C106      1.0  0.93555  0.99125  0.65191  1.0000 0.5572501589
C   C107      1.0  0.00875  0.06445  0.15191  1.0000 0.5572501589
C   C108      1.0  0.06445  0.00875  0.34809  1.0000 0.5572501589
C   C109      1.0  0.98929  0.34431  0.82821  1.0000 0.1012441754
C   C110      1.0  0.34431  0.98929  0.67179  1.0000 0.1012441754
C   C111      1.0  0.01071  0.65569  0.17179  1.0000 0.1012441754
C   C112      1.0  0.65569  0.01071  0.32821  1.0000 0.1012441754
C   C113      1.0  0.05492  0.37768  0.78733  1.0000 -0.2982713337
C   C114      1.0  0.37768  0.05492  0.71267  1.0000 -0.2982713337
C   C115      1.0  0.94508  0.62232  0.21267  1.0000 -0.2982713337
C   C116      1.0  0.62232  0.94508  0.28733  1.0000 -0.2982713337
C   C117      1.0  0.18081  0.50739  0.77695  1.0000 0.2996105794
C   C118      1.0  0.50739  0.18081  0.72305  1.0000 0.2996105794
C   C119      1.0  0.81919  0.49261  0.22305  1.0000 0.2996105794
C   C120      1.0  0.49261  0.81919  0.27695  1.0000 0.2996105794
C   C121      1.0  0.23050  0.59350  0.80858  1.0000 -0.2562551777
C   C122      1.0  0.59350  0.23050  0.69142  1.0000 -0.2562551777
C   C123      1.0  0.76950  0.40650  0.19142  1.0000 -0.2562551777
C   C124      1.0  0.40650  0.76950  0.30858  1.0000 -0.2562551777
C   C125      1.0  0.15694  0.55026  0.84793  1.0000 0.0889474152
C   C126      1.0  0.55026  0.15694  0.65207  1.0000 0.1012441754
C   C127      1.0  0.84306  0.44974  0.15207  1.0000 0.0889474152
C   C128      1.0  0.44974  0.84306  0.34793  1.0000 0.0889474152
C   C129      1.0  0.47672  0.86328  0.51604  1.0000 0.1094700309
C   C130      1.0  0.86328  0.47672  0.98396  1.0000 0.1094700309
C   C131      1.0  0.52328  0.13672  0.48396  1.0000 0.1094700309
C   C132      1.0  0.13672  0.52328  0.01604  1.0000 0.1094700309
C   C133      1.0  0.42863  0.77897  0.55525  1.0000 -0.2804278191
C   C134      1.0  0.77897  0.42863  0.94475  1.0000 -0.2804278191
C   C135      1.0  0.57137  0.22103  0.44475  1.0000 -0.2804278191
C   C136      1.0  0.22103  0.57137  0.05525  1.0000 -0.2804278191
C   C137      1.0  0.49167  0.78473  0.56240  1.0000 0.2673959527
C   C138      1.0  0.78473  0.49167  0.93760  1.0000 0.2673959527
C   C139      1.0  0.50833  0.21527  0.43760  1.0000 0.2673959527
C   C140      1.0  0.21527  0.50833  0.06240  1.0000 0.2673959527
C   C141      1.0  0.59638  0.87122  0.52992  1.0000 -0.2537331413
C   C142      1.0  0.87122  0.59638  0.97008  1.0000 -0.2537331413
C   C143      1.0  0.40362  0.12878  0.47008  1.0000 -0.2537331413
C   C144      1.0  0.12878  0.40362  0.02992  1.0000 -0.2537331413
C   C145      1.0  0.63319  0.94761  0.49221  1.0000 0.0801011585
C   C146      1.0  0.94761  0.63319  0.00779  1.0000 0.0801011585
C   C147      1.0  0.36681  0.05239  0.50779  1.0000 0.0801011585
C   C148      1.0  0.05239  0.36681  0.99221  1.0000 0.0801011585
C   C149      1.0  0.72217  0.82263  0.82847  1.0000 0.0889474152
C   C150      1.0  0.82263  0.72217  0.67153  1.0000 0.0889474152
C   C151      1.0  0.27783  0.17737  0.17153  1.0000 0.0889474152
C   C152      1.0  0.17737  0.27783  0.32847  1.0000 0.0889474152
C   C153      1.0  0.63737  0.77103  0.78900  1.0000 -0.2804278191
C   C154      1.0  0.77103  0.63737  0.71100  1.0000 -0.2804278191
C   C155      1.0  0.36263  0.22897  0.21100  1.0000 -0.2804278191
C   C156      1.0  0.22897  0.36263  0.28900  1.0000 -0.2804278191
C   C157      1.0  0.51127  0.64493  0.79293  1.0000 0.2925150637
C   C158      1.0  0.64493  0.51127  0.70707  1.0000 0.2925150637
C   C159      1.0  0.48873  0.35507  0.20707  1.0000 0.2925150637
C   C160      1.0  0.35507  0.48873  0.29293  1.0000 0.2925150637
C   C161      1.0  0.47638  0.57542  0.83809  1.0000 -0.2661759015
C   C162      1.0  0.57542  0.47638  0.66191  1.0000 -0.2661759015
C   C163      1.0  0.52362  0.42458  0.16191  1.0000 -0.2661759015
C   C164      1.0  0.42458  0.52362  0.33809  1.0000 -0.2661759015
C   C165      1.0  0.56947  0.63773  0.87663  1.0000 0.1012441754
C   C166      1.0  0.63773  0.56947  0.62337  1.0000 0.1012441754
C   C167      1.0  0.43053  0.36227  0.12337  1.0000 0.1012441754
C   C168      1.0  0.36227  0.43053  0.37663  1.0000 0.1012441754
C   C169      1.0  0.09269  0.22171  0.48883  1.0000 0.0889474152
C   C170      1.0  0.22171  0.09269  0.01117  1.0000 0.0889474152
C   C171      1.0  0.90731  0.77829  0.51117  1.0000 0.0889474152
C   C172      1.0  0.77829  0.90731  0.98883  1.0000 0.0889474152
C   C173      1.0  0.10109  0.26951  0.52630  1.0000 -0.2385260984
C   C174      1.0  0.26951  0.10109  0.97370  1.0000 -0.2385260984
C   C175      1.0  0.89891  0.73049  0.47370  1.0000 -0.2385260984
C   C176      1.0  0.73049  0.89891  0.02630  1.0000 -0.2385260984
C   C177      1.0  0.17964  0.32996  0.57291  1.0000 0.2673959527
C   C178      1.0  0.32996  0.17964  0.92709  1.0000 0.2673959527
C   C179      1.0  0.82036  0.67004  0.42709  1.0000 0.2673959527
C   C180      1.0  0.67004  0.82036  0.07291  1.0000 0.2673959527
C   C181      1.0  0.24619  0.33941  0.58151  1.0000 -0.2537331413
C   C182      1.0  0.33941  0.24619  0.91849  1.0000 -0.2537331413
C   C183      1.0  0.75381  0.66059  0.41849  1.0000 -0.2537331413
C   C184      1.0  0.66059  0.75381  0.08151  1.0000 -0.2537331413
C   C185      1.0  0.22932  0.28728  0.54068  1.0000 0.1012441754
C   C186      1.0  0.28728  0.22932  0.95932  1.0000 0.1012441754
C   C187      1.0  0.77068  0.71272  0.45932  1.0000 0.1012441754
C   C188      1.0  0.71272  0.77068  0.04068  1.0000 0.1012441754
C   C189      1.0  0.29925  0.47275  0.64966  1.0000 -0.0902525629
C   C190      1.0  0.47275  0.29925  0.85034  1.0000 -0.0902525629
C   C191      1.0  0.70075  0.52725  0.35034  1.0000 -0.0902525629
C   C192      1.0  0.52725  0.70075  0.14966  1.0000 -0.0902525629
C   C193      1.0  0.44569  0.64771  0.71332  1.0000 -0.0902525629
C   C194      1.0  0.64771  0.44569  0.78668  1.0000 -0.0902525629
C   C195      1.0  0.55431  0.35229  0.28668  1.0000 -0.0902525629
C   C196      1.0  0.35229  0.55431  0.21332  1.0000 -0.0902525629
C   C197      1.0  0.34701  0.61959  0.63291  1.0000 -0.0902525629
C   C198      1.0  0.61959  0.34701  0.86709  1.0000 -0.0902525629
C   C199      1.0  0.65299  0.38041  0.36709  1.0000 -0.0902525629
C   C200      1.0  0.38041  0.65299  0.13291  1.0000 -0.0902525629
C   C201      1.0  0.21548  0.46932  0.71192  1.0000 -0.0902525629
C   C202      1.0  0.46932  0.21548  0.78808  1.0000 -0.0902525629
C   C203      1.0  0.78452  0.53068  0.28808  1.0000 -0.0902525629
C   C204      1.0  0.53068  0.78452  0.21192  1.0000 -0.0902525629
C   C205      1.0  0.97228  0.49552  0.87859  1.0000 0.5273407046
C   C206      1.0  0.49552  0.97228  0.62141  1.0000 0.5273407046
C   C207      1.0  0.02772  0.50448  0.12141  1.0000 0.5273407046
C   C208      1.0  0.50448  0.02772  0.37859  1.0000 0.5273407046
C   C209      1.0  0.32516  0.55104  0.67697  1.0000 0.0801011585
C   C210      1.0  0.55104  0.32516  0.82303  1.0000 0.0801011585
C   C211      1.0  0.67484  0.44896  0.32303  1.0000 0.0801011585
C   C212      1.0  0.44896  0.67484  0.17697  1.0000 0.0801011585
N   N1        1.0  0.03754  0.42686  0.85977  1.0000 -0.2314129986
N   N2        1.0  0.42686  0.03754  0.64023  1.0000 -0.2314129986
N   N3        1.0  0.96246  0.57314  0.14023  1.0000 -0.2314129986
N   N4        1.0  0.57314  0.96246  0.35977  1.0000 -0.2314129986
N   N5        1.0  0.69251  0.76029  0.87257  1.0000 -0.2385260984
N   N6        1.0  0.76029  0.69251  0.62743  1.0000 -0.2385260984
N   N7        1.0  0.30749  0.23971  0.12743  1.0000 -0.2314129986
N   N8        1.0  0.23971  0.30749  0.37257  1.0000 -0.2385260984
N   N9        1.0  0.57692  0.94808  0.48426  1.0000 -0.2385260984
N   N10       1.0  0.94808  0.57692  0.01574  1.0000 -0.2385260984
N   N11       1.0  0.42308  0.05192  0.51574  1.0000 -0.2385260984
N   N12       1.0  0.05192  0.42308  0.98426  1.0000 -0.2385260984
N   N13       1.0  0.15747  0.23193  0.49384  1.0000 -0.2385260984
N   N14       1.0  0.23193  0.15747  0.00616  1.0000 -0.2385260984
N   N15       1.0  0.84253  0.76807  0.50616  1.0000 -0.2385260984
N   N16       1.0  0.76807  0.84253  0.99384  1.0000 -0.2385260984
O   O1        1.0  0.80362  0.18658  0.91948  1.0000 -0.5578653272
O   O2        1.0  0.18658  0.80362  0.58052  1.0000 -0.5578653272
O   O3        1.0  0.19638  0.81342  0.08052  1.0000 -0.5578653272
O   O4        1.0  0.81342  0.19638  0.41948  1.0000 -0.5578653272
O   O5        1.0  0.68629  0.08891  0.99432  1.0000 -0.5401621442
O   O6        1.0  0.08891  0.68629  0.50568  1.0000 -0.5401621442
O   O7        1.0  0.31371  0.91109  0.00568  1.0000 -0.5401621442
O   O8        1.0  0.91109  0.31371  0.49432  1.0000 -0.5401621442
O   O9        1.0  0.87343  0.37897  0.86611  1.0000 -0.5094984825
O   O10       1.0  0.37897  0.87343  0.63389  1.0000 -0.5094984825
O   O11       1.0  0.12657  0.62103  0.13389  1.0000 -0.5094984825
O   O12       1.0  0.62103  0.12657  0.36611  1.0000 -0.5094984825
O   O13       1.0  0.04936  0.54364  0.91832  1.0000 -0.5514602419
O   O14       1.0  0.54364  0.04936  0.58168  1.0000 -0.5514602419
O   O15       1.0  0.95064  0.45636  0.08168  1.0000 -0.5514602419
O   O16       1.0  0.45636  0.95064  0.41832  1.0000 -0.5514602419
O   O17       1.0  0.88782  0.84378  0.87522  1.0000 -0.5401621442
O   O18       1.0  0.84378  0.88782  0.62478  1.0000 -0.5401621442
O   O19       1.0  0.11218  0.15622  0.12478  1.0000 -0.5401621442
O   O20       1.0  0.15622  0.11218  0.37522  1.0000 -0.5401621442
O   O21       1.0  0.06613  0.04287  0.83738  1.0000 -0.5578653272
O   O22       1.0  0.04287  0.06613  0.66262  1.0000 -0.5578653272
O   O23       1.0  0.93387  0.95713  0.16262  1.0000 -0.5578653272
O   O24       1.0  0.95713  0.93387  0.33738  1.0000 -0.5578653272
O   O25       1.0  0.10630  0.16370  0.00315  1.0000 -0.5184536333
O   O26       1.0  0.16370  0.10630  0.49685  1.0000 -0.5184536333
O   O27       1.0  0.89370  0.83630  0.99685  1.0000 -0.5184536333
O   O28       1.0  0.83630  0.89370  0.50315  1.0000 -0.5184536333
O   O29       1.0  0.29786  0.33474  0.04378  1.0000 -0.5184536333
O   O30       1.0  0.33474  0.29786  0.45622  1.0000 -0.5184536333
O   O31       1.0  0.70214  0.66526  0.95622  1.0000 -0.5184536333
O   O32       1.0  0.66526  0.70214  0.54378  1.0000 -0.5184536333
O   O33       1.0  0.07912  0.80308  0.75981  1.0000 -0.2314129986
O   O34       1.0  0.80308  0.07912  0.74019  1.0000 -0.2314129986
O   O35       1.0  0.92088  0.19692  0.24019  1.0000 -0.2314129986
O   O36       1.0  0.19692  0.92088  0.25981  1.0000 -0.2314129986
O   O37       1.0  0.37621  0.62239  0.87622  1.0000 -0.2314129986
O   O38       1.0  0.62239  0.37621  0.62378  1.0000 -0.2385260984
O   O39       1.0  0.62379  0.37761  0.12378  1.0000 -0.2385260984
O   O40       1.0  0.37761  0.62379  0.37622  1.0000 -0.2385260984
O   O41       1.0  0.19434  0.38686  0.60836  1.0000 -0.1905370187
O   O42       1.0  0.38686  0.19434  0.89164  1.0000 -0.1905370187
O   O43       1.0  0.80566  0.61314  0.39164  1.0000 -0.1905370187
O   O44       1.0  0.61314  0.80566  0.10836  1.0000 -0.1905370187
O   O45       1.0  0.41625  0.57935  0.75834  1.0000 -0.1543193515
O   O46       1.0  0.57935  0.41625  0.74166  1.0000 -0.1543193515
O   O47       1.0  0.58375  0.42065  0.24166  1.0000 -0.1543193515
O   O48       1.0  0.42065  0.58375  0.25834  1.0000 -0.1543193515
O   O49       1.0  0.45843  0.71077  0.59987  1.0000 -0.1686860378
O   O50       1.0  0.71077  0.45843  0.90013  1.0000 -0.1686860378
O   O51       1.0  0.54157  0.28923  0.40013  1.0000 -0.1686860378
O   O52       1.0  0.28923  0.54157  0.09987  1.0000 -0.1686860378
O   O53       1.0  0.25861  0.55519  0.74085  1.0000 -0.1627606656
O   O54       1.0  0.55519  0.25861  0.75915  1.0000 -0.1627606656
O   O55       1.0  0.74139  0.44481  0.25915  1.0000 -0.1627606656
O   O56       1.0  0.44481  0.74139  0.24085  1.0000 -0.1627606656
