# DDEC6 charges by PACMAN v1.1 (https://github.com/mtap-research/PACMAN-charge/)
data_2015[Mg][acs]3[ASR]1
_chemical_formula_sum              "Mg2 H6 C6 O12"
_cell_length_a       7.283
_cell_length_b       7.283
_cell_length_c       8.224
_cell_angle_alpha    90
_cell_angle_beta     90
_cell_angle_gamma    120

_symmetry_space_group_name_H-M    "P 1"
_symmetry_Int_Tables_number       1

loop_
  _symmetry_equiv_pos_as_xyz
  'x, y, z'

loop_
  _atom_site_type_symbol
  _atom_site_label
  _atom_site_symmetry_multiplicity
  _atom_site_fract_x
  _atom_site_fract_y
  _atom_site_fract_z
  _atom_site_occupancy
  _atom_site_charge
Mg  Mg1       1.0  0.66667  0.33333  0.75000  1.0000 1.301872593
Mg  Mg2       1.0  0.33333  0.66667  0.25000  1.0000 1.301872593
H   H1        1.0  0.00000  0.58697  0.00000  1.0000 0.0704884733
H   H2        1.0  1.00000  0.41303  0.50000  1.0000 0.0704884733
H   H3        1.0  0.58697  0.58697  0.50000  1.0000 0.0704884733
H   H4        1.0  0.41303  0.00000  0.50000  1.0000 0.0704884733
H   H5        1.0  0.41303  0.41303  0.00000  1.0000 0.0704884733
H   H6        1.0  0.58697  0.00000  0.00000  1.0000 0.0704884733
C   C1        1.0  0.00000  0.43980  0.00000  1.0000 0.5209092615
C   C2        1.0  0.00000  0.56020  0.50000  1.0000 0.5209092615
C   C3        1.0  0.43980  0.43980  0.50000  1.0000 0.5209092615
C   C4        1.0  0.56020  0.00000  0.50000  1.0000 0.5209092615
C   C5        1.0  0.56020  0.56020  0.00000  1.0000 0.5209092615
C   C6        1.0  0.43980  0.00000  0.00000  1.0000 0.5209092615
O   O1        1.0  0.89041  0.30994  0.89430  1.0000 -0.5126776329
O   O2        1.0  0.89041  0.58047  0.60570  1.0000 -0.5126776329
O   O3        1.0  0.41953  0.30994  0.60570  1.0000 -0.5126776329
O   O4        1.0  0.69006  0.10959  0.60570  1.0000 -0.5126776329
O   O5        1.0  0.58047  0.89041  0.39430  1.0000 -0.5126776329
O   O6        1.0  0.30994  0.41953  0.39430  1.0000 -0.5126776329
O   O7        1.0  0.10959  0.69006  0.39430  1.0000 -0.5126776329
O   O8        1.0  0.10959  0.41953  0.10570  1.0000 -0.5126776329
O   O9        1.0  0.58047  0.69006  0.10570  1.0000 -0.5126776329
O   O10       1.0  0.30994  0.89041  0.10570  1.0000 -0.5126776329
O   O11       1.0  0.41953  0.10959  0.89430  1.0000 -0.5126776329
O   O12       1.0  0.69006  0.58047  0.89430  1.0000 -0.5126776329
