# DDEC6 charges by PACMAN v1.1 (https://github.com/mtap-research/PACMAN-charge/)
data_2015[Fe][pts]3[ASR]4
_chemical_formula_sum              "Fe8 H64 C96 N32"
_cell_length_a       13.4333
_cell_length_b       13.8493
_cell_length_c       26.7477
_cell_angle_alpha    90
_cell_angle_beta     101.55
_cell_angle_gamma    90

_symmetry_space_group_name_H-M    "P 1"
_symmetry_Int_Tables_number       1

loop_
  _symmetry_equiv_pos_as_xyz
  'x, y, z'

loop_
  _atom_site_type_symbol
  _atom_site_label
  _atom_site_symmetry_multiplicity
  _atom_site_fract_x
  _atom_site_fract_y
  _atom_site_fract_z
  _atom_site_occupancy
  _atom_site_charge
Fe  Fe1       1.0  0.52075  0.63397  0.77092  1.0000 0.5386292835
Fe  Fe2       1.0  0.47925  0.13397  0.72908  1.0000 0.5386292835
Fe  Fe3       1.0  0.47925  0.36603  0.22908  1.0000 0.5386292835
Fe  Fe4       1.0  0.52075  0.86603  0.27092  1.0000 0.5386292835
Fe  Fe5       1.0  0.51159  0.38756  0.74249  1.0000 0.5386292835
Fe  Fe6       1.0  0.48841  0.88756  0.75751  1.0000 0.5386292835
Fe  Fe7       1.0  0.48841  0.61244  0.25751  1.0000 0.5386292835
Fe  Fe8       1.0  0.51159  0.11244  0.24249  1.0000 0.5386292835
H   H1        1.0  0.74650  0.37810  0.73110  1.0000 0.1101965462
H   H2        1.0  0.25350  0.87810  0.76890  1.0000 0.1101965462
H   H3        1.0  0.25350  0.62190  0.26890  1.0000 0.1101965462
H   H4        1.0  0.74650  0.12190  0.23110  1.0000 0.1101965462
H   H5        1.0  0.77380  0.64250  0.79430  1.0000 0.1101965462
H   H6        1.0  0.22620  0.14250  0.70570  1.0000 0.1101965462
H   H7        1.0  0.22620  0.35750  0.20570  1.0000 0.1101965462
H   H8        1.0  0.77380  0.85750  0.29430  1.0000 0.1101965462
H   H9        1.0  0.91430  0.38150  0.72470  1.0000 0.1101965462
H   H10       1.0  0.08570  0.88150  0.77530  1.0000 0.1101965462
H   H11       1.0  0.08570  0.61850  0.27530  1.0000 0.1101965462
H   H12       1.0  0.91430  0.11850  0.22470  1.0000 0.1101965462
H   H13       1.0  0.08730  0.38020  0.72300  1.0000 0.1101965462
H   H14       1.0  0.91270  0.88020  0.77700  1.0000 0.1101965462
H   H15       1.0  0.91270  0.61980  0.27700  1.0000 0.1101965462
H   H16       1.0  0.08730  0.11980  0.22300  1.0000 0.1101965462
H   H17       1.0  0.12260  0.63200  0.80170  1.0000 0.1101965462
H   H18       1.0  0.87740  0.13200  0.69830  1.0000 0.1101965462
H   H19       1.0  0.87740  0.36800  0.19830  1.0000 0.1101965462
H   H20       1.0  0.12260  0.86800  0.30170  1.0000 0.1101965462
H   H21       1.0  0.94970  0.63190  0.80380  1.0000 0.1101965462
H   H22       1.0  0.05030  0.13190  0.69620  1.0000 0.1101965462
H   H23       1.0  0.05030  0.36810  0.19620  1.0000 0.1101965462
H   H24       1.0  0.94970  0.86810  0.30380  1.0000 0.1101965462
H   H25       1.0  0.28760  0.63910  0.79220  1.0000 0.1101965462
H   H26       1.0  0.71240  0.13910  0.70780  1.0000 0.1101965462
H   H27       1.0  0.71240  0.36090  0.20780  1.0000 0.1101965462
H   H28       1.0  0.28760  0.86090  0.29220  1.0000 0.1101965462
H   H29       1.0  0.26250  0.37540  0.72910  1.0000 0.1101965462
H   H30       1.0  0.73750  0.87540  0.77090  1.0000 0.1101965462
H   H31       1.0  0.73750  0.62460  0.27090  1.0000 0.1101965462
H   H32       1.0  0.26250  0.12460  0.22910  1.0000 0.1101965462
H   H33       1.0  0.52550  0.41880  0.62140  1.0000 0.1101965462
H   H34       1.0  0.47450  0.91880  0.87860  1.0000 0.1101965462
H   H35       1.0  0.47450  0.58120  0.37860  1.0000 0.1101965462
H   H36       1.0  0.52550  0.08120  0.12140  1.0000 0.1101965462
H   H37       1.0  0.47340  0.13410  0.60830  1.0000 0.1101965462
H   H38       1.0  0.52660  0.63410  0.89170  1.0000 0.1101965462
H   H39       1.0  0.52660  0.86590  0.39170  1.0000 0.1101965462
H   H40       1.0  0.47340  0.36590  0.10830  1.0000 0.1101965462
H   H41       1.0  0.46790  0.41550  0.52220  1.0000 0.1101965462
H   H42       1.0  0.53210  0.91550  0.97780  1.0000 0.1101965462
H   H43       1.0  0.53210  0.58450  0.47780  1.0000 0.1101965462
H   H44       1.0  0.46790  0.08450  0.02220  1.0000 0.1101965462
H   H45       1.0  0.47600  0.40870  0.43610  1.0000 0.1101965462
H   H46       1.0  0.52400  0.90870  0.06390  1.0000 0.1101965462
H   H47       1.0  0.52400  0.59130  0.56390  1.0000 0.1101965462
H   H48       1.0  0.47600  0.09130  0.93610  1.0000 0.1101965462
H   H49       1.0  0.58130  0.13420  0.45530  1.0000 0.1101965462
H   H50       1.0  0.41870  0.63420  0.04470  1.0000 0.1101965462
H   H51       1.0  0.41870  0.86580  0.54470  1.0000 0.1101965462
H   H52       1.0  0.58130  0.36580  0.95530  1.0000 0.1101965462
H   H53       1.0  0.57000  0.14110  0.54020  1.0000 0.1152749782
H   H54       1.0  0.43000  0.64110  0.95980  1.0000 0.1152749782
H   H55       1.0  0.43000  0.85890  0.45980  1.0000 0.1152749782
H   H56       1.0  0.57000  0.35890  0.04020  1.0000 0.1152749782
H   H57       1.0  0.56600  0.12090  0.36740  1.0000 0.1101965462
H   H58       1.0  0.43400  0.62090  0.13260  1.0000 0.1101965462
H   H59       1.0  0.43400  0.87910  0.63260  1.0000 0.1101965462
H   H60       1.0  0.56600  0.37910  0.86740  1.0000 0.1101965462
H   H61       1.0  0.48180  0.39870  0.35010  1.0000 0.1101965462
H   H62       1.0  0.51820  0.89870  0.14990  1.0000 0.1101965462
H   H63       1.0  0.51820  0.60130  0.64990  1.0000 0.1101965462
H   H64       1.0  0.48180  0.10130  0.85010  1.0000 0.1101965462
C   C1        1.0  0.73210  0.43800  0.74544  1.0000 -0.070720296
C   C2        1.0  0.26790  0.93800  0.75456  1.0000 -0.070720296
C   C3        1.0  0.26790  0.56200  0.25456  1.0000 -0.070720296
C   C4        1.0  0.73210  0.06200  0.24544  1.0000 -0.070720296
C   C5        1.0  0.80420  0.50870  0.76384  1.0000 -0.0181823375
C   C6        1.0  0.19580  0.00870  0.73616  1.0000 -0.0181823375
C   C7        1.0  0.19580  0.49130  0.23616  1.0000 -0.0181823375
C   C8        1.0  0.80420  0.99130  0.26384  1.0000 -0.0181823375
C   C9        1.0  0.74690  0.58290  0.78004  1.0000 -0.0623736855
C   C10       1.0  0.25310  0.08290  0.71996  1.0000 -0.0623736855
C   C11       1.0  0.25310  0.41710  0.21996  1.0000 -0.0623736855
C   C12       1.0  0.74690  0.91710  0.28004  1.0000 -0.0623736855
C   C13       1.0  0.91470  0.50720  0.76427  1.0000 0.0833793816
C   C14       1.0  0.08530  0.00720  0.73573  1.0000 0.0833793816
C   C15       1.0  0.08530  0.49280  0.23573  1.0000 0.0833793816
C   C16       1.0  0.91470  0.99280  0.26427  1.0000 0.0833793816
C   C17       1.0  0.95660  0.43250  0.74043  1.0000 -0.1486260506
C   C18       1.0  0.04340  0.93250  0.75957  1.0000 -0.1486260506
C   C19       1.0  0.04340  0.56750  0.25957  1.0000 -0.1486260506
C   C20       1.0  0.95660  0.06750  0.24043  1.0000 -0.1486260506
C   C21       1.0  0.05980  0.43170  0.73936  1.0000 -0.1486260506
C   C22       1.0  0.94020  0.93170  0.76064  1.0000 -0.1486260506
C   C23       1.0  0.94020  0.56830  0.26064  1.0000 -0.1486260506
C   C24       1.0  0.05980  0.06830  0.23936  1.0000 -0.1486260506
C   C25       1.0  0.12330  0.50640  0.76235  1.0000 0.0877329763
C   C26       1.0  0.87670  0.00640  0.73765  1.0000 0.0877329763
C   C27       1.0  0.87670  0.49360  0.23765  1.0000 0.0877329763
C   C28       1.0  0.12330  0.99360  0.26235  1.0000 0.0877329763
C   C29       1.0  0.08080  0.58070  0.78606  1.0000 -0.1486260506
C   C30       1.0  0.91920  0.08070  0.71394  1.0000 -0.1486260506
C   C31       1.0  0.91920  0.41930  0.21394  1.0000 -0.1486260506
C   C32       1.0  0.08080  0.91930  0.28606  1.0000 -0.1486260506
C   C33       1.0  0.97740  0.58080  0.78716  1.0000 -0.1486260506
C   C34       1.0  0.02260  0.08080  0.71284  1.0000 -0.1486260506
C   C35       1.0  0.02260  0.41920  0.21284  1.0000 -0.1486260506
C   C36       1.0  0.97740  0.91920  0.28716  1.0000 -0.1486260506
C   C37       1.0  0.30260  0.57980  0.77745  1.0000 -0.070720296
C   C38       1.0  0.69740  0.07980  0.72255  1.0000 -0.070720296
C   C39       1.0  0.69740  0.42020  0.22255  1.0000 -0.070720296
C   C40       1.0  0.30260  0.92020  0.27745  1.0000 -0.070720296
C   C41       1.0  0.23340  0.50680  0.76107  1.0000 -0.0261860962
C   C42       1.0  0.76660  0.00680  0.73893  1.0000 -0.0261860962
C   C43       1.0  0.76660  0.49320  0.23893  1.0000 -0.0261860962
C   C44       1.0  0.23340  0.99320  0.26107  1.0000 -0.0261860962
C   C45       1.0  0.28900  0.43540  0.74294  1.0000 -0.0623736855
C   C46       1.0  0.71100  0.93540  0.75706  1.0000 -0.0623736855
C   C47       1.0  0.71100  0.56460  0.25706  1.0000 -0.0623736855
C   C48       1.0  0.28900  0.06460  0.24294  1.0000 -0.0623736855
C   C49       1.0  0.51250  0.35340  0.62867  1.0000 -0.070720296
C   C50       1.0  0.48750  0.85340  0.87133  1.0000 -0.070720296
C   C51       1.0  0.48750  0.64660  0.37133  1.0000 -0.070720296
C   C52       1.0  0.51250  0.14660  0.12867  1.0000 -0.070720296
C   C53       1.0  0.50490  0.27840  0.59399  1.0000 -0.0181823375
C   C54       1.0  0.49510  0.77840  0.90601  1.0000 -0.0181823375
C   C55       1.0  0.49510  0.72160  0.40601  1.0000 -0.0181823375
C   C56       1.0  0.50490  0.22160  0.09399  1.0000 -0.0181823375
C   C57       1.0  0.48370  0.19770  0.62164  1.0000 -0.070720296
C   C58       1.0  0.51630  0.69770  0.87836  1.0000 -0.070720296
C   C59       1.0  0.51630  0.80230  0.37836  1.0000 -0.070720296
C   C60       1.0  0.48370  0.30230  0.12164  1.0000 -0.070720296
C   C61       1.0  0.51460  0.27800  0.54019  1.0000 0.0877329763
C   C62       1.0  0.48540  0.77800  0.95981  1.0000 0.0877329763
C   C63       1.0  0.48540  0.72200  0.45981  1.0000 0.0877329763
C   C64       1.0  0.51460  0.22200  0.04019  1.0000 0.0877329763
C   C65       1.0  0.48920  0.35750  0.50856  1.0000 -0.1486260506
C   C66       1.0  0.51080  0.85750  0.99144  1.0000 -0.1486260506
C   C67       1.0  0.51080  0.64250  0.49144  1.0000 -0.1486260506
C   C68       1.0  0.48920  0.14250  0.00856  1.0000 -0.1486260506
C   C69       1.0  0.49440  0.35360  0.45710  1.0000 -0.1486260506
C   C70       1.0  0.50560  0.85360  0.04290  1.0000 -0.1486260506
C   C71       1.0  0.50560  0.64640  0.54290  1.0000 -0.1486260506
C   C72       1.0  0.49440  0.14640  0.95710  1.0000 -0.1486260506
C   C73       1.0  0.52640  0.26950  0.43599  1.0000 0.0877329763
C   C74       1.0  0.47360  0.76950  0.06401  1.0000 0.0877329763
C   C75       1.0  0.47360  0.73050  0.56401  1.0000 0.0877329763
C   C76       1.0  0.52640  0.23050  0.93599  1.0000 0.0877329763
C   C77       1.0  0.55630  0.19110  0.46832  1.0000 -0.1486260506
C   C78       1.0  0.44370  0.69110  0.03168  1.0000 -0.1486260506
C   C79       1.0  0.44370  0.80890  0.53168  1.0000 -0.1486260506
C   C80       1.0  0.55630  0.30890  0.96832  1.0000 -0.1486260506
C   C81       1.0  0.54990  0.19560  0.51897  1.0000 -0.1486260506
C   C82       1.0  0.45010  0.69560  0.98103  1.0000 -0.1486260506
C   C83       1.0  0.45010  0.80440  0.48103  1.0000 -0.1486260506
C   C84       1.0  0.54990  0.30440  0.01897  1.0000 -0.1486260506
C   C85       1.0  0.54490  0.18210  0.35304  1.0000 -0.0623736855
C   C86       1.0  0.45510  0.68210  0.14696  1.0000 -0.0623736855
C   C87       1.0  0.45510  0.81790  0.64696  1.0000 -0.0623736855
C   C88       1.0  0.54490  0.31790  0.85304  1.0000 -0.0623736855
C   C89       1.0  0.52550  0.26300  0.38109  1.0000 -0.0181823375
C   C90       1.0  0.47450  0.76300  0.11891  1.0000 -0.0181823375
C   C91       1.0  0.47450  0.73700  0.61891  1.0000 -0.0181823375
C   C92       1.0  0.52550  0.23700  0.88109  1.0000 -0.0181823375
C   C93       1.0  0.49930  0.33410  0.34365  1.0000 -0.0623736855
C   C94       1.0  0.50070  0.83410  0.15635  1.0000 -0.0623736855
C   C95       1.0  0.50070  0.66590  0.65635  1.0000 -0.0623736855
C   C96       1.0  0.49930  0.16590  0.84365  1.0000 -0.0623736855
N   N1        1.0  0.52960  0.20290  0.30320  1.0000 -0.1715672316
N   N2        1.0  0.47040  0.70290  0.19680  1.0000 -0.1715672316
N   N3        1.0  0.47040  0.79710  0.69680  1.0000 -0.1715672316
N   N4        1.0  0.52960  0.29710  0.80320  1.0000 -0.1715672316
N   N5        1.0  0.50250  0.29830  0.29731  1.0000 -0.1715672316
N   N6        1.0  0.49750  0.79830  0.20269  1.0000 -0.1715672316
N   N7        1.0  0.49750  0.70170  0.70269  1.0000 -0.1715672316
N   N8        1.0  0.50250  0.20170  0.79731  1.0000 -0.1715672316
N   N9        1.0  0.49870  0.32030  0.67417  1.0000 -0.1715672316
N   N10       1.0  0.50130  0.82030  0.82583  1.0000 -0.1715672316
N   N11       1.0  0.50130  0.67970  0.32583  1.0000 -0.1715672316
N   N12       1.0  0.49870  0.17970  0.17417  1.0000 -0.1715672316
N   N13       1.0  0.38550  0.46350  0.74783  1.0000 -0.1715672316
N   N14       1.0  0.61450  0.96350  0.75217  1.0000 -0.1715672316
N   N15       1.0  0.61450  0.53650  0.25217  1.0000 -0.1715672316
N   N16       1.0  0.38550  0.03650  0.24783  1.0000 -0.1715672316
N   N17       1.0  0.39510  0.55350  0.76913  1.0000 -0.1715672316
N   N18       1.0  0.60490  0.05350  0.73087  1.0000 -0.1715672316
N   N19       1.0  0.60490  0.44650  0.23087  1.0000 -0.1715672316
N   N20       1.0  0.39510  0.94650  0.26913  1.0000 -0.1715672316
N   N21       1.0  0.48030  0.22330  0.66988  1.0000 -0.1773688172
N   N22       1.0  0.51970  0.72330  0.83012  1.0000 -0.1773688172
N   N23       1.0  0.51970  0.77670  0.33012  1.0000 -0.1773688172
N   N24       1.0  0.48030  0.27670  0.16988  1.0000 -0.1773688172
N   N25       1.0  0.64880  0.55740  0.77241  1.0000 -0.1773688172
N   N26       1.0  0.35120  0.05740  0.72759  1.0000 -0.1773688172
N   N27       1.0  0.35120  0.44260  0.22759  1.0000 -0.1773688172
N   N28       1.0  0.64880  0.94260  0.27241  1.0000 -0.1773688172
N   N29       1.0  0.63890  0.46680  0.75099  1.0000 -0.1773688172
N   N30       1.0  0.36110  0.96680  0.74901  1.0000 -0.1773688172
N   N31       1.0  0.36110  0.53320  0.24901  1.0000 -0.1773688172
N   N32       1.0  0.63890  0.03320  0.25099  1.0000 -0.1773688172
