# DDEC6 charges by PACMAN v1.1 (https://github.com/mtap-research/PACMAN-charge/)
data_2015[Mn][scu]3[ASR]1
_chemical_formula_sum              "Mn8 H184 C224 O48"
_cell_length_a       14.8344
_cell_length_b       22.7703
_cell_length_c       19.6786
_cell_angle_alpha    90
_cell_angle_beta     104.147
_cell_angle_gamma    90

_symmetry_space_group_name_H-M    "P 1"
_symmetry_Int_Tables_number       1

loop_
  _symmetry_equiv_pos_as_xyz
  'x, y, z'

loop_
  _atom_site_type_symbol
  _atom_site_label
  _atom_site_symmetry_multiplicity
  _atom_site_fract_x
  _atom_site_fract_y
  _atom_site_fract_z
  _atom_site_occupancy
  _atom_site_charge
Mn  Mn1       1.0  0.46622  0.43038  0.96945  1.0000 1.0287047332
Mn  Mn2       1.0  0.03378  0.93038  0.03055  1.0000 1.0287047332
Mn  Mn3       1.0  0.53378  0.56962  0.03055  1.0000 1.0287047332
Mn  Mn4       1.0  0.96622  0.06962  0.96945  1.0000 1.0287047332
Mn  Mn5       1.0  0.21186  0.43931  0.94286  1.0000 1.0118344729
Mn  Mn6       1.0  0.28814  0.93931  0.05714  1.0000 1.0118344729
Mn  Mn7       1.0  0.78814  0.56069  0.05714  1.0000 1.0118344729
Mn  Mn8       1.0  0.71186  0.06069  0.94286  1.0000 1.0118344729
H   H1        1.0  0.37030  0.62770  0.90970  1.0000 0.1493223391
H   H2        1.0  0.12970  0.12770  0.09030  1.0000 0.1493223391
H   H3        1.0  0.62970  0.37230  0.09030  1.0000 0.1493223391
H   H4        1.0  0.87030  0.87230  0.90970  1.0000 0.1493223391
H   H5        1.0  0.41070  0.58860  0.85850  1.0000 0.1402796695
H   H6        1.0  0.08930  0.08860  0.14150  1.0000 0.1402796695
H   H7        1.0  0.58930  0.41140  0.14150  1.0000 0.1402796695
H   H8        1.0  0.91070  0.91140  0.85850  1.0000 0.1402796695
H   H9        1.0  0.14970  0.62120  0.71500  1.0000 0.1493223391
H   H10       1.0  0.35030  0.12120  0.28500  1.0000 0.1493223391
H   H11       1.0  0.85030  0.37880  0.28500  1.0000 0.1493223391
H   H12       1.0  0.64970  0.87880  0.71500  1.0000 0.1493223391
H   H13       1.0  0.36890  0.51590  0.79160  1.0000 0.1402796695
H   H14       1.0  0.13110  0.01590  0.20840  1.0000 0.1402796695
H   H15       1.0  0.63110  0.48410  0.20840  1.0000 0.1402796695
H   H16       1.0  0.86890  0.98410  0.79160  1.0000 0.1402796695
H   H17       1.0  0.39730  0.43350  0.72980  1.0000 0.1302692593
H   H18       1.0  0.10270  0.93350  0.27020  1.0000 0.1302692593
H   H19       1.0  0.60270  0.56650  0.27020  1.0000 0.1302692593
H   H20       1.0  0.89730  0.06650  0.72980  1.0000 0.1302692593
H   H21       1.0  0.40520  0.46020  0.65810  1.0000 0.1402796695
H   H22       1.0  0.09480  0.96020  0.34190  1.0000 0.1402796695
H   H23       1.0  0.59480  0.53980  0.34190  1.0000 0.1402796695
H   H24       1.0  0.90520  0.03980  0.65810  1.0000 0.1402796695
H   H25       1.0  0.32720  0.41420  0.66010  1.0000 0.1302692593
H   H26       1.0  0.17280  0.91420  0.33990  1.0000 0.1302692593
H   H27       1.0  0.67280  0.58580  0.33990  1.0000 0.1302692593
H   H28       1.0  0.82720  0.08580  0.66010  1.0000 0.1302692593
H   H29       1.0  0.05200  0.54350  0.56690  1.0000 0.1402796695
H   H30       1.0  0.44800  0.04350  0.43310  1.0000 0.1402796695
H   H31       1.0  0.94800  0.45650  0.43310  1.0000 0.1402796695
H   H32       1.0  0.55200  0.95650  0.56690  1.0000 0.1402796695
H   H33       1.0  0.10900  0.59860  0.55410  1.0000 0.1402796695
H   H34       1.0  0.39100  0.09860  0.44590  1.0000 0.1402796695
H   H35       1.0  0.89100  0.40140  0.44590  1.0000 0.1402796695
H   H36       1.0  0.60900  0.90140  0.55410  1.0000 0.1402796695
H   H37       1.0  0.04520  0.60230  0.60680  1.0000 0.1402796695
H   H38       1.0  0.45480  0.10230  0.39320  1.0000 0.1402796695
H   H39       1.0  0.95480  0.39770  0.39320  1.0000 0.1402796695
H   H40       1.0  0.54520  0.89770  0.60680  1.0000 0.1402796695
H   H41       1.0  0.25450  0.52800  0.51490  1.0000 0.1302692593
H   H42       1.0  0.24550  0.02800  0.48510  1.0000 0.1302692593
H   H43       1.0  0.74550  0.47200  0.48510  1.0000 0.1302692593
H   H44       1.0  0.75450  0.97200  0.51490  1.0000 0.1302692593
H   H45       1.0  0.13650  0.42130  0.67350  1.0000 0.1197601282
H   H46       1.0  0.36350  0.92130  0.32650  1.0000 0.1197601282
H   H47       1.0  0.86350  0.57870  0.32650  1.0000 0.1197601282
H   H48       1.0  0.63650  0.07870  0.67350  1.0000 0.1197601282
H   H49       1.0  0.06260  0.33370  0.67160  1.0000 0.1197601282
H   H50       1.0  0.43740  0.83370  0.32840  1.0000 0.1197601282
H   H51       1.0  0.93740  0.66630  0.32840  1.0000 0.1197601282
H   H52       1.0  0.56260  0.16630  0.67160  1.0000 0.1197601282
H   H53       1.0  0.09390  0.29130  0.34980  1.0000 0.1197601282
H   H54       1.0  0.40610  0.79130  0.65020  1.0000 0.1197601282
H   H55       1.0  0.90610  0.70870  0.65020  1.0000 0.1197601282
H   H56       1.0  0.59390  0.20870  0.34980  1.0000 0.1197601282
H   H57       1.0  0.16900  0.37790  0.35250  1.0000 0.1197601282
H   H58       1.0  0.33100  0.87790  0.64750  1.0000 0.1197601282
H   H59       1.0  0.83100  0.62210  0.64750  1.0000 0.1197601282
H   H60       1.0  0.66900  0.12210  0.35250  1.0000 0.1197601282
H   H61       1.0  0.96820  0.18640  0.50690  1.0000 0.1197601282
H   H62       1.0  0.53180  0.68640  0.49310  1.0000 0.1197601282
H   H63       1.0  0.03180  0.81360  0.49310  1.0000 0.1197601282
H   H64       1.0  0.46820  0.31360  0.50690  1.0000 0.1197601282
H   H65       1.0  0.17690  0.18370  0.73470  1.0000 0.1402796695
H   H66       1.0  0.32310  0.68370  0.26530  1.0000 0.1402796695
H   H67       1.0  0.82310  0.81630  0.26530  1.0000 0.1402796695
H   H68       1.0  0.67690  0.31630  0.73470  1.0000 0.1402796695
H   H69       1.0  0.16980  0.23020  0.67490  1.0000 0.1302692593
H   H70       1.0  0.33020  0.73020  0.32510  1.0000 0.1302692593
H   H71       1.0  0.83020  0.76980  0.32510  1.0000 0.1302692593
H   H72       1.0  0.66980  0.26980  0.67490  1.0000 0.1302692593
H   H73       1.0  0.14850  0.16390  0.65600  1.0000 0.1402796695
H   H74       1.0  0.35150  0.66390  0.34400  1.0000 0.1402796695
H   H75       1.0  0.85150  0.83610  0.34400  1.0000 0.1402796695
H   H76       1.0  0.64850  0.33610  0.65600  1.0000 0.1402796695
H   H77       1.0  0.76100  0.26510  0.57670  1.0000 0.1402796695
H   H78       1.0  0.73900  0.76510  0.42330  1.0000 0.1402796695
H   H79       1.0  0.23900  0.73490  0.42330  1.0000 0.1402796695
H   H80       1.0  0.26100  0.23490  0.57670  1.0000 0.1402796695
H   H81       1.0  0.82580  0.24920  0.52720  1.0000 0.1402796695
H   H82       1.0  0.67420  0.74920  0.47280  1.0000 0.1402796695
H   H83       1.0  0.17420  0.75080  0.47280  1.0000 0.1402796695
H   H84       1.0  0.32580  0.25080  0.52720  1.0000 0.1402796695
H   H85       1.0  0.83930  0.30880  0.56830  1.0000 0.1402796695
H   H86       1.0  0.66070  0.80880  0.43170  1.0000 0.1402796695
H   H87       1.0  0.16070  0.69120  0.43170  1.0000 0.1493223391
H   H88       1.0  0.33930  0.19120  0.56830  1.0000 0.1402796695
H   H89       1.0  0.79530  0.21920  0.68610  1.0000 0.1197601282
H   H90       1.0  0.70470  0.71920  0.31390  1.0000 0.1197601282
H   H91       1.0  0.20470  0.78080  0.31390  1.0000 0.1197601282
H   H92       1.0  0.29530  0.28080  0.68610  1.0000 0.1197601282
H   H93       1.0  0.05120  0.16670  0.78020  1.0000 0.1402796695
H   H94       1.0  0.44880  0.66667  0.21980  1.0000 0.1402796695
H   H95       1.0  0.94880  0.83330  0.21980  1.0000 0.1402796695
H   H96       1.0  0.55120  0.33333  0.78020  1.0000 0.1402796695
H   H97       1.0  0.76750  0.14720  0.74930  1.0000 0.1302692593
H   H98       1.0  0.73250  0.64720  0.25070  1.0000 0.1302692593
H   H99       1.0  0.23250  0.85280  0.25070  1.0000 0.1302692593
H   H100      1.0  0.26750  0.35280  0.74930  1.0000 0.1302692593
H   H101      1.0  0.77350  0.20120  0.79980  1.0000 0.1402796695
H   H102      1.0  0.72650  0.70120  0.20020  1.0000 0.1402796695
H   H103      1.0  0.22650  0.79880  0.20020  1.0000 0.1402796695
H   H104      1.0  0.27350  0.29880  0.79980  1.0000 0.1402796695
H   H105      1.0  0.08180  0.10940  0.29050  1.0000 0.1302692593
H   H106      1.0  0.41820  0.60940  0.70950  1.0000 0.1302692593
H   H107      1.0  0.91820  0.89060  0.70950  1.0000 0.1302692593
H   H108      1.0  0.58180  0.39060  0.29050  1.0000 0.1302692593
H   H109      1.0  0.82660  0.17960  0.24820  1.0000 0.1302692593
H   H110      1.0  0.67340  0.67960  0.75180  1.0000 0.1302692593
H   H111      1.0  0.17340  0.82040  0.75180  1.0000 0.1302692593
H   H112      1.0  0.32660  0.32040  0.24820  1.0000 0.1302692593
H   H113      1.0  0.78900  0.25530  0.31700  1.0000 0.1402796695
H   H114      1.0  0.71100  0.75530  0.68300  1.0000 0.1402796695
H   H115      1.0  0.21100  0.74470  0.68300  1.0000 0.1402796695
H   H116      1.0  0.28900  0.24470  0.31700  1.0000 0.1402796695
H   H117      1.0  0.86570  0.28420  0.37670  1.0000 0.1402796695
H   H118      1.0  0.63430  0.78420  0.62330  1.0000 0.1402796695
H   H119      1.0  0.13430  0.71580  0.62330  1.0000 0.1402796695
H   H120      1.0  0.36570  0.21580  0.37670  1.0000 0.1402796695
H   H121      1.0  0.81210  0.22860  0.39270  1.0000 0.1402796695
H   H122      1.0  0.68790  0.72860  0.60730  1.0000 0.1402796695
H   H123      1.0  0.18790  0.77140  0.60730  1.0000 0.1402796695
H   H124      1.0  0.31210  0.27140  0.39270  1.0000 0.1402796695
H   H125      1.0  0.19030  0.12630  0.39510  1.0000 0.1402796695
H   H126      1.0  0.30970  0.62630  0.60490  1.0000 0.1402796695
H   H127      1.0  0.80970  0.87370  0.60490  1.0000 0.1402796695
H   H128      1.0  0.69030  0.37370  0.39510  1.0000 0.1402796695
H   H129      1.0  0.15230  0.14690  0.45890  1.0000 0.1402796695
H   H130      1.0  0.34770  0.64690  0.54110  1.0000 0.1402796695
H   H131      1.0  0.84770  0.85310  0.54110  1.0000 0.1402796695
H   H132      1.0  0.65230  0.35310  0.45890  1.0000 0.1402796695
H   H133      1.0  0.19350  0.19290  0.41540  1.0000 0.1402796695
H   H134      1.0  0.30650  0.69290  0.58460  1.0000 0.1402796695
H   H135      1.0  0.80650  0.80710  0.58460  1.0000 0.1402796695
H   H136      1.0  0.69350  0.30710  0.41540  1.0000 0.1402796695
H   H137      1.0  0.81810  0.14630  0.15110  1.0000 0.1302692593
H   H138      1.0  0.68190  0.64630  0.84890  1.0000 0.1302692593
H   H139      1.0  0.18190  0.85370  0.84890  1.0000 0.1302692593
H   H140      1.0  0.31810  0.35370  0.15110  1.0000 0.1302692593
H   H141      1.0  0.80750  0.08110  0.17410  1.0000 0.1302692593
H   H142      1.0  0.69250  0.58110  0.82590  1.0000 0.1302692593
H   H143      1.0  0.19250  0.91890  0.82590  1.0000 0.1302692593
H   H144      1.0  0.30750  0.41890  0.17410  1.0000 0.1302692593
H   H145      1.0  0.41040  0.48340  0.31480  1.0000 0.1197601282
H   H146      1.0  0.08960  0.98340  0.68520  1.0000 0.1197601282
H   H147      1.0  0.58960  0.51660  0.68520  1.0000 0.1197601282
H   H148      1.0  0.91040  0.01660  0.31480  1.0000 0.1197601282
H   H149      1.0  0.16500  0.56260  0.25260  1.0000 0.1493223391
H   H150      1.0  0.33500  0.06260  0.74740  1.0000 0.1493223391
H   H151      1.0  0.83500  0.43740  0.74740  1.0000 0.1493223391
H   H152      1.0  0.66500  0.93740  0.25260  1.0000 0.1493223391
H   H153      1.0  0.04860  0.55360  0.31190  1.0000 0.1402796695
H   H154      1.0  0.45140  0.05360  0.68810  1.0000 0.1402796695
H   H155      1.0  0.95140  0.44640  0.68810  1.0000 0.1402796695
H   H156      1.0  0.54860  0.94640  0.31190  1.0000 0.1402796695
H   H157      1.0  0.08860  0.55430  0.39340  1.0000 0.1302692593
H   H158      1.0  0.41140  0.05430  0.60660  1.0000 0.1302692593
H   H159      1.0  0.91140  0.44570  0.60660  1.0000 0.1302692593
H   H160      1.0  0.58860  0.94570  0.39340  1.0000 0.1302692593
H   H161      1.0  0.04950  0.49580  0.35540  1.0000 0.1402796695
H   H162      1.0  0.45050  0.99580  0.64460  1.0000 0.1402796695
H   H163      1.0  0.95050  0.50420  0.64460  1.0000 0.1402796695
H   H164      1.0  0.54950  0.00420  0.35540  1.0000 0.1402796695
H   H165      1.0  0.44990  0.42910  0.41800  1.0000 0.1402796695
H   H166      1.0  0.05010  0.92910  0.58200  1.0000 0.1402796695
H   H167      1.0  0.55010  0.57090  0.58200  1.0000 0.1402796695
H   H168      1.0  0.94990  0.07090  0.41800  1.0000 0.1402796695
H   H169      1.0  0.36670  0.39460  0.43510  1.0000 0.1402796695
H   H170      1.0  0.13330  0.89460  0.56490  1.0000 0.1402796695
H   H171      1.0  0.63330  0.60540  0.56490  1.0000 0.1402796695
H   H172      1.0  0.86670  0.10540  0.43510  1.0000 0.1402796695
H   H173      1.0  0.40500  0.45130  0.47760  1.0000 0.1402796695
H   H174      1.0  0.09500  0.95130  0.52240  1.0000 0.1402796695
H   H175      1.0  0.59500  0.54870  0.52240  1.0000 0.1402796695
H   H176      1.0  0.90500  0.04870  0.47760  1.0000 0.1402796695
H   H177      1.0  0.40820  0.49620  0.20170  1.0000 0.1074277168
H   H178      1.0  0.09180  0.99620  0.79830  1.0000 0.1074277168
H   H179      1.0  0.59180  0.50380  0.79830  1.0000 0.1074277168
H   H180      1.0  0.90820  0.00380  0.20170  1.0000 0.1074277168
H   H181      1.0  0.44530  0.55330  0.24400  1.0000 0.1197601282
H   H182      1.0  0.05470  0.05330  0.75600  1.0000 0.1197601282
H   H183      1.0  0.55470  0.44670  0.75600  1.0000 0.1197601282
H   H184      1.0  0.94530  0.94670  0.24400  1.0000 0.1197601282
C   C1        1.0  0.34180  0.54030  0.91780  1.0000 0.6297149663
C   C2        1.0  0.15820  0.04030  0.08220  1.0000 0.6297149663
C   C3        1.0  0.65820  0.45970  0.08220  1.0000 0.6297149663
C   C4        1.0  0.84180  0.95970  0.91780  1.0000 0.6297149663
C   C5        1.0  0.35710  0.59460  0.87770  1.0000 -0.1798932138
C   C6        1.0  0.14290  0.09460  0.12230  1.0000 -0.1798932138
C   C7        1.0  0.64290  0.40540  0.12230  1.0000 -0.1798932138
C   C8        1.0  0.85710  0.90540  0.87770  1.0000 -0.1798932138
C   C9        1.0  0.26260  0.57390  0.76330  1.0000 0.261506856
C   C10       1.0  0.23740  0.07390  0.23670  1.0000 0.261506856
C   C11       1.0  0.73740  0.42610  0.23670  1.0000 0.261506856
C   C12       1.0  0.76260  0.92610  0.76330  1.0000 0.261506856
C   C13       1.0  0.18670  0.58950  0.70920  1.0000 -0.2974515254
C   C14       1.0  0.31330  0.08950  0.29080  1.0000 -0.2974515254
C   C15       1.0  0.81330  0.41050  0.29080  1.0000 -0.2974515254
C   C16       1.0  0.68670  0.91050  0.70920  1.0000 -0.2974515254
C   C17       1.0  0.16560  0.55820  0.64680  1.0000 0.1493223391
C   C18       1.0  0.33440  0.05820  0.35320  1.0000 0.1493223391
C   C19       1.0  0.83440  0.44180  0.35320  1.0000 0.1493223391
C   C20       1.0  0.66560  0.94180  0.64680  1.0000 0.1493223391
C   C21       1.0  0.22230  0.51069  0.63890  1.0000 -0.0852900366
C   C22       1.0  0.27770  0.01069  0.36110  1.0000 -0.0852900366
C   C23       1.0  0.77770  0.48931  0.36110  1.0000 -0.0852900366
C   C24       1.0  0.72230  0.98931  0.63890  1.0000 -0.0852900366
C   C25       1.0  0.29780  0.49580  0.69290  1.0000 0.1568570235
C   C26       1.0  0.20220  0.99580  0.30710  1.0000 0.1568570235
C   C27       1.0  0.70220  0.50420  0.30710  1.0000 0.1568570235
C   C28       1.0  0.79780  0.00420  0.69290  1.0000 0.1568570235
C   C29       1.0  0.31850  0.52660  0.75540  1.0000 -0.3131051655
C   C30       1.0  0.18150  0.02660  0.24460  1.0000 -0.3131051655
C   C31       1.0  0.68150  0.47340  0.24460  1.0000 -0.3131051655
C   C32       1.0  0.81850  0.97340  0.75540  1.0000 -0.3131051655
C   C33       1.0  0.36280  0.44640  0.68440  1.0000 -0.4699660967
C   C34       1.0  0.13720  0.94640  0.31560  1.0000 -0.4699660967
C   C35       1.0  0.63720  0.55360  0.31560  1.0000 -0.4699660967
C   C36       1.0  0.86280  0.05360  0.68440  1.0000 -0.4699660967
C   C37       1.0  0.08580  0.57730  0.58840  1.0000 -0.4699660967
C   C38       1.0  0.41420  0.07730  0.41160  1.0000 -0.4699660967
C   C39       1.0  0.91420  0.42270  0.41160  1.0000 -0.4699660967
C   C40       1.0  0.58580  0.92270  0.58840  1.0000 -0.4699660967
C   C41       1.0  0.20040  0.47365  0.57380  1.0000 0.0412009847
C   C42       1.0  0.29960  0.97365  0.42620  1.0000 0.0412009847
C   C43       1.0  0.79960  0.52635  0.42620  1.0000 0.0412009847
C   C44       1.0  0.70040  0.02635  0.57380  1.0000 0.0412009847
C   C45       1.0  0.22540  0.49180  0.51430  1.0000 -0.1798932138
C   C46       1.0  0.27460  0.99180  0.48570  1.0000 -0.1798932138
C   C47       1.0  0.77460  0.50820  0.48570  1.0000 -0.1798932138
C   C48       1.0  0.72540  0.00820  0.51430  1.0000 -0.1798932138
C   C49       1.0  0.20960  0.45880  0.45330  1.0000 0.0412009847
C   C50       1.0  0.29040  0.95880  0.54670  1.0000 0.0412009847
C   C51       1.0  0.79040  0.54120  0.54670  1.0000 0.0412009847
C   C52       1.0  0.70960  0.04120  0.45330  1.0000 0.0412009847
C   C53       1.0  0.16680  0.40330  0.45170  1.0000 0.0193025568
C   C54       1.0  0.33320  0.90330  0.54830  1.0000 0.0193025568
C   C55       1.0  0.83320  0.59670  0.54830  1.0000 0.0193025568
C   C56       1.0  0.66680  0.09670  0.45170  1.0000 0.0193025568
C   C57       1.0  0.13880  0.38370  0.51190  1.0000 -0.01407236
C   C58       1.0  0.36120  0.88370  0.48810  1.0000 -0.01407236
C   C59       1.0  0.86120  0.61630  0.48810  1.0000 -0.01407236
C   C60       1.0  0.63880  0.11630  0.51190  1.0000 -0.01407236
C   C61       1.0  0.15580  0.41948  0.57340  1.0000 0.0193025568
C   C62       1.0  0.34420  0.91948  0.42660  1.0000 0.0193025568
C   C63       1.0  0.84420  0.58052  0.42660  1.0000 0.0193025568
C   C64       1.0  0.65580  0.08052  0.57340  1.0000 0.0193025568
C   C65       1.0  0.12560  0.39840  0.63310  1.0000 -0.1411876543
C   C66       1.0  0.37440  0.89840  0.36690  1.0000 -0.1411876543
C   C67       1.0  0.87440  0.60160  0.36690  1.0000 -0.1411876543
C   C68       1.0  0.62560  0.10160  0.63310  1.0000 -0.1411876543
C   C69       1.0  0.08140  0.34590  0.63210  1.0000 -0.1411876543
C   C70       1.0  0.41860  0.84590  0.36790  1.0000 -0.1411876543
C   C71       1.0  0.91860  0.65410  0.36790  1.0000 -0.1411876543
C   C72       1.0  0.58140  0.15410  0.63210  1.0000 -0.1411876543
C   C73       1.0  0.06330  0.30897  0.57120  1.0000 0.0193025568
C   C74       1.0  0.43670  0.80897  0.42880  1.0000 0.0193025568
C   C75       1.0  0.93670  0.69103  0.42880  1.0000 0.0193025568
C   C76       1.0  0.56330  0.19103  0.57120  1.0000 0.0193025568
C   C77       1.0  0.09190  0.32840  0.51130  1.0000 -0.01407236
C   C78       1.0  0.40810  0.82840  0.48870  1.0000 -0.01407236
C   C79       1.0  0.90810  0.67160  0.48870  1.0000 -0.01407236
C   C80       1.0  0.59190  0.17160  0.51130  1.0000 -0.01407236
C   C81       1.0  0.07430  0.29310  0.44940  1.0000 0.0193025568
C   C82       1.0  0.42570  0.79310  0.55060  1.0000 0.0193025568
C   C83       1.0  0.92570  0.70690  0.55060  1.0000 0.0193025568
C   C84       1.0  0.57430  0.20690  0.44940  1.0000 0.0193025568
C   C85       1.0  0.10480  0.31400  0.39030  1.0000 -0.1411876543
C   C86       1.0  0.39520  0.81400  0.60970  1.0000 -0.1411876543
C   C87       1.0  0.89520  0.68600  0.60970  1.0000 -0.1411876543
C   C88       1.0  0.60480  0.18600  0.39030  1.0000 -0.1411876543
C   C89       1.0  0.14930  0.36610  0.39170  1.0000 -0.1306953239
C   C90       1.0  0.35070  0.86610  0.60830  1.0000 -0.1306953239
C   C91       1.0  0.85070  0.63390  0.60830  1.0000 -0.1306953239
C   C92       1.0  0.64930  0.13390  0.39170  1.0000 -0.1306953239
C   C93       1.0  0.02570  0.23960  0.44850  1.0000 0.0412009847
C   C94       1.0  0.47430  0.73960  0.55150  1.0000 0.0412009847
C   C95       1.0  0.97430  0.76040  0.55150  1.0000 0.0412009847
C   C96       1.0  0.52570  0.26040  0.44850  1.0000 0.0412009847
C   C97       1.0  0.99910  0.22200  0.50800  1.0000 -0.1913104946
C   C98       1.0  0.50090  0.72200  0.49200  1.0000 -0.1913104946
C   C99       1.0  0.00090  0.77800  0.49200  1.0000 -0.1913104946
C   C100      1.0  0.49910  0.27800  0.50800  1.0000 -0.1913104946
C   C101      1.0  0.01600  0.25510  0.56940  1.0000 0.0412009847
C   C102      1.0  0.48400  0.75510  0.43060  1.0000 0.0412009847
C   C103      1.0  0.98400  0.74490  0.43060  1.0000 0.0412009847
C   C104      1.0  0.51600  0.24490  0.56940  1.0000 0.0412009847
C   C105      1.0  0.14370  0.19480  0.68830  1.0000 -0.4623485687
C   C106      1.0  0.35630  0.69480  0.31170  1.0000 -0.4623485687
C   C107      1.0  0.85630  0.80520  0.31170  1.0000 -0.4623485687
C   C108      1.0  0.64370  0.30520  0.68830  1.0000 -0.4623485687
C   C109      1.0  0.98240  0.23290  0.63060  1.0000 -0.0818074983
C   C110      1.0  0.51760  0.73290  0.36940  1.0000 -0.0818074983
C   C111      1.0  0.01760  0.76710  0.36940  1.0000 -0.0818074983
C   C112      1.0  0.48240  0.26710  0.63060  1.0000 -0.0818074983
C   C113      1.0  0.89010  0.23890  0.63050  1.0000 0.1493223391
C   C114      1.0  0.60990  0.73890  0.36950  1.0000 0.1493223391
C   C115      1.0  0.10990  0.76110  0.36950  1.0000 0.1493223391
C   C116      1.0  0.39010  0.26110  0.63050  1.0000 0.1493223391
C   C117      1.0  0.82300  0.26810  0.57020  1.0000 -0.4623485687
C   C118      1.0  0.67700  0.76810  0.42980  1.0000 -0.4623485687
C   C119      1.0  0.17700  0.73190  0.42980  1.0000 -0.4623485687
C   C120      1.0  0.32300  0.23190  0.57020  1.0000 -0.4623485687
C   C121      1.0  0.85800  0.21670  0.68660  1.0000 -0.3195595736
C   C122      1.0  0.64200  0.71670  0.31340  1.0000 -0.3195595736
C   C123      1.0  0.14200  0.78330  0.31340  1.0000 -0.3195595736
C   C124      1.0  0.35800  0.28330  0.68660  1.0000 -0.3195595736
C   C125      1.0  0.91990  0.19080  0.74300  1.0000 0.2345403438
C   C126      1.0  0.58010  0.69080  0.25700  1.0000 0.2345403438
C   C127      1.0  0.08010  0.80920  0.25700  1.0000 0.2345403438
C   C128      1.0  0.41990  0.30920  0.74300  1.0000 0.2345403438
C   C129      1.0  0.01040  0.18470  0.74250  1.0000 -0.2679411764
C   C130      1.0  0.48960  0.68470  0.25750  1.0000 -0.2679411764
C   C131      1.0  0.98960  0.81530  0.25750  1.0000 -0.2679411764
C   C132      1.0  0.51040  0.31530  0.74250  1.0000 -0.2679411764
C   C133      1.0  0.04300  0.20480  0.68690  1.0000 0.1493223391
C   C134      1.0  0.45700  0.70480  0.31310  1.0000 0.1493223391
C   C135      1.0  0.95700  0.79520  0.31310  1.0000 0.1493223391
C   C136      1.0  0.54300  0.29520  0.68690  1.0000 0.1493223391
C   C137      1.0  0.79850  0.16250  0.79500  1.0000 -0.1587857674
C   C138      1.0  0.70150  0.66250  0.20500  1.0000 -0.1587857674
C   C139      1.0  0.20150  0.83750  0.20500  1.0000 -0.1587857674
C   C140      1.0  0.29850  0.33750  0.79500  1.0000 -0.1587857674
C   C141      1.0  0.77980  0.12210  0.85180  1.0000 0.6119109546
C   C142      1.0  0.72020  0.62210  0.14820  1.0000 0.6119109546
C   C143      1.0  0.22020  0.87790  0.14820  1.0000 0.6119109546
C   C144      1.0  0.27980  0.37790  0.85180  1.0000 0.6119109546
C   C145      1.0  0.99990  0.20400  0.38350  1.0000 -0.0852900366
C   C146      1.0  0.50010  0.70400  0.61650  1.0000 -0.0852900366
C   C147      1.0  0.00010  0.79600  0.61650  1.0000 -0.0852900366
C   C148      1.0  0.49990  0.29600  0.38350  1.0000 -0.0852900366
C   C149      1.0  0.06410  0.16570  0.36510  1.0000 0.1493223391
C   C150      1.0  0.43590  0.66570  0.63490  1.0000 0.1493223391
C   C151      1.0  0.93590  0.83430  0.63490  1.0000 0.1493223391
C   C152      1.0  0.56410  0.33430  0.36510  1.0000 0.1493223391
C   C153      1.0  0.03900  0.13450  0.30290  1.0000 -0.2876083399
C   C154      1.0  0.46100  0.63450  0.69710  1.0000 -0.2876083399
C   C155      1.0  0.96100  0.86550  0.69710  1.0000 -0.2876083399
C   C156      1.0  0.53900  0.36550  0.30290  1.0000 -0.2876083399
C   C157      1.0  0.95050  0.14020  0.25870  1.0000 0.240869381
C   C158      1.0  0.54950  0.64020  0.74130  1.0000 0.240869381
C   C159      1.0  0.04950  0.85980  0.74130  1.0000 0.240869381
C   C160      1.0  0.45050  0.35980  0.25870  1.0000 0.240869381
C   C161      1.0  0.88610  0.17650  0.27730  1.0000 -0.3195595736
C   C162      1.0  0.61390  0.67650  0.72270  1.0000 -0.3195595736
C   C163      1.0  0.11390  0.82350  0.72270  1.0000 -0.3195595736
C   C164      1.0  0.38610  0.32350  0.27730  1.0000 -0.3195595736
C   C165      1.0  0.90980  0.20880  0.33950  1.0000 0.1568570235
C   C166      1.0  0.59020  0.70880  0.66050  1.0000 0.1568570235
C   C167      1.0  0.09020  0.79120  0.66050  1.0000 0.1568570235
C   C168      1.0  0.40980  0.29120  0.33950  1.0000 0.1568570235
C   C169      1.0  0.83760  0.24780  0.35820  1.0000 -0.4699660967
C   C170      1.0  0.66240  0.74780  0.64180  1.0000 -0.4699660967
C   C171      1.0  0.16240  0.75220  0.64180  1.0000 -0.4699660967
C   C172      1.0  0.33760  0.25220  0.35820  1.0000 -0.4699660967
C   C173      1.0  0.15850  0.15720  0.41290  1.0000 -0.4699660967
C   C174      1.0  0.34150  0.65720  0.58710  1.0000 -0.4699660967
C   C175      1.0  0.84150  0.84280  0.58710  1.0000 -0.4699660967
C   C176      1.0  0.65850  0.34280  0.41290  1.0000 -0.4699660967
C   C177      1.0  0.84550  0.10740  0.15400  1.0000 -0.1694142664
C   C178      1.0  0.65450  0.60740  0.84600  1.0000 -0.1694142664
C   C179      1.0  0.15450  0.89260  0.84600  1.0000 -0.1694142664
C   C180      1.0  0.34550  0.39260  0.15400  1.0000 -0.1694142664
C   C181      1.0  0.84730  0.08600  0.08030  1.0000 0.6297149663
C   C182      1.0  0.65270  0.58600  0.91970  1.0000 0.6297149663
C   C183      1.0  0.15270  0.91400  0.91970  1.0000 0.6297149663
C   C184      1.0  0.34730  0.41400  0.08030  1.0000 0.6297149663
C   C185      1.0  0.23820  0.48180  0.39060  1.0000 -0.0818074983
C   C186      1.0  0.26180  0.98180  0.60940  1.0000 -0.0818074983
C   C187      1.0  0.76180  0.51820  0.60940  1.0000 -0.0818074983
C   C188      1.0  0.73820  0.01820  0.39060  1.0000 -0.0818074983
C   C189      1.0  0.32620  0.46930  0.38060  1.0000 0.1493223391
C   C190      1.0  0.17380  0.96930  0.61940  1.0000 0.1493223391
C   C191      1.0  0.67380  0.53070  0.61940  1.0000 0.1493223391
C   C192      1.0  0.82620  0.03070  0.38060  1.0000 0.1493223391
C   C193      1.0  0.35200  0.49180  0.32170  1.0000 -0.3195595736
C   C194      1.0  0.14800  0.99180  0.67830  1.0000 -0.3195595736
C   C195      1.0  0.64800  0.50820  0.67830  1.0000 -0.3195595736
C   C196      1.0  0.85200  0.00820  0.32170  1.0000 -0.3195595736
C   C197      1.0  0.29110  0.52640  0.27400  1.0000 0.240869381
C   C198      1.0  0.20890  0.02640  0.72600  1.0000 0.240869381
C   C199      1.0  0.70890  0.47360  0.72600  1.0000 0.240869381
C   C200      1.0  0.79110  0.97360  0.27400  1.0000 0.240869381
C   C201      1.0  0.20530  0.53880  0.28460  1.0000 -0.2876083399
C   C202      1.0  0.29470  0.03880  0.71540  1.0000 -0.2876083399
C   C203      1.0  0.79470  0.46120  0.71540  1.0000 -0.2876083399
C   C204      1.0  0.70530  0.96120  0.28460  1.0000 -0.2876083399
C   C205      1.0  0.17700  0.51690  0.34190  1.0000 0.1493223391
C   C206      1.0  0.32300  0.01690  0.65810  1.0000 0.1493223391
C   C207      1.0  0.82300  0.48310  0.65810  1.0000 0.1493223391
C   C208      1.0  0.67700  0.98310  0.34190  1.0000 0.1493223391
C   C209      1.0  0.08240  0.53150  0.35150  1.0000 -0.4539064015
C   C210      1.0  0.41760  0.03150  0.64850  1.0000 -0.4539064015
C   C211      1.0  0.91760  0.46850  0.64850  1.0000 -0.4539064015
C   C212      1.0  0.58240  0.96850  0.35150  1.0000 -0.4539064015
C   C213      1.0  0.39290  0.43290  0.43240  1.0000 -0.4699660967
C   C214      1.0  0.10710  0.93290  0.56760  1.0000 -0.4699660967
C   C215      1.0  0.60710  0.56710  0.56760  1.0000 -0.4699660967
C   C216      1.0  0.89290  0.06710  0.43240  1.0000 -0.4699660967
C   C217      1.0  0.39900  0.53820  0.20410  1.0000 -0.1798932138
C   C218      1.0  0.10100  0.03820  0.79590  1.0000 -0.1798932138
C   C219      1.0  0.60100  0.46180  0.79590  1.0000 -0.1798932138
C   C220      1.0  0.89900  0.96180  0.20410  1.0000 -0.1798932138
C   C221      1.0  0.41270  0.56690  0.13720  1.0000 0.6016224926
C   C222      1.0  0.08730  0.06690  0.86280  1.0000 0.6016224926
C   C223      1.0  0.58730  0.43310  0.86280  1.0000 0.6016224926
C   C224      1.0  0.91270  0.93310  0.13720  1.0000 0.6016224926
O   O1        1.0  0.41360  0.52165  0.96285  1.0000 -0.6024900372
O   O2        1.0  0.08640  0.02165  0.03715  1.0000 -0.6024900372
O   O3        1.0  0.58640  0.47835  0.03715  1.0000 -0.6024900372
O   O4        1.0  0.91360  0.97835  0.96285  1.0000 -0.6024900372
O   O5        1.0  0.26390  0.51672  0.90528  1.0000 -0.5255121733
O   O6        1.0  0.23610  0.01672  0.09472  1.0000 -0.5255121733
O   O7        1.0  0.73610  0.48328  0.09472  1.0000 -0.5255121733
O   O8        1.0  0.76390  0.98328  0.90528  1.0000 -0.5255121733
O   O9        1.0  0.27740  0.60834  0.82137  1.0000 -0.1306953239
O   O10       1.0  0.22260  0.10834  0.17863  1.0000 -0.1306953239
O   O11       1.0  0.72260  0.39166  0.17863  1.0000 -0.1306953239
O   O12       1.0  0.77740  0.89166  0.82137  1.0000 -0.1306953239
O   O13       1.0  0.48360  0.54955  0.12036  1.0000 -0.5777699198
O   O14       1.0  0.01640  0.04955  0.87964  1.0000 -0.5777699198
O   O15       1.0  0.51640  0.45045  0.87964  1.0000 -0.5777699198
O   O16       1.0  0.98360  0.95045  0.12036  1.0000 -0.5777699198
O   O17       1.0  0.35870  0.60700  0.10830  1.0000 -0.5501795853
O   O18       1.0  0.14130  0.10700  0.89170  1.0000 -0.5501795853
O   O19       1.0  0.64130  0.39300  0.89170  1.0000 -0.5501795853
O   O20       1.0  0.85870  0.89300  0.10830  1.0000 -0.5501795853
O   O21       1.0  0.30930  0.54910  0.21432  1.0000 -0.1306953239
O   O22       1.0  0.19070  0.04910  0.78568  1.0000 -0.1306953239
O   O23       1.0  0.69070  0.45090  0.78568  1.0000 -0.1306953239
O   O24       1.0  0.80930  0.95090  0.21432  1.0000 -0.1306953239
O   O25       1.0  0.91830  0.09100  0.06053  1.0000 -0.5255121733
O   O26       1.0  0.58170  0.59100  0.93947  1.0000 -0.5255121733
O   O27       1.0  0.08170  0.90900  0.93947  1.0000 -0.5255121733
O   O28       1.0  0.41830  0.40900  0.06053  1.0000 -0.5255121733
O   O29       1.0  0.77270  0.06440  0.04760  1.0000 -0.5668270583
O   O30       1.0  0.72730  0.56440  0.95240  1.0000 -0.5668270583
O   O31       1.0  0.22730  0.93560  0.95240  1.0000 -0.5668270583
O   O32       1.0  0.27270  0.43560  0.04760  1.0000 -0.5668270583
O   O33       1.0  0.84030  0.10809  0.90490  1.0000 -0.5599958892
O   O34       1.0  0.65970  0.60809  0.09510  1.0000 -0.5599958892
O   O35       1.0  0.15970  0.89191  0.09510  1.0000 -0.5599958892
O   O36       1.0  0.34030  0.39191  0.90490  1.0000 -0.5599958892
O   O37       1.0  0.69680  0.10670  0.84210  1.0000 -0.5501795853
O   O38       1.0  0.80320  0.60670  0.15790  1.0000 -0.5501795853
O   O39       1.0  0.30320  0.89330  0.15790  1.0000 -0.5501795853
O   O40       1.0  0.19680  0.39330  0.84210  1.0000 -0.5501795853
O   O41       1.0  0.89420  0.16672  0.80022  1.0000 -0.1411876543
O   O42       1.0  0.60580  0.66667  0.19978  1.0000 -0.1411876543
O   O43       1.0  0.10580  0.83328  0.19978  1.0000 -0.1411876543
O   O44       1.0  0.39420  0.33328  0.80022  1.0000 -0.1411876543
O   O45       1.0  0.93630  0.10911  0.19738  1.0000 -0.1504316251
O   O46       1.0  0.56370  0.60911  0.80262  1.0000 -0.1504316251
O   O47       1.0  0.06370  0.89089  0.80262  1.0000 -0.1504316251
O   O48       1.0  0.43630  0.39089  0.19738  1.0000 -0.1504316251
