# DDEC6 charges by PACMAN v1.1 (https://github.com/mtap-research/PACMAN-charge/)
data_2015[Cd][tfz]3[ASR]1
_chemical_formula_sum              "Cd2 H48 C80 S8 N2 O16"
_cell_length_a       9.005
_cell_length_b       12.573
_cell_length_c       19.675
_cell_angle_alpha    82.313
_cell_angle_beta     79.259
_cell_angle_gamma    86.749

_symmetry_space_group_name_H-M    "P 1"
_symmetry_Int_Tables_number       1

loop_
  _symmetry_equiv_pos_as_xyz
  'x, y, z'

loop_
  _atom_site_type_symbol
  _atom_site_label
  _atom_site_symmetry_multiplicity
  _atom_site_fract_x
  _atom_site_fract_y
  _atom_site_fract_z
  _atom_site_occupancy
  _atom_site_charge
Cd  Cd1       1.0  0.62347  0.65929  0.01739  1.0000 0.9853114676
Cd  Cd2       1.0  0.37653  0.34071  0.98261  1.0000 0.9853114676
H   H1        1.0  0.02570  0.77660  0.77300  1.0000 0.1184322849
H   H2        1.0  0.97430  0.22340  0.22700  1.0000 0.1184322849
H   H3        1.0  0.01670  0.88930  0.67300  1.0000 0.1130106462
H   H4        1.0  0.98330  0.11070  0.32700  1.0000 0.1130106462
H   H5        1.0  0.70010  0.07300  0.77530  1.0000 0.1184322849
H   H6        1.0  0.29990  0.92700  0.22470  1.0000 0.1184322849
H   H7        1.0  0.70660  0.95960  0.87620  1.0000 0.1130106462
H   H8        1.0  0.29340  0.04040  0.12380  1.0000 0.1130106462
H   H9        1.0  0.03880  0.15390  0.72770  1.0000 0.1184322849
H   H10       1.0  0.96120  0.84610  0.27230  1.0000 0.1184322849
H   H11       1.0  0.08170  0.27040  0.80260  1.0000 0.1184322849
H   H12       1.0  0.91830  0.72960  0.19740  1.0000 0.1184322849
H   H13       1.0  0.78380  0.48240  0.72970  1.0000 0.1289909001
H   H14       1.0  0.21620  0.51760  0.27030  1.0000 0.1289909001
H   H15       1.0  0.73430  0.36600  0.65760  1.0000 0.1130106462
H   H16       1.0  0.26570  0.63400  0.34240  1.0000 0.1130106462
H   H17       1.0  0.52990  0.86880  0.38160  1.0000 0.1184322849
H   H18       1.0  0.47010  0.13120  0.61840  1.0000 0.1184322849
H   H19       1.0  0.50670  0.74460  0.30860  1.0000 0.1130106462
H   H20       1.0  0.49330  0.25540  0.69140  1.0000 0.1130106462
H   H21       1.0  0.71420  0.94150  0.14700  1.0000 0.1289909001
H   H22       1.0  0.28580  0.05850  0.85300  1.0000 0.1289909001
H   H23       1.0  0.73110  0.06680  0.21920  1.0000 0.1289909001
H   H24       1.0  0.26890  0.93320  0.78080  1.0000 0.1289909001
H   H25       1.0  0.42220  0.15630  0.27660  1.0000 0.1184322849
H   H26       1.0  0.57780  0.84370  0.72340  1.0000 0.1184322849
H   H27       1.0  0.35890  0.26960  0.18380  1.0000 0.1184322849
H   H28       1.0  0.64110  0.73040  0.81620  1.0000 0.1184322849
H   H29       1.0  0.69530  0.45890  0.19040  1.0000 0.1289909001
H   H30       1.0  0.30470  0.54110  0.80960  1.0000 0.1289909001
H   H31       1.0  0.76430  0.34220  0.28120  1.0000 0.1184322849
H   H32       1.0  0.23570  0.65780  0.71880  1.0000 0.1184322849
H   H33       1.0  0.26470  0.64000  0.03370  1.0000 0.1184322849
H   H34       1.0  0.73530  0.36000  0.96630  1.0000 0.1184322849
H   H35       1.0  0.04410  0.73990  0.03850  1.0000 0.1553027522
H   H36       1.0  0.95590  0.26010  0.96150  1.0000 0.1553027522
H   H37       1.0  0.29160  0.00140  0.99290  1.0000 0.1389240216
H   H38       1.0  0.70840  0.99860  0.00710  1.0000 0.1389240216
H   H39       1.0  0.50500  0.89320  0.99240  1.0000 0.0985532369
H   H40       1.0  0.49500  0.10680  0.00760  1.0000 0.0985532369
H   H41       1.0  0.91400  0.91080  0.02540  1.0000 0.1289909001
H   H42       1.0  0.08600  0.08920  0.97460  1.0000 0.1289909001
H   H43       1.0  0.98230  0.98000  0.07180  1.0000 0.1184322849
H   H44       1.0  0.01770  0.02000  0.92820  1.0000 0.1184322849
H   H45       1.0  0.93670  0.59850  0.83640  1.0000 0.3615187447
H   H46       1.0  0.06330  0.40150  0.16360  1.0000 0.3615187447
H   H47       1.0  0.46130  0.65360  0.19410  1.0000 0.3615187447
H   H48       1.0  0.53870  0.34640  0.80590  1.0000 0.3615187447
C   C1        1.0  0.85120  0.77360  0.89960  1.0000 0.5579948913
C   C2        1.0  0.14880  0.22640  0.10040  1.0000 0.5579948913
C   C3        1.0  0.86340  0.85370  0.83560  1.0000 -0.0297142065
C   C4        1.0  0.13660  0.14630  0.16440  1.0000 -0.0393339891
C   C5        1.0  0.95870  0.83570  0.77370  1.0000 -0.0919555917
C   C6        1.0  0.04130  0.16430  0.22630  1.0000 -0.0919555917
C   C7        1.0  0.95440  0.90410  0.71420  1.0000 -0.159715097
C   C8        1.0  0.04560  0.09590  0.28580  1.0000 -0.159715097
C   C9        1.0  0.86020  0.99480  0.71330  1.0000 0.0816065412
C   C10       1.0  0.13980  0.00520  0.28670  1.0000 0.0816065412
C   C11       1.0  0.76620  0.01340  0.77470  1.0000 -0.1510523927
C   C12       1.0  0.23380  0.98660  0.22530  1.0000 -0.1510523927
C   C13       1.0  0.76900  0.94470  0.83510  1.0000 -0.1101588995
C   C14       1.0  0.23100  0.05530  0.16490  1.0000 -0.1101588995
C   C15       1.0  0.85080  0.06450  0.64800  1.0000 -0.0681709011
C   C16       1.0  0.14920  0.93550  0.35200  1.0000 -0.0681709011
C   C17       1.0  0.85040  0.17230  0.63800  1.0000 -0.0630553883
C   C18       1.0  0.14960  0.82770  0.36200  1.0000 -0.0630553883
C   C19       1.0  0.97140  0.46240  0.82120  1.0000 0.532728989
C   C20       1.0  0.02860  0.53760  0.17880  1.0000 0.532728989
C   C21       1.0  0.98590  0.21960  0.72860  1.0000 -0.1324015308
C   C22       1.0  0.01410  0.78040  0.27140  1.0000 -0.1324015308
C   C23       1.0  0.01260  0.28930  0.77300  1.0000 -0.0997066084
C   C24       1.0  0.98740  0.71070  0.22700  1.0000 -0.0919555917
C   C25       1.0  0.93510  0.38820  0.77300  1.0000 -0.0297142065
C   C26       1.0  0.06490  0.61180  0.22700  1.0000 -0.0297142065
C   C27       1.0  0.83390  0.41560  0.72970  1.0000 -0.0919555917
C   C28       1.0  0.16610  0.58440  0.27030  1.0000 -0.0919555917
C   C29       1.0  0.80490  0.34660  0.68640  1.0000 -0.1665825952
C   C30       1.0  0.19510  0.65340  0.31360  1.0000 -0.1665825952
C   C31       1.0  0.88100  0.24640  0.68520  1.0000 0.0985532369
C   C32       1.0  0.11900  0.75360  0.31480  1.0000 0.0985532369
C   C33       1.0  0.78100  0.11430  0.52580  1.0000 -0.1101588995
C   C34       1.0  0.21900  0.88570  0.47420  1.0000 -0.1101588995
C   C35       1.0  0.73600  0.11150  0.46650  1.0000 -0.1175602522
C   C36       1.0  0.26400  0.88850  0.53350  1.0000 -0.1175602522
C   C37       1.0  0.65130  0.05650  0.35640  1.0000 -0.0773207169
C   C38       1.0  0.34870  0.94350  0.64360  1.0000 -0.0773207169
C   C39       1.0  0.63170  0.98170  0.30780  1.0000 0.0914494249
C   C40       1.0  0.36830  0.01830  0.69220  1.0000 0.0914494249
C   C41       1.0  0.56600  0.88390  0.33400  1.0000 -0.1510523927
C   C42       1.0  0.43400  0.11610  0.66600  1.0000 -0.1510523927
C   C43       1.0  0.55350  0.80900  0.29060  1.0000 -0.0997066084
C   C44       1.0  0.44650  0.19100  0.70940  1.0000 -0.0997066084
C   C45       1.0  0.61080  0.83000  0.22000  1.0000 -0.0630553883
C   C46       1.0  0.38920  0.17000  0.78000  1.0000 -0.0630553883
C   C47       1.0  0.67620  0.92680  0.19440  1.0000 -0.0997066084
C   C48       1.0  0.32380  0.07320  0.80560  1.0000 -0.0997066084
C   C49       1.0  0.68660  0.00180  0.23760  1.0000 -0.1324015308
C   C50       1.0  0.31340  0.99820  0.76240  1.0000 -0.1415362566
C   C51       1.0  0.64310  0.16480  0.34710  1.0000 -0.0393339891
C   C52       1.0  0.35690  0.83520  0.65290  1.0000 -0.0393339891
C   C53       1.0  0.60290  0.23610  0.28800  1.0000 0.0914494249
C   C54       1.0  0.39710  0.76390  0.71200  1.0000 0.0914494249
C   C55       1.0  0.47920  0.21640  0.25870  1.0000 -0.1324015308
C   C56       1.0  0.52080  0.78360  0.74130  1.0000 -0.1324015308
C   C57       1.0  0.44030  0.28490  0.20340  1.0000 -0.0919555917
C   C58       1.0  0.55970  0.71510  0.79660  1.0000 -0.0919555917
C   C59       1.0  0.52100  0.37550  0.17700  1.0000 -0.0393339891
C   C60       1.0  0.47900  0.62450  0.82300  1.0000 -0.0393339891
C   C61       1.0  0.64120  0.39700  0.20710  1.0000 -0.0773207169
C   C62       1.0  0.35880  0.60300  0.79290  1.0000 -0.0773207169
C   C63       1.0  0.68230  0.32710  0.26200  1.0000 -0.1415362566
C   C64       1.0  0.31770  0.67290  0.73800  1.0000 -0.1415362566
C   C65       1.0  0.48080  0.44870  0.11730  1.0000 0.5931023251
C   C66       1.0  0.51920  0.55130  0.88270  1.0000 0.5931023251
C   C67       1.0  0.60160  0.74980  0.17220  1.0000 0.5579948913
C   C68       1.0  0.39840  0.25020  0.82780  1.0000 0.5579948913
C   C69       1.0  0.26950  0.71440  0.02640  1.0000 0.0816065412
C   C70       1.0  0.73050  0.28560  0.97360  1.0000 0.0816065412
C   C71       1.0  0.13640  0.77340  0.02940  1.0000 -0.1795180772
C   C72       1.0  0.86360  0.22660  0.97060  1.0000 -0.1795180772
C   C73       1.0  0.14290  0.88490  0.01830  1.0000 0.1755817126
C   C74       1.0  0.85710  0.11510  0.98170  1.0000 0.1755817126
C   C75       1.0  0.28260  0.92730  0.00290  1.0000 -0.2151974101
C   C76       1.0  0.71740  0.07270  0.99710  1.0000 -0.2147070129
C   C77       1.0  0.41090  0.86190  0.00190  1.0000 0.0712798696
C   C78       1.0  0.58910  0.13810  0.99810  1.0000 0.0712798696
C   C79       1.0  0.99860  0.95450  0.02660  1.0000 -0.2385057058
C   C80       1.0  0.00140  0.04550  0.97340  1.0000 -0.2385057058
S   S1        1.0  0.69720  0.22899  0.41216  1.0000 0.0425090309
S   S2        1.0  0.30280  0.77101  0.58784  1.0000 0.0425090309
S   S3        1.0  0.70810  0.99426  0.43336  1.0000 0.0712798696
S   S4        1.0  0.29190  0.00574  0.56664  1.0000 0.0712798696
S   S5        1.0  0.82100  0.99833  0.57984  1.0000 0.0816065412
S   S6        1.0  0.17900  0.00167  0.42016  1.0000 0.0712798696
S   S7        1.0  0.81600  0.23345  0.55584  1.0000 0.0469118807
S   S8        1.0  0.18400  0.76655  0.44416  1.0000 0.0469118807
N   N1        1.0  0.40450  0.75670  0.01390  1.0000 -0.2385057058
N   N2        1.0  0.59550  0.24330  0.98610  1.0000 -0.2385057058
O   O1        1.0  0.93800  0.68960  0.89720  1.0000 -0.5599479038
O   O2        1.0  0.06200  0.31040  0.10280  1.0000 -0.5599479038
O   O3        1.0  0.76000  0.79380  0.95270  1.0000 -0.5599479038
O   O4        1.0  0.24000  0.20620  0.04730  1.0000 -0.5599479038
O   O5        1.0  0.91330  0.55990  0.80790  1.0000 -0.4809081663
O   O6        1.0  0.08670  0.44010  0.19210  1.0000 -0.4809081663
O   O7        1.0  0.04500  0.43560  0.86530  1.0000 -0.4809081663
O   O8        1.0  0.95500  0.56440  0.13470  1.0000 -0.4809081663
O   O9        1.0  0.54520  0.65940  0.20350  1.0000 -0.4132684279
O   O10       1.0  0.45480  0.34060  0.79650  1.0000 -0.4132684279
O   O11       1.0  0.64890  0.76560  0.10970  1.0000 -0.489399891
O   O12       1.0  0.35110  0.23440  0.89030  1.0000 -0.489399891
O   O13       1.0  0.41130  0.41610  0.07660  1.0000 -0.5459726859
O   O14       1.0  0.58870  0.58390  0.92340  1.0000 -0.5459726859
O   O15       1.0  0.52310  0.54490  0.11010  1.0000 -0.578576665
O   O16       1.0  0.47690  0.45510  0.88990  1.0000 -0.578576665
