# DDEC6 charges by PACMAN v1.1 (https://github.com/mtap-research/PACMAN-charge/)
data_2015[Np][dia]3[ASR]1
_chemical_formula_sum              "Np8 H32 C64 O40"
_cell_length_a       12.1584
_cell_length_b       12.1584
_cell_length_c       17.8082
_cell_angle_alpha    90
_cell_angle_beta     90
_cell_angle_gamma    90

_symmetry_space_group_name_H-M    "P 1"
_symmetry_Int_Tables_number       1

loop_
  _symmetry_equiv_pos_as_xyz
  'x, y, z'

loop_
  _atom_site_type_symbol
  _atom_site_label
  _atom_site_symmetry_multiplicity
  _atom_site_fract_x
  _atom_site_fract_y
  _atom_site_fract_z
  _atom_site_occupancy
  _atom_site_charge
Np  Np1       1.0  0.14685  0.17142  0.97130  1.0000 1.6786168938
Np  Np2       1.0  0.85315  0.82858  0.97130  1.0000 1.6786168938
Np  Np3       1.0  0.32858  0.64685  0.47130  1.0000 1.6786168938
Np  Np4       1.0  0.67142  0.35315  0.47130  1.0000 1.6786168938
Np  Np5       1.0  0.35315  0.32858  0.52870  1.0000 1.6786168938
Np  Np6       1.0  0.64685  0.67142  0.52870  1.0000 1.6786168938
Np  Np7       1.0  0.17142  0.85315  0.02870  1.0000 1.6786168938
Np  Np8       1.0  0.82858  0.14685  0.02870  1.0000 1.6786168938
H   H1        1.0  0.22070  0.39080  0.73890  1.0000 0.1159244677
H   H2        1.0  0.77930  0.60920  0.73890  1.0000 0.1159244677
H   H3        1.0  0.10920  0.72070  0.23890  1.0000 0.1159244677
H   H4        1.0  0.89080  0.27930  0.23890  1.0000 0.1159244677
H   H5        1.0  0.27930  0.10920  0.76110  1.0000 0.1159244677
H   H6        1.0  0.72070  0.89080  0.76110  1.0000 0.1159244677
H   H7        1.0  0.39080  0.77930  0.26110  1.0000 0.1159244677
H   H8        1.0  0.60920  0.22070  0.26110  1.0000 0.1159244677
H   H9        1.0  0.15860  0.71430  0.70830  1.0000 0.0968214789
H   H10       1.0  0.84140  0.28570  0.70830  1.0000 0.0968214789
H   H11       1.0  0.78570  0.65860  0.20830  1.0000 0.0968214789
H   H12       1.0  0.21430  0.34140  0.20830  1.0000 0.0968214789
H   H13       1.0  0.34140  0.78570  0.79170  1.0000 0.0968214789
H   H14       1.0  0.65860  0.21430  0.79170  1.0000 0.0968214789
H   H15       1.0  0.71430  0.84140  0.29170  1.0000 0.0968214789
H   H16       1.0  0.28570  0.15860  0.29170  1.0000 0.0968214789
H   H17       1.0  0.09880  0.72900  0.83250  1.0000 0.1073682954
H   H18       1.0  0.90120  0.27100  0.83250  1.0000 0.1073682954
H   H19       1.0  0.77100  0.59880  0.33250  1.0000 0.1073682954
H   H20       1.0  0.22900  0.40120  0.33250  1.0000 0.1073682954
H   H21       1.0  0.40120  0.77100  0.66750  1.0000 0.1073682954
H   H22       1.0  0.59880  0.22900  0.66750  1.0000 0.1073682954
H   H23       1.0  0.72900  0.90120  0.16750  1.0000 0.1073682954
H   H24       1.0  0.27100  0.09880  0.16750  1.0000 0.1073682954
H   H25       1.0  0.09780  0.57280  0.90970  1.0000 0.1073682954
H   H26       1.0  0.90220  0.42720  0.90970  1.0000 0.1073682954
H   H27       1.0  0.92720  0.59780  0.40970  1.0000 0.1073682954
H   H28       1.0  0.07280  0.40220  0.40970  1.0000 0.1073682954
H   H29       1.0  0.40220  0.92720  0.59030  1.0000 0.1073682954
H   H30       1.0  0.59780  0.07280  0.59030  1.0000 0.1073682954
H   H31       1.0  0.57280  0.90220  0.09030  1.0000 0.1073682954
H   H32       1.0  0.42720  0.09780  0.09030  1.0000 0.1073682954
C   C1        1.0  0.14900  0.36520  0.87840  1.0000 0.5122019177
C   C2        1.0  0.85100  0.63480  0.87840  1.0000 0.5122019177
C   C3        1.0  0.13480  0.64900  0.37840  1.0000 0.5122019177
C   C4        1.0  0.86520  0.35100  0.37840  1.0000 0.5122019177
C   C5        1.0  0.35100  0.13480  0.62160  1.0000 0.5122019177
C   C6        1.0  0.64900  0.86520  0.62160  1.0000 0.5122019177
C   C7        1.0  0.36520  0.85100  0.12160  1.0000 0.5122019177
C   C8        1.0  0.63480  0.14900  0.12160  1.0000 0.5122019177
C   C9        1.0  0.15520  0.46640  0.83110  1.0000 -0.0448890949
C   C10       1.0  0.84480  0.53360  0.83110  1.0000 -0.0448890949
C   C11       1.0  0.03360  0.65520  0.33110  1.0000 -0.0448890949
C   C12       1.0  0.96640  0.34480  0.33110  1.0000 -0.0448890949
C   C13       1.0  0.34480  0.03360  0.66890  1.0000 -0.0448890949
C   C14       1.0  0.65520  0.96640  0.66890  1.0000 -0.0448890949
C   C15       1.0  0.46640  0.84480  0.16890  1.0000 -0.0448890949
C   C16       1.0  0.53360  0.15520  0.16890  1.0000 -0.0448890949
C   C17       1.0  0.19590  0.45950  0.75780  1.0000 -0.1019157447
C   C18       1.0  0.80410  0.54050  0.75780  1.0000 -0.1019157447
C   C19       1.0  0.04050  0.69590  0.25780  1.0000 -0.1019157447
C   C20       1.0  0.95950  0.30410  0.25780  1.0000 -0.1019157447
C   C21       1.0  0.30410  0.04050  0.74220  1.0000 -0.1019157447
C   C22       1.0  0.69590  0.95950  0.74220  1.0000 -0.1019157447
C   C23       1.0  0.45950  0.80410  0.24220  1.0000 -0.1019157447
C   C24       1.0  0.54050  0.19590  0.24220  1.0000 -0.1019157447
C   C25       1.0  0.20030  0.55180  0.71290  1.0000 -0.0299859609
C   C26       1.0  0.79970  0.44820  0.71290  1.0000 -0.0299859609
C   C27       1.0  0.94820  0.70030  0.21290  1.0000 -0.0299859609
C   C28       1.0  0.05180  0.29970  0.21290  1.0000 -0.0299859609
C   C29       1.0  0.29970  0.94820  0.78710  1.0000 -0.0299859609
C   C30       1.0  0.70030  0.05180  0.78710  1.0000 -0.0299859609
C   C31       1.0  0.55180  0.79970  0.28710  1.0000 -0.0299859609
C   C32       1.0  0.44820  0.20030  0.28710  1.0000 -0.0299859609
C   C33       1.0  0.16030  0.65170  0.74020  1.0000 -0.1019157447
C   C34       1.0  0.83970  0.34830  0.74020  1.0000 -0.1019157447
C   C35       1.0  0.84830  0.66030  0.24020  1.0000 -0.1019157447
C   C36       1.0  0.15170  0.33970  0.24020  1.0000 -0.1019157447
C   C37       1.0  0.33970  0.84830  0.75980  1.0000 -0.1019157447
C   C38       1.0  0.66030  0.15170  0.75980  1.0000 -0.1019157447
C   C39       1.0  0.65170  0.83970  0.25980  1.0000 -0.1019157447
C   C40       1.0  0.34830  0.16030  0.25980  1.0000 -0.1019157447
C   C41       1.0  0.12310  0.66020  0.81340  1.0000 -0.0919114525
C   C42       1.0  0.87690  0.33980  0.81340  1.0000 -0.0919114525
C   C43       1.0  0.83980  0.62310  0.31340  1.0000 -0.0919114525
C   C44       1.0  0.16020  0.37690  0.31340  1.0000 -0.0919114525
C   C45       1.0  0.37690  0.83980  0.68660  1.0000 -0.0919114525
C   C46       1.0  0.62310  0.16020  0.68660  1.0000 -0.0919114525
C   C47       1.0  0.66020  0.87690  0.18660  1.0000 -0.0919114525
C   C48       1.0  0.33980  0.12310  0.18660  1.0000 -0.0919114525
C   C49       1.0  0.12180  0.56710  0.85910  1.0000 -0.1019157447
C   C50       1.0  0.87820  0.43290  0.85910  1.0000 -0.1019157447
C   C51       1.0  0.93290  0.62180  0.35910  1.0000 -0.1019157447
C   C52       1.0  0.06710  0.37820  0.35910  1.0000 -0.1019157447
C   C53       1.0  0.37820  0.93290  0.64090  1.0000 -0.1019157447
C   C54       1.0  0.62180  0.06710  0.64090  1.0000 -0.1019157447
C   C55       1.0  0.56710  0.87820  0.14090  1.0000 -0.1019157447
C   C56       1.0  0.43290  0.12180  0.14090  1.0000 -0.1019157447
C   C57       1.0  0.25210  0.54510  0.63640  1.0000 0.5500562986
C   C58       1.0  0.74790  0.45490  0.63640  1.0000 0.5500562986
C   C59       1.0  0.95490  0.75210  0.13640  1.0000 0.5500562986
C   C60       1.0  0.04510  0.24790  0.13640  1.0000 0.5500562986
C   C61       1.0  0.24790  0.95490  0.86360  1.0000 0.5500562986
C   C62       1.0  0.75210  0.04510  0.86360  1.0000 0.5500562986
C   C63       1.0  0.54510  0.74790  0.36360  1.0000 0.5500562986
C   C64       1.0  0.45490  0.25210  0.36360  1.0000 0.5500562986
O   O1        1.0  0.99630  0.15280  0.95480  1.0000 -0.6731379503
O   O2        1.0  0.00370  0.84720  0.95480  1.0000 -0.6731379503
O   O3        1.0  0.34720  0.49630  0.45480  1.0000 -0.6731379503
O   O4        1.0  0.65280  0.50370  0.45480  1.0000 -0.6731379503
O   O5        1.0  0.50370  0.34720  0.54520  1.0000 -0.6731379503
O   O6        1.0  0.49630  0.65280  0.54520  1.0000 -0.6731379503
O   O7        1.0  0.15280  0.00370  0.04520  1.0000 -0.6731379503
O   O8        1.0  0.84720  0.99630  0.04520  1.0000 -0.6731379503
O   O9        1.0  0.16400  0.27180  0.84870  1.0000 -0.5079148921
O   O10       1.0  0.83600  0.72820  0.84870  1.0000 -0.5079148921
O   O11       1.0  0.22820  0.66400  0.34870  1.0000 -0.5079148921
O   O12       1.0  0.77180  0.33600  0.34870  1.0000 -0.5079148921
O   O13       1.0  0.33600  0.22820  0.65130  1.0000 -0.5079148921
O   O14       1.0  0.66400  0.77180  0.65130  1.0000 -0.5079148921
O   O15       1.0  0.27180  0.83600  0.15130  1.0000 -0.5079148921
O   O16       1.0  0.72820  0.16400  0.15130  1.0000 -0.5079148921
O   O17       1.0  0.12880  0.37360  0.94730  1.0000 -0.5079148921
O   O18       1.0  0.87120  0.62640  0.94730  1.0000 -0.5079148921
O   O19       1.0  0.12640  0.62880  0.44730  1.0000 -0.5079148921
O   O20       1.0  0.87360  0.37120  0.44730  1.0000 -0.5079148921
O   O21       1.0  0.37120  0.12640  0.55270  1.0000 -0.5079148921
O   O22       1.0  0.62880  0.87360  0.55270  1.0000 -0.5079148921
O   O23       1.0  0.37360  0.87120  0.05270  1.0000 -0.5079148921
O   O24       1.0  0.62640  0.12880  0.05270  1.0000 -0.5079148921
O   O25       1.0  0.23850  0.62380  0.59180  1.0000 -0.524377803
O   O26       1.0  0.76150  0.37620  0.59180  1.0000 -0.524377803
O   O27       1.0  0.87620  0.73850  0.09180  1.0000 -0.524377803
O   O28       1.0  0.12380  0.26150  0.09180  1.0000 -0.524377803
O   O29       1.0  0.26150  0.87620  0.90820  1.0000 -0.524377803
O   O30       1.0  0.73850  0.12380  0.90820  1.0000 -0.524377803
O   O31       1.0  0.62380  0.76150  0.40820  1.0000 -0.524377803
O   O32       1.0  0.37620  0.23850  0.40820  1.0000 -0.524377803
O   O33       1.0  0.30870  0.46120  0.62210  1.0000 -0.4824783677
O   O34       1.0  0.69130  0.53880  0.62210  1.0000 -0.4824783677
O   O35       1.0  0.03880  0.80870  0.12210  1.0000 -0.4824783677
O   O36       1.0  0.96120  0.19130  0.12210  1.0000 -0.4824783677
O   O37       1.0  0.19130  0.03880  0.87790  1.0000 -0.4824783677
O   O38       1.0  0.80870  0.96120  0.87790  1.0000 -0.4824783677
O   O39       1.0  0.46120  0.69130  0.37790  1.0000 -0.4824783677
O   O40       1.0  0.53880  0.30870  0.37790  1.0000 -0.4824783677
