# DDEC6 charges by PACMAN v1.1 (https://github.com/mtap-research/PACMAN-charge/)
data_2015[Zn][nan]3[ASR]30
_chemical_formula_sum              "Zn8 H24 C56 N8 O32"
_cell_length_a       14.0907
_cell_length_b       12.1434
_cell_length_c       17.2821
_cell_angle_alpha    90
_cell_angle_beta     125.533
_cell_angle_gamma    90

_symmetry_space_group_name_H-M    "P 1"
_symmetry_Int_Tables_number       1

loop_
  _symmetry_equiv_pos_as_xyz
  'x, y, z'

loop_
  _atom_site_type_symbol
  _atom_site_label
  _atom_site_symmetry_multiplicity
  _atom_site_fract_x
  _atom_site_fract_y
  _atom_site_fract_z
  _atom_site_occupancy
  _atom_site_charge
Zn  Zn1       1.0  0.12205  0.24317  0.92574  1.0000 0.8911734585
Zn  Zn2       1.0  0.87795  0.74317  0.57426  1.0000 0.8911734585
Zn  Zn3       1.0  0.87795  0.75683  0.07426  1.0000 0.8911734585
Zn  Zn4       1.0  0.12205  0.25683  0.42574  1.0000 0.8911734585
Zn  Zn5       1.0  0.19366  0.02137  0.84354  1.0000 0.8911734585
Zn  Zn6       1.0  0.80634  0.52137  0.65646  1.0000 0.8911734585
Zn  Zn7       1.0  0.80634  0.97863  0.15646  1.0000 0.8911734585
Zn  Zn8       1.0  0.19366  0.47863  0.34354  1.0000 0.8911734585
H   H1        1.0  0.54010  0.02290  0.06730  1.0000 0.1068542632
H   H2        1.0  0.45990  0.52290  0.43270  1.0000 0.1068542632
H   H3        1.0  0.45990  0.97710  0.93270  1.0000 0.1068542632
H   H4        1.0  0.54010  0.47710  0.56730  1.0000 0.1068542632
H   H5        1.0  0.51800  0.32810  0.14710  1.0000 0.1320143352
H   H6        1.0  0.48200  0.82810  0.35290  1.0000 0.1320143352
H   H7        1.0  0.48200  0.67190  0.85290  1.0000 0.1320143352
H   H8        1.0  0.51800  0.17190  0.64710  1.0000 0.1320143352
H   H9        1.0  0.72360  0.33210  0.25050  1.0000 0.1382867418
H   H10       1.0  0.27640  0.83210  0.24950  1.0000 0.1382867418
H   H11       1.0  0.27640  0.66790  0.74950  1.0000 0.1382867418
H   H12       1.0  0.72360  0.16790  0.75050  1.0000 0.1382867418
H   H13       1.0  0.11790  0.18400  0.60030  1.0000 0.1228084255
H   H14       1.0  0.88210  0.68400  0.89970  1.0000 0.1228084255
H   H15       1.0  0.88210  0.81600  0.39970  1.0000 0.1228084255
H   H16       1.0  0.11790  0.31600  0.10030  1.0000 0.1228084255
H   H17       1.0  0.14050  0.46120  0.73980  1.0000 0.1382867418
H   H18       1.0  0.85950  0.96120  0.76020  1.0000 0.1382867418
H   H19       1.0  0.85950  0.53880  0.26020  1.0000 0.1382867418
H   H20       1.0  0.14050  0.03880  0.23980  1.0000 0.1382867418
H   H21       1.0  0.13730  0.56470  0.62280  1.0000 0.1320143352
H   H22       1.0  0.86270  0.06470  0.87720  1.0000 0.1320143352
H   H23       1.0  0.86270  0.43530  0.37720  1.0000 0.1320143352
H   H24       1.0  0.13730  0.93530  0.12280  1.0000 0.1382867418
C   C1        1.0  0.57720  0.08881  0.10128  1.0000 0.0963246439
C   C2        1.0  0.42280  0.58881  0.39872  1.0000 0.0963246439
C   C3        1.0  0.42280  0.91119  0.89872  1.0000 0.0963246439
C   C4        1.0  0.57720  0.41119  0.60128  1.0000 0.0963246439
C   C5        1.0  0.50745  0.17655  0.09197  1.0000 -0.0713098246
C   C6        1.0  0.49255  0.67655  0.40803  1.0000 -0.0713098246
C   C7        1.0  0.49255  0.82345  0.90803  1.0000 -0.0713098246
C   C8        1.0  0.50745  0.32345  0.59197  1.0000 -0.0713098246
C   C9        1.0  0.56246  0.26795  0.14906  1.0000 -0.0502910849
C   C10       1.0  0.43754  0.76795  0.35094  1.0000 -0.0502910849
C   C11       1.0  0.43754  0.73205  0.85094  1.0000 -0.0502910849
C   C12       1.0  0.56246  0.23205  0.64906  1.0000 -0.0502910849
C   C13       1.0  0.68451  0.27077  0.20977  1.0000 -0.1333832379
C   C14       1.0  0.31549  0.77077  0.29023  1.0000 -0.1333832379
C   C15       1.0  0.31549  0.72923  0.79023  1.0000 -0.1333832379
C   C16       1.0  0.68451  0.22923  0.70977  1.0000 -0.1333832379
C   C17       1.0  0.74770  0.18318  0.20979  1.0000 0.1068542632
C   C18       1.0  0.25230  0.68318  0.29021  1.0000 0.1068542632
C   C19       1.0  0.25230  0.81682  0.79021  1.0000 0.1068542632
C   C20       1.0  0.74770  0.31682  0.70979  1.0000 0.1068542632
C   C21       1.0  0.37617  0.16796  0.01897  1.0000 0.5986724336
C   C22       1.0  0.62383  0.66796  0.48103  1.0000 0.5986724336
C   C23       1.0  0.62383  0.83204  0.98103  1.0000 0.5986724336
C   C24       1.0  0.37617  0.33204  0.51897  1.0000 0.5986724336
C   C25       1.0  0.87939  0.17848  0.26760  1.0000 0.5414209802
C   C26       1.0  0.12061  0.67848  0.23240  1.0000 0.5414209802
C   C27       1.0  0.12061  0.82152  0.73240  1.0000 0.5414209802
C   C28       1.0  0.87939  0.32152  0.76760  1.0000 0.5414209802
C   C29       1.0  0.12307  0.26199  0.60577  1.0000 0.0902086336
C   C30       1.0  0.87693  0.76199  0.89423  1.0000 0.0902086336
C   C31       1.0  0.87693  0.73801  0.39423  1.0000 0.0902086336
C   C32       1.0  0.12307  0.23801  0.10577  1.0000 0.0902086336
C   C33       1.0  0.13371  0.31102  0.68333  1.0000 -0.0641492691
C   C34       1.0  0.86629  0.81102  0.81667  1.0000 -0.0641492691
C   C35       1.0  0.86629  0.68898  0.31667  1.0000 -0.0641492691
C   C36       1.0  0.13371  0.18898  0.18333  1.0000 -0.0641492691
C   C37       1.0  0.13686  0.42538  0.68927  1.0000 -0.0332423534
C   C38       1.0  0.86314  0.92538  0.81073  1.0000 -0.0332423534
C   C39       1.0  0.86314  0.57462  0.31073  1.0000 -0.0332423534
C   C40       1.0  0.13686  0.07462  0.18927  1.0000 -0.0332423534
C   C41       1.0  0.13450  0.48656  0.62010  1.0000 -0.1394810241
C   C42       1.0  0.86550  0.98656  0.87990  1.0000 -0.1394810241
C   C43       1.0  0.86550  0.51344  0.37990  1.0000 -0.1394810241
C   C44       1.0  0.13450  0.01344  0.12010  1.0000 -0.1394810241
C   C45       1.0  0.12809  0.43064  0.54714  1.0000 0.1068542632
C   C46       1.0  0.87191  0.93064  0.95286  1.0000 0.1068542632
C   C47       1.0  0.87191  0.56936  0.45286  1.0000 0.1068542632
C   C48       1.0  0.12809  0.06936  0.04714  1.0000 0.1068542632
C   C49       1.0  0.14188  0.23977  0.75827  1.0000 0.5986724336
C   C50       1.0  0.85812  0.73977  0.74173  1.0000 0.5986724336
C   C51       1.0  0.85812  0.76023  0.24173  1.0000 0.5986724336
C   C52       1.0  0.14188  0.26023  0.25827  1.0000 0.5986724336
C   C53       1.0  0.13416  0.49132  0.47361  1.0000 0.5236639519
C   C54       1.0  0.86584  0.99132  0.02639  1.0000 0.5236639519
C   C55       1.0  0.86584  0.50868  0.52639  1.0000 0.5236639519
C   C56       1.0  0.13416  0.00868  0.97361  1.0000 0.5236639519
N   N1        1.0  0.69392  0.09302  0.15579  1.0000 -0.2493092801
N   N2        1.0  0.30608  0.59302  0.34421  1.0000 -0.2493092801
N   N3        1.0  0.30608  0.90698  0.84421  1.0000 -0.2493092801
N   N4        1.0  0.69392  0.40698  0.65579  1.0000 -0.2493092801
N   N5        1.0  0.11982  0.32033  0.53880  1.0000 -0.2493092801
N   N6        1.0  0.88018  0.82033  0.96120  1.0000 -0.2493092801
N   N7        1.0  0.88018  0.67967  0.46120  1.0000 -0.2493092801
N   N8        1.0  0.11982  0.17967  0.03880  1.0000 -0.2493092801
O   O1        1.0  0.31228  0.23311  0.02388  1.0000 -0.5326004636
O   O2        1.0  0.68772  0.73311  0.47612  1.0000 -0.5326004636
O   O3        1.0  0.68772  0.76689  0.97612  1.0000 -0.5326004636
O   O4        1.0  0.31228  0.26689  0.52388  1.0000 -0.5326004636
O   O5        1.0  0.34553  0.09203  0.95880  1.0000 -0.5628514748
O   O6        1.0  0.65447  0.59203  0.54120  1.0000 -0.5628514748
O   O7        1.0  0.65447  0.90797  0.04120  1.0000 -0.5628514748
O   O8        1.0  0.34553  0.40797  0.45880  1.0000 -0.5628514748
O   O9        1.0  0.93619  0.25342  0.32761  1.0000 -0.5326004636
O   O10       1.0  0.06381  0.75342  0.17239  1.0000 -0.5326004636
O   O11       1.0  0.06381  0.74658  0.67239  1.0000 -0.5326004636
O   O12       1.0  0.93619  0.24658  0.82761  1.0000 -0.5326004636
O   O13       1.0  0.92060  0.09833  0.24990  1.0000 -0.5108637672
O   O14       1.0  0.07940  0.59833  0.25010  1.0000 -0.5108637672
O   O15       1.0  0.07940  0.90167  0.75010  1.0000 -0.5108637672
O   O16       1.0  0.92060  0.40167  0.74990  1.0000 -0.5108637672
O   O17       1.0  0.14791  0.28772  0.82494  1.0000 -0.5190551143
O   O18       1.0  0.85209  0.78772  0.67506  1.0000 -0.5190551143
O   O19       1.0  0.85209  0.71228  0.17506  1.0000 -0.5190551143
O   O20       1.0  0.14791  0.21228  0.32494  1.0000 -0.5190551143
O   O21       1.0  0.14343  0.13683  0.74688  1.0000 -0.5468437012
O   O22       1.0  0.85657  0.63683  0.75312  1.0000 -0.5468437012
O   O23       1.0  0.85657  0.86317  0.25312  1.0000 -0.5468437012
O   O24       1.0  0.14343  0.36317  0.24688  1.0000 -0.5468437012
O   O25       1.0  0.15914  0.58896  0.48455  1.0000 -0.4747174245
O   O26       1.0  0.84086  0.08896  0.01545  1.0000 -0.4747174245
O   O27       1.0  0.84086  0.41104  0.51545  1.0000 -0.4747174245
O   O28       1.0  0.15914  0.91104  0.98455  1.0000 -0.4747174245
O   O29       1.0  0.11414  0.43113  0.40368  1.0000 -0.5468437012
O   O30       1.0  0.88586  0.93113  0.09632  1.0000 -0.5468437012
O   O31       1.0  0.88586  0.56887  0.59632  1.0000 -0.5468437012
O   O32       1.0  0.11414  0.06887  0.90368  1.0000 -0.5468437012
