# DDEC6 charges by PACMAN v1.1 (https://github.com/mtap-research/PACMAN-charge/)
data_2015[Co][nan]3[ASR]5
_chemical_formula_sum              "Co4 H44 C74 N12 O16"
_cell_length_a       11.573
_cell_length_b       13.892
_cell_length_c       14.655
_cell_angle_alpha    62.631
_cell_angle_beta     68.977
_cell_angle_gamma    68.8

_symmetry_space_group_name_H-M    "P 1"
_symmetry_Int_Tables_number       1

loop_
  _symmetry_equiv_pos_as_xyz
  'x, y, z'

loop_
  _atom_site_type_symbol
  _atom_site_label
  _atom_site_symmetry_multiplicity
  _atom_site_fract_x
  _atom_site_fract_y
  _atom_site_fract_z
  _atom_site_occupancy
  _atom_site_charge
Co  Co1       1.0  0.38401  0.43284  0.45397  1.0000 0.790990031
Co  Co2       1.0  0.61599  0.56716  0.54603  1.0000 0.790990031
Co  Co3       1.0  0.72718  0.05665  0.98441  1.0000 0.8380258741
Co  Co4       1.0  0.27282  0.94335  0.01559  1.0000 0.8380258741
H   H1        1.0  0.88980  0.39000  0.38810  1.0000 0.1618872347
H   H2        1.0  0.11020  0.61000  0.61190  1.0000 0.1618872347
H   H3        1.0  0.93430  0.20430  0.22760  1.0000 0.1391870491
H   H4        1.0  0.06570  0.79570  0.77240  1.0000 0.1391870491
H   H5        1.0  0.23710  0.28660  0.22060  1.0000 0.1496065619
H   H6        1.0  0.76290  0.71340  0.77940  1.0000 0.1496065619
H   H7        1.0  0.01700  0.56580  0.29380  1.0000 0.1200495159
H   H8        1.0  0.98300  0.43420  0.70620  1.0000 0.1200495159
H   H9        1.0  0.32760  0.25500  0.06360  1.0000 0.1391870491
H   H10       1.0  0.67240  0.74500  0.93640  1.0000 0.1391870491
H   H11       1.0  0.08580  0.06130  0.18030  1.0000 0.1200495159
H   H12       1.0  0.91420  0.93870  0.81970  1.0000 0.1200495159
H   H13       1.0  0.67230  0.44300  0.37210  1.0000 0.1299200232
H   H14       1.0  0.32770  0.55700  0.62790  1.0000 0.1299200232
H   H15       1.0  0.75450  0.14700  0.35930  1.0000 0.1299200232
H   H16       1.0  0.24550  0.85300  0.64070  1.0000 0.1299200232
H   H17       1.0  0.52500  0.20430  0.42600  1.0000 0.1391870491
H   H18       1.0  0.47500  0.79570  0.57400  1.0000 0.1391870491
H   H19       1.0  0.27190  0.29250  0.39460  1.0000 0.1299200232
H   H20       1.0  0.72810  0.70750  0.60540  1.0000 0.1299200232
H   H21       1.0  0.16040  0.60420  0.35200  1.0000 0.1391870491
H   H22       1.0  0.83960  0.39580  0.64800  1.0000 0.1391870491
H   H23       1.0  0.54720  0.81340  0.21430  1.0000 0.1200495159
H   H24       1.0  0.45280  0.18660  0.78570  1.0000 0.1200495159
H   H25       1.0  0.21460  0.76920  0.42100  1.0000 0.1102567759
H   H26       1.0  0.78540  0.23080  0.57900  1.0000 0.1102567759
H   H27       1.0  0.31470  0.05350  0.31980  1.0000 0.1102567759
H   H28       1.0  0.68530  0.94650  0.68020  1.0000 0.1102567759
H   H29       1.0  0.01570  0.88740  0.41810  1.0000 0.1200495159
H   H30       1.0  0.98430  0.11260  0.58190  1.0000 0.1200495159
H   H31       1.0  0.17750  0.05330  0.48100  1.0000 0.1102567759
H   H32       1.0  0.82250  0.94670  0.51900  1.0000 0.1102567759
H   H33       1.0  0.12440  0.17160  0.74840  1.0000 0.1299200232
H   H34       1.0  0.87560  0.82840  0.25160  1.0000 0.1299200232
H   H35       1.0  0.92930  0.26080  0.99590  1.0000 0.1200495159
H   H36       1.0  0.07070  0.73920  0.00410  1.0000 0.1200495159
H   H37       1.0  0.21280  0.40150  0.78560  1.0000 0.1200495159
H   H38       1.0  0.78720  0.59850  0.21440  1.0000 0.1200495159
H   H39       1.0  0.84670  0.42680  0.00630  1.0000 0.1200495159
H   H40       1.0  0.15330  0.57320  0.99370  1.0000 0.1200495159
H   H41       1.0  0.20780  0.44600  0.91600  1.0000 0.1200495159
H   H42       1.0  0.79220  0.55400  0.08400  1.0000 0.1200495159
H   H43       1.0  0.40580  0.12440  0.97610  1.0000 0.1391870491
H   H44       1.0  0.59420  0.87560  0.02390  1.0000 0.1391870491
C   C1        1.0  0.94200  0.35190  0.34400  1.0000 -0.2672408519
C   C2        1.0  0.05800  0.64810  0.65600  1.0000 -0.2672408519
C   C3        1.0  0.89280  0.29710  0.31360  1.0000 0.199808867
C   C4        1.0  0.10720  0.70290  0.68640  1.0000 0.199808867
C   C5        1.0  0.96900  0.23970  0.24840  1.0000 -0.2648399112
C   C6        1.0  0.03100  0.76030  0.75160  1.0000 -0.2672408519
C   C7        1.0  0.09660  0.23620  0.21520  1.0000 0.199808867
C   C8        1.0  0.90340  0.76380  0.78480  1.0000 0.199808867
C   C9        1.0  0.15020  0.28990  0.24360  1.0000 -0.2672408519
C   C10       1.0  0.84980  0.71010  0.75640  1.0000 -0.2672408519
C   C11       1.0  0.07080  0.34860  0.30740  1.0000 0.199808867
C   C12       1.0  0.92920  0.65140  0.69260  1.0000 0.199808867
C   C13       1.0  0.08620  0.51440  0.32120  1.0000 -0.0791428325
C   C14       1.0  0.91380  0.48560  0.67880  1.0000 -0.0791428325
C   C15       1.0  0.28890  0.20060  0.07590  1.0000 -0.0883037125
C   C16       1.0  0.71110  0.79940  0.92410  1.0000 -0.0883037125
C   C17       1.0  0.15550  0.09260  0.14050  1.0000 0.1102567759
C   C18       1.0  0.84450  0.90740  0.85950  1.0000 0.1102567759
C   C19       1.0  0.66370  0.37660  0.37740  1.0000 0.1391870491
C   C20       1.0  0.33630  0.62340  0.62260  1.0000 0.1391870491
C   C21       1.0  0.71030  0.21310  0.37010  1.0000 -0.0883037125
C   C22       1.0  0.28970  0.78690  0.62990  1.0000 -0.0883037125
C   C23       1.0  0.58400  0.24540  0.40650  1.0000 -0.0217399369
C   C24       1.0  0.41600  0.75460  0.59350  1.0000 -0.0217399369
C   C25       1.0  0.22560  0.36640  0.37640  1.0000 0.1200495159
C   C26       1.0  0.77440  0.63360  0.62360  1.0000 0.1200495159
C   C27       1.0  0.16510  0.53530  0.35340  1.0000 -0.0217399369
C   C28       1.0  0.83490  0.46470  0.64660  1.0000 -0.0217399369
C   C29       1.0  0.53930  0.01650  0.19150  1.0000 0.5574266078
C   C30       1.0  0.46070  0.98350  0.80850  1.0000 0.5574266078
C   C31       1.0  0.44600  0.94320  0.25910  1.0000 -0.0045412557
C   C32       1.0  0.55400  0.05680  0.74090  1.0000 -0.0045412557
C   C33       1.0  0.47240  0.83880  0.25740  1.0000 -0.117446584
C   C34       1.0  0.52760  0.16120  0.74260  1.0000 -0.117446584
C   C35       1.0  0.38700  0.77250  0.31990  1.0000 -0.0045412557
C   C36       1.0  0.61300  0.22750  0.68010  1.0000 -0.0045412557
C   C37       1.0  0.27250  0.81380  0.37920  1.0000 -0.1605608284
C   C38       1.0  0.72750  0.18620  0.62080  1.0000 -0.1605608284
C   C39       1.0  0.24370  0.91920  0.37720  1.0000 0.0529760259
C   C40       1.0  0.75630  0.08080  0.62280  1.0000 0.0529760259
C   C41       1.0  0.33200  0.98300  0.31890  1.0000 -0.166503155
C   C42       1.0  0.66800  0.01700  0.68110  1.0000 -0.166503155
C   C43       1.0  0.11740  0.96210  0.44000  1.0000 0.0672269252
C   C44       1.0  0.88260  0.03790  0.56000  1.0000 0.0672269252
C   C45       1.0  0.00970  0.93260  0.45150  1.0000 -0.1605608284
C   C46       1.0  0.99030  0.06740  0.54850  1.0000 -0.1605608284
C   C47       1.0  0.10650  0.03130  0.48870  1.0000 -0.1605608284
C   C48       1.0  0.89350  0.96870  0.51130  1.0000 -0.1605608284
C   C49       1.0  0.41710  0.65560  0.32610  1.0000 0.5536242487
C   C50       1.0  0.58290  0.34440  0.67390  1.0000 0.5536242487
C   C51       1.0  0.27360  0.31140  0.64600  1.0000 0.5327905776
C   C52       1.0  0.72640  0.68860  0.35400  1.0000 0.5327905776
C   C53       1.0  0.18430  0.28860  0.75140  1.0000 -0.0217399369
C   C54       1.0  0.81570  0.71140  0.24860  1.0000 -0.0217399369
C   C55       1.0  0.11030  0.21430  0.78670  1.0000 -0.117446584
C   C56       1.0  0.88970  0.78570  0.21330  1.0000 -0.117446584
C   C57       1.0  0.01500  0.20250  0.87870  1.0000 -0.0217399369
C   C58       1.0  0.98500  0.79750  0.12130  1.0000 -0.0217399369
C   C59       1.0  0.99380  0.26780  0.93460  1.0000 -0.1605608284
C   C60       1.0  0.00620  0.73220  0.06540  1.0000 -0.1605608284
C   C61       1.0  0.06690  0.34300  0.90050  1.0000 0.0626757579
C   C62       1.0  0.93310  0.65700  0.09950  1.0000 0.0626757579
C   C63       1.0  0.16230  0.35190  0.80900  1.0000 -0.1605608284
C   C64       1.0  0.83770  0.64810  0.19100  1.0000 -0.1605608284
C   C65       1.0  0.03300  0.42320  0.95300  1.0000 0.0626757579
C   C66       1.0  0.96700  0.57680  0.04700  1.0000 0.0672269252
C   C67       1.0  0.90930  0.45600  0.00340  1.0000 -0.1605608284
C   C68       1.0  0.09070  0.54400  0.99660  1.0000 -0.1605608284
C   C69       1.0  0.12350  0.46740  0.94990  1.0000 -0.1605608284
C   C70       1.0  0.87650  0.53260  0.05010  1.0000 -0.1605608284
C   C71       1.0  0.92770  0.13240  0.90780  1.0000 0.5369102719
C   C72       1.0  0.07230  0.86760  0.09220  1.0000 0.5369102719
C   C73       1.0  0.33170  0.12810  0.02890  1.0000 -0.0217399369
C   C74       1.0  0.66830  0.87190  0.97110  1.0000 -0.0217399369
N   N1        1.0  0.55630  0.34720  0.41030  1.0000 -0.2870915172
N   N2        1.0  0.44370  0.65280  0.58970  1.0000 -0.2870915172
N   N3        1.0  0.76000  0.29640  0.35230  1.0000 0.0017479483
N   N4        1.0  0.24000  0.70360  0.64770  1.0000 0.0017479483
N   N5        1.0  0.17560  0.17940  0.14650  1.0000 -0.0045412557
N   N6        1.0  0.82440  0.82060  0.85350  1.0000 -0.0045412557
N   N7        1.0  0.12370  0.40640  0.33510  1.0000 0.0017479483
N   N8        1.0  0.87630  0.59360  0.66490  1.0000 0.0017479483
N   N9        1.0  0.25220  0.44150  0.38800  1.0000 -0.2759731052
N   N10       1.0  0.74780  0.55850  0.61200  1.0000 -0.2759731052
N   N11       1.0  0.24970  0.05910  0.07000  1.0000 -0.2955413995
N   N12       1.0  0.75030  0.94090  0.93000  1.0000 -0.2955413995
O   O1        1.0  0.52560  0.09870  0.20750  1.0000 -0.5400540469
O   O2        1.0  0.47440  0.90130  0.79250  1.0000 -0.5400540469
O   O3        1.0  0.62280  0.98580  0.12190  1.0000 -0.5540731487
O   O4        1.0  0.37720  0.01420  0.87810  1.0000 -0.5540731487
O   O5        1.0  0.47650  0.63410  0.24740  1.0000 -0.5400540469
O   O6        1.0  0.52350  0.36590  0.75260  1.0000 -0.5400540469
O   O7        1.0  0.37590  0.58800  0.41530  1.0000 -0.5540731487
O   O8        1.0  0.62410  0.41200  0.58470  1.0000 -0.5540731487
O   O9        1.0  0.30630  0.40360  0.60450  1.0000 -0.5400540469
O   O10       1.0  0.69370  0.59640  0.39550  1.0000 -0.5400540469
O   O11       1.0  0.30760  0.24850  0.59900  1.0000 -0.5276408432
O   O12       1.0  0.69240  0.75150  0.40100  1.0000 -0.5276408432
O   O13       1.0  0.92230  0.10270  0.84250  1.0000 -0.5276408432
O   O14       1.0  0.07770  0.89730  0.15750  1.0000 -0.5276408432
O   O15       1.0  0.85440  0.10840  0.99740  1.0000 -0.5021750269
O   O16       1.0  0.14560  0.89160  0.00260  1.0000 -0.5021750269
