# DDEC6 charges by PACMAN v1.1 (https://github.com/mtap-research/PACMAN-charge/)
data_2015[EuTb][nan]3[ASR]2
_chemical_formula_sum              "Tb4 Eu4 H56 C120 O48"
_cell_length_a       13.006
_cell_length_b       13.821
_cell_length_c       27.982
_cell_angle_alpha    75.67
_cell_angle_beta     79.35
_cell_angle_gamma    85.62

_symmetry_space_group_name_H-M    "P 1"
_symmetry_Int_Tables_number       1

loop_
  _symmetry_equiv_pos_as_xyz
  'x, y, z'

loop_
  _atom_site_type_symbol
  _atom_site_label
  _atom_site_symmetry_multiplicity
  _atom_site_fract_x
  _atom_site_fract_y
  _atom_site_fract_z
  _atom_site_occupancy
  _atom_site_charge
Tb  Tb1       1.0  0.88028  0.02118  0.55405  1.0000 2.0576115368
Tb  Tb2       1.0  0.11972  0.97882  0.44595  1.0000 2.0527075051
Tb  Tb3       1.0  0.03068  0.87524  0.06050  1.0000 2.0730230727
Tb  Tb4       1.0  0.96932  0.12476  0.93950  1.0000 2.0789088725
Eu  Eu1       1.0  0.47145  0.53782  0.41508  1.0000 2.0730230727
Eu  Eu2       1.0  0.52855  0.46218  0.58492  1.0000 2.0730230727
Eu  Eu3       1.0  0.51709  0.48078  0.91415  1.0000 2.0859483002
Eu  Eu4       1.0  0.48291  0.51922  0.08585  1.0000 2.0789088725
H   H1        1.0  0.72430  0.74510  0.51540  1.0000 0.1292874394
H   H2        1.0  0.27570  0.25490  0.48460  1.0000 0.1292874394
H   H3        1.0  0.72590  0.66710  0.38680  1.0000 0.1179292123
H   H4        1.0  0.27410  0.33290  0.61320  1.0000 0.1179292123
H   H5        1.0  0.91780  0.87890  0.39110  1.0000 0.1292874394
H   H6        1.0  0.08220  0.12110  0.60890  1.0000 0.1292874394
H   H7        1.0  0.00340  0.85510  0.32010  1.0000 0.1099983348
H   H8        1.0  0.99660  0.14490  0.67990  1.0000 0.1099983348
H   H9        1.0  0.05870  0.87400  0.23530  1.0000 0.1179292123
H   H10       1.0  0.94130  0.12600  0.76470  1.0000 0.1179292123
H   H11       1.0  0.80920  0.73550  0.22590  1.0000 0.1179292123
H   H12       1.0  0.19080  0.26450  0.77410  1.0000 0.1179292123
H   H13       1.0  0.75140  0.71840  0.31010  1.0000 0.1179292123
H   H14       1.0  0.24860  0.28160  0.68990  1.0000 0.1179292123
H   H15       1.0  0.75010  0.27150  0.43710  1.0000 0.1292874394
H   H16       1.0  0.24990  0.72850  0.56290  1.0000 0.1351267068
H   H17       1.0  0.02660  0.26230  0.34690  1.0000 0.1179292123
H   H18       1.0  0.97340  0.73770  0.65310  1.0000 0.1179292123
H   H19       1.0  0.81550  0.48060  0.30950  1.0000 0.1099983348
H   H20       1.0  0.18450  0.51940  0.69050  1.0000 0.1099983348
H   H21       1.0  0.96810  0.56890  0.27600  1.0000 0.1099983348
H   H22       1.0  0.03190  0.43110  0.72400  1.0000 0.1099983348
H   H23       1.0  0.09420  0.64430  0.21060  1.0000 0.1099983348
H   H24       1.0  0.90580  0.35570  0.78940  1.0000 0.1099983348
H   H25       1.0  0.20670  0.37500  0.19440  1.0000 0.1099983348
H   H26       1.0  0.79330  0.62500  0.80560  1.0000 0.1099983348
H   H27       1.0  0.07760  0.30080  0.25850  1.0000 0.1099983348
H   H28       1.0  0.92240  0.69920  0.74150  1.0000 0.1099983348
H   H29       1.0  0.73820  0.24040  0.05730  1.0000 0.1351267068
H   H30       1.0  0.26180  0.75960  0.94270  1.0000 0.1292874394
H   H31       1.0  0.54390  0.18230  0.18890  1.0000 0.1099983348
H   H32       1.0  0.45610  0.81770  0.81110  1.0000 0.1099983348
H   H33       1.0  0.75780  0.97560  0.15380  1.0000 0.1179292123
H   H34       1.0  0.24220  0.02440  0.84620  1.0000 0.1179292123
H   H35       1.0  0.62660  0.87140  0.20150  1.0000 0.1099983348
H   H36       1.0  0.37340  0.12860  0.79850  1.0000 0.1099983348
H   H37       1.0  0.55840  0.76030  0.27470  1.0000 0.1179292123
H   H38       1.0  0.44160  0.23970  0.72530  1.0000 0.1179292123
H   H39       1.0  0.49590  0.98330  0.34430  1.0000 0.1179292123
H   H40       1.0  0.50410  0.01670  0.65570  1.0000 0.1179292123
H   H41       1.0  0.56110  0.09500  0.27040  1.0000 0.1099983348
H   H42       1.0  0.43890  0.90500  0.72960  1.0000 0.1099983348
H   H43       1.0  0.74470  0.72950  0.01360  1.0000 0.1292874394
H   H44       1.0  0.25530  0.27050  0.98640  1.0000 0.1292874394
H   H45       1.0  0.86260  0.92630  0.88820  1.0000 0.1292874394
H   H46       1.0  0.13740  0.07370  0.11180  1.0000 0.1292874394
H   H47       1.0  0.67930  0.71140  0.88150  1.0000 0.1179292123
H   H48       1.0  0.32070  0.28860  0.11850  1.0000 0.1179292123
H   H49       1.0  0.65120  0.82260  0.81020  1.0000 0.1179292123
H   H50       1.0  0.34880  0.17740  0.18980  1.0000 0.1179292123
H   H51       1.0  0.67490  0.87760  0.72490  1.0000 0.1179292123
H   H52       1.0  0.32510  0.12240  0.27510  1.0000 0.1179292123
H   H53       1.0  0.96370  0.95750  0.72350  1.0000 0.1099983348
H   H54       1.0  0.03630  0.04250  0.27650  1.0000 0.1099983348
H   H55       1.0  0.93700  0.90700  0.81030  1.0000 0.1099983348
H   H56       1.0  0.06300  0.09300  0.18970  1.0000 0.1099983348
C   C1        1.0  0.82530  0.82290  0.45730  1.0000 -0.012202538
C   C2        1.0  0.17470  0.17710  0.54270  1.0000 -0.012202538
C   C3        1.0  0.75070  0.75250  0.48150  1.0000 -0.0984870038
C   C4        1.0  0.24930  0.24750  0.51850  1.0000 -0.0984870038
C   C5        1.0  0.71580  0.69310  0.45490  1.0000 -0.0312575775
C   C6        1.0  0.28420  0.30690  0.54510  1.0000 -0.0312575775
C   C7        1.0  0.75200  0.70580  0.40450  1.0000 -0.1418447571
C   C8        1.0  0.24800  0.29420  0.59550  1.0000 -0.1418447571
C   C9        1.0  0.82840  0.77660  0.37910  1.0000 0.0697045901
C   C10       1.0  0.17160  0.22340  0.62090  1.0000 0.0697045901
C   C11       1.0  0.86560  0.83350  0.40670  1.0000 -0.1515144496
C   C12       1.0  0.13440  0.16650  0.59330  1.0000 -0.1515144496
C   C13       1.0  0.86610  0.78880  0.32440  1.0000 0.0697045901
C   C14       1.0  0.13390  0.21120  0.67560  1.0000 0.0697045901
C   C15       1.0  0.96210  0.83340  0.30120  1.0000 -0.1515144496
C   C16       1.0  0.03790  0.16660  0.69880  1.0000 -0.1515144496
C   C17       1.0  0.99490  0.84490  0.25010  1.0000 -0.0984870038
C   C18       1.0  0.00510  0.15510  0.74990  1.0000 -0.0984870038
C   C19       1.0  0.93650  0.81480  0.22080  1.0000 -0.0212502458
C   C20       1.0  0.06350  0.18520  0.77920  1.0000 -0.0212502458
C   C21       1.0  0.84670  0.76290  0.24430  1.0000 -0.0984870038
C   C22       1.0  0.15330  0.23710  0.75570  1.0000 -0.0984870038
C   C23       1.0  0.81280  0.75200  0.29520  1.0000 -0.1418447571
C   C24       1.0  0.18720  0.24800  0.70480  1.0000 -0.1515144496
C   C25       1.0  0.85980  0.88870  0.48670  1.0000 0.6273265003
C   C26       1.0  0.14020  0.11130  0.51330  1.0000 0.6273265003
C   C27       1.0  0.64020  0.61260  0.48220  1.0000 0.6752292036
C   C28       1.0  0.35980  0.38740  0.51780  1.0000 0.6752292036
C   C29       1.0  0.97360  0.83050  0.16540  1.0000 0.5588908611
C   C30       1.0  0.02640  0.16950  0.83460  1.0000 0.5588908611
C   C31       1.0  0.76570  0.38350  0.37490  1.0000 -0.0212502458
C   C32       1.0  0.23430  0.61650  0.62510  1.0000 -0.0212502458
C   C33       1.0  0.79570  0.29850  0.40780  1.0000 -0.0934940906
C   C34       1.0  0.20430  0.70150  0.59220  1.0000 -0.0984870038
C   C35       1.0  0.89440  0.25290  0.39730  1.0000 -0.0212502458
C   C36       1.0  0.10560  0.74710  0.60270  1.0000 -0.0212502458
C   C37       1.0  0.96130  0.29310  0.35390  1.0000 -0.1418447571
C   C38       1.0  0.03870  0.70690  0.64610  1.0000 -0.1418447571
C   C39       1.0  0.93300  0.37930  0.32000  1.0000 0.0573790526
C   C40       1.0  0.06700  0.62070  0.68000  1.0000 0.0573790526
C   C41       1.0  0.83530  0.42300  0.33150  1.0000 -0.1418447571
C   C42       1.0  0.16470  0.57700  0.66850  1.0000 -0.1418447571
C   C43       1.0  0.01100  0.42640  0.27530  1.0000 0.0697045901
C   C44       1.0  0.98900  0.57360  0.72470  1.0000 0.0697045901
C   C45       1.0  0.01660  0.52940  0.25990  1.0000 -0.1515144496
C   C46       1.0  0.98340  0.47060  0.74010  1.0000 -0.1515144496
C   C47       1.0  0.09290  0.57500  0.22080  1.0000 -0.0984870038
C   C48       1.0  0.90710  0.42500  0.77920  1.0000 -0.0984870038
C   C49       1.0  0.16700  0.51730  0.19710  1.0000 -0.0212502458
C   C50       1.0  0.83300  0.48270  0.80290  1.0000 -0.0212502458
C   C51       1.0  0.15940  0.41470  0.21110  1.0000 -0.0984870038
C   C52       1.0  0.84060  0.58530  0.78890  1.0000 -0.0984870038
C   C53       1.0  0.08180  0.37000  0.24970  1.0000 -0.1558017911
C   C54       1.0  0.91820  0.63000  0.75030  1.0000 -0.1558017911
C   C55       1.0  0.66110  0.43290  0.38570  1.0000 0.5689951746
C   C56       1.0  0.33890  0.56710  0.61430  1.0000 0.5689951746
C   C57       1.0  0.92960  0.16290  0.43530  1.0000 0.6440592228
C   C58       1.0  0.07040  0.83710  0.56470  1.0000 0.6440592228
C   C59       1.0  0.25590  0.56610  0.15900  1.0000 0.601714891
C   C60       1.0  0.74410  0.43390  0.84100  1.0000 0.601714891
C   C61       1.0  0.76200  0.10270  0.10010  1.0000 -0.0312575775
C   C62       1.0  0.23800  0.89730  0.89990  1.0000 -0.0312575775
C   C63       1.0  0.71480  0.19690  0.08790  1.0000 -0.0984870038
C   C64       1.0  0.28520  0.80310  0.91210  1.0000 -0.0984870038
C   C65       1.0  0.63270  0.22680  0.12110  1.0000 -0.012202538
C   C66       1.0  0.36730  0.77320  0.87890  1.0000 -0.012202538
C   C67       1.0  0.59830  0.16170  0.16660  1.0000 -0.1418447571
C   C68       1.0  0.40170  0.83830  0.83340  1.0000 -0.1418447571
C   C69       1.0  0.64290  0.06650  0.17970  1.0000 0.0525727911
C   C70       1.0  0.35710  0.93350  0.82030  1.0000 0.0525727911
C   C71       1.0  0.72600  0.03870  0.14560  1.0000 -0.1418447571
C   C72       1.0  0.27400  0.96130  0.85440  1.0000 -0.1418447571
C   C73       1.0  0.60070  0.99610  0.22740  1.0000 0.0573790526
C   C74       1.0  0.39930  0.00390  0.77260  1.0000 0.0573790526
C   C75       1.0  0.59970  0.89490  0.22980  1.0000 -0.1515144496
C   C76       1.0  0.40030  0.10510  0.77020  1.0000 -0.1515144496
C   C77       1.0  0.55910  0.82780  0.27400  1.0000 -0.0984870038
C   C78       1.0  0.44090  0.17220  0.72600  1.0000 -0.0984870038
C   C79       1.0  0.51980  0.86010  0.31690  1.0000 -0.0212502458
C   C80       1.0  0.48020  0.13990  0.68310  1.0000 -0.0212502458
C   C81       1.0  0.52130  0.96050  0.31560  1.0000 -0.0984870038
C   C82       1.0  0.47870  0.03950  0.68440  1.0000 -0.0984870038
C   C83       1.0  0.56100  0.02740  0.27100  1.0000 -0.1515144496
C   C84       1.0  0.43900  0.97260  0.72900  1.0000 -0.1515144496
C   C85       1.0  0.84910  0.06840  0.06400  1.0000 0.6494787453
C   C86       1.0  0.15090  0.93160  0.93600  1.0000 0.6494787453
C   C87       1.0  0.58020  0.32800  0.10810  1.0000 0.5689951746
C   C88       1.0  0.41980  0.67200  0.89190  1.0000 0.5689951746
C   C89       1.0  0.48080  0.78480  0.36510  1.0000 0.5940233885
C   C90       1.0  0.51920  0.21520  0.63490  1.0000 0.5940233885
C   C91       1.0  0.70000  0.70800  0.95200  1.0000 -0.0312575775
C   C92       1.0  0.30000  0.29200  0.04800  1.0000 -0.0312575775
C   C93       1.0  0.75180  0.75340  0.97900  1.0000 -0.0984870038
C   C94       1.0  0.24820  0.24660  0.02100  1.0000 -0.0984870038
C   C95       1.0  0.81470  0.83440  0.95510  1.0000 -0.0312575775
C   C96       1.0  0.18530  0.16560  0.04490  1.0000 -0.0363153232
C   C97       1.0  0.82360  0.87000  0.90400  1.0000 -0.1418447571
C   C98       1.0  0.17640  0.13000  0.09600  1.0000 -0.1418447571
C   C99       1.0  0.77540  0.82330  0.87540  1.0000 0.0573790526
C   C100      1.0  0.22460  0.17670  0.12460  1.0000 0.0573790526
C   C101      1.0  0.71290  0.74270  0.89980  1.0000 -0.1336673678
C   C102      1.0  0.28710  0.25730  0.10020  1.0000 -0.1336673678
C   C103      1.0  0.79040  0.85890  0.82000  1.0000 0.0697045901
C   C104      1.0  0.20960  0.14110  0.18000  1.0000 0.0697045901
C   C105      1.0  0.71430  0.85090  0.79320  1.0000 -0.1515144496
C   C106      1.0  0.28570  0.14910  0.20680  1.0000 -0.1515144496
C   C107      1.0  0.72840  0.88330  0.74180  1.0000 -0.0934940906
C   C108      1.0  0.27160  0.11670  0.25820  1.0000 -0.0934940906
C   C109      1.0  0.82170  0.92430  0.71540  1.0000 -0.012202538
C   C110      1.0  0.17830  0.07570  0.28460  1.0000 -0.012202538
C   C111      1.0  0.89980  0.93160  0.74090  1.0000 -0.0984870038
C   C112      1.0  0.10020  0.06840  0.25910  1.0000 -0.0984870038
C   C113      1.0  0.88410  0.90010  0.79330  1.0000 -0.1558017911
C   C114      1.0  0.11590  0.09990  0.20670  1.0000 -0.1558017911
C   C115      1.0  0.63040  0.62340  0.97890  1.0000 0.670456004
C   C116      1.0  0.36960  0.37660  0.02110  1.0000 0.670456004
C   C117      1.0  0.87300  0.88010  0.98470  1.0000 0.6494787453
C   C118      1.0  0.12700  0.11990  0.01530  1.0000 0.6494787453
C   C119      1.0  0.83870  0.96110  0.65930  1.0000 0.5588908611
C   C120      1.0  0.16130  0.03890  0.34070  1.0000 0.5588908611
O   O1        1.0  0.94570  0.93200  0.47215  1.0000 -0.7283786218
O   O2        1.0  0.05430  0.06800  0.52785  1.0000 -0.7356761576
O   O3        1.0  0.79910  0.89900  0.52589  1.0000 -0.610947314
O   O4        1.0  0.20090  0.10100  0.47411  1.0000 -0.610947314
O   O5        1.0  0.59970  0.56730  0.45670  1.0000 -0.7183913471
O   O6        1.0  0.40030  0.43270  0.54330  1.0000 -0.7183913471
O   O7        1.0  0.62380  0.59060  0.52878  1.0000 -0.6707659991
O   O8        1.0  0.37620  0.40940  0.47122  1.0000 -0.6707659991
O   O9        1.0  0.04520  0.88960  0.14447  1.0000 -0.6213094773
O   O10       1.0  0.95480  0.11040  0.85553  1.0000 -0.6213094773
O   O11       1.0  0.93130  0.78580  0.14087  1.0000 -0.6213094773
O   O12       1.0  0.06870  0.21420  0.85913  1.0000 -0.6213094773
O   O13       1.0  0.63990  0.51690  0.35808  1.0000 -0.6419556768
O   O14       1.0  0.36010  0.48310  0.64192  1.0000 -0.6419556768
O   O15       1.0  0.59550  0.39250  0.42354  1.0000 -0.6213094773
O   O16       1.0  0.40450  0.60750  0.57646  1.0000 -0.6213094773
O   O17       1.0  0.86870  0.13510  0.47589  1.0000 -0.6707659991
O   O18       1.0  0.13130  0.86490  0.52411  1.0000 -0.6707659991
O   O19       1.0  0.01880  0.12660  0.42246  1.0000 -0.6518265487
O   O20       1.0  0.98120  0.87340  0.57754  1.0000 -0.6518265487
O   O21       1.0  0.25990  0.65930  0.14692  1.0000 -0.5403465511
O   O22       1.0  0.74010  0.34070  0.85308  1.0000 -0.5470567228
O   O23       1.0  0.32570  0.50800  0.14153  1.0000 -0.7283786218
O   O24       1.0  0.67430  0.49200  0.85847  1.0000 -0.7283786218
O   O25       1.0  0.88910  0.98360  0.07757  1.0000 -0.6419556768
O   O26       1.0  0.11090  0.01640  0.92243  1.0000 -0.6419556768
O   O27       1.0  0.87590  0.12730  0.02152  1.0000 -0.6898033799
O   O28       1.0  0.12410  0.87270  0.97848  1.0000 -0.6898033799
O   O29       1.0  0.50410  0.35110  0.13833  1.0000 -0.6419556768
O   O30       1.0  0.49590  0.64890  0.86167  1.0000 -0.6419556768
O   O31       1.0  0.61240  0.38720  0.06681  1.0000 -0.6312812151
O   O32       1.0  0.38760  0.61280  0.93319  1.0000 -0.6312812151
O   O33       1.0  0.49050  0.69420  0.36318  1.0000 -0.7135720136
O   O34       1.0  0.50950  0.30580  0.63682  1.0000 -0.7135720136
O   O35       1.0  0.44390  0.81440  0.40300  1.0000 -0.5299009265
O   O36       1.0  0.55610  0.18560  0.59700  1.0000 -0.5299009265
O   O37       1.0  0.59760  0.57200  0.95480  1.0000 -0.6898033799
O   O38       1.0  0.40240  0.42800  0.04520  1.0000 -0.6843331934
O   O39       1.0  0.61130  0.60700  0.02558  1.0000 -0.7014804166
O   O40       1.0  0.38870  0.39300  0.97442  1.0000 -0.6898033799
O   O41       1.0  0.90120  0.96790  0.96719  1.0000 -0.7014804166
O   O42       1.0  0.09880  0.03210  0.03281  1.0000 -0.7014804166
O   O43       1.0  0.89380  0.82670  0.02536  1.0000 -0.6419556768
O   O44       1.0  0.10620  0.17330  0.97464  1.0000 -0.6419556768
O   O45       1.0  0.77830  0.93540  0.63516  1.0000 -0.610947314
O   O46       1.0  0.22170  0.06460  0.36484  1.0000 -0.610947314
O   O47       1.0  0.91300  0.01760  0.63837  1.0000 -0.6312812151
O   O48       1.0  0.08700  0.98240  0.36163  1.0000 -0.6312812151
