# DDEC6 charges by PACMAN v1.1 (https://github.com/mtap-research/PACMAN-charge/)
data_2015[CoW][nan]3[ASR]1
_chemical_formula_sum              "Co32 P8 H192 W72 C288 N96 O232"
_cell_length_a       13.413
_cell_length_b       29.325
_cell_length_c       36.016
_cell_angle_alpha    90
_cell_angle_beta     90
_cell_angle_gamma    90

_symmetry_space_group_name_H-M    "P 1"
_symmetry_Int_Tables_number       1

loop_
  _symmetry_equiv_pos_as_xyz
  'x, y, z'

loop_
  _atom_site_type_symbol
  _atom_site_label
  _atom_site_symmetry_multiplicity
  _atom_site_fract_x
  _atom_site_fract_y
  _atom_site_fract_z
  _atom_site_occupancy
  _atom_site_charge
Co  Co1       1.0  0.57590  0.41348  0.50472  1.0000 1.1143343693
Co  Co2       1.0  0.42410  0.08652  0.00472  1.0000 1.1143343693
Co  Co3       1.0  0.92410  0.91348  0.49528  1.0000 1.1143343693
Co  Co4       1.0  0.07590  0.58652  0.99528  1.0000 1.1143343693
Co  Co5       1.0  0.42410  0.58652  0.49528  1.0000 1.1143343693
Co  Co6       1.0  0.57590  0.91348  0.99528  1.0000 1.1143343693
Co  Co7       1.0  0.07590  0.08652  0.50472  1.0000 1.1143343693
Co  Co8       1.0  0.92410  0.41348  0.00472  1.0000 1.1143343693
Co  Co9       1.0  0.38606  0.47895  0.50706  1.0000 1.1520294493
Co  Co10      1.0  0.61394  0.02105  0.00706  1.0000 1.1520294493
Co  Co11      1.0  0.11394  0.97895  0.49294  1.0000 1.1520294493
Co  Co12      1.0  0.88606  0.52105  0.99294  1.0000 1.1520294493
Co  Co13      1.0  0.61394  0.52105  0.49294  1.0000 1.1520294493
Co  Co14      1.0  0.38606  0.97895  0.99294  1.0000 1.1520294493
Co  Co15      1.0  0.88606  0.02105  0.50706  1.0000 1.1520294493
Co  Co16      1.0  0.11394  0.47895  0.00706  1.0000 1.1520294493
Co  Co17      1.0  0.17661  0.46987  0.26149  1.0000 0.7996465212
Co  Co18      1.0  0.82339  0.03013  0.76149  1.0000 0.7996465212
Co  Co19      1.0  0.32339  0.96987  0.73851  1.0000 0.7996465212
Co  Co20      1.0  0.67661  0.53013  0.23851  1.0000 0.7996465212
Co  Co21      1.0  0.82339  0.53013  0.73851  1.0000 0.7996465212
Co  Co22      1.0  0.17661  0.96987  0.23851  1.0000 0.7996465212
Co  Co23      1.0  0.67661  0.03013  0.26149  1.0000 0.7996465212
Co  Co24      1.0  0.32339  0.46987  0.76149  1.0000 0.7996465212
Co  Co25      1.0  0.10965  0.71568  0.56523  1.0000 0.8803957796
Co  Co26      1.0  0.89035  0.78432  0.06523  1.0000 0.8803957796
Co  Co27      1.0  0.39035  0.21568  0.43477  1.0000 0.8803957796
Co  Co28      1.0  0.60965  0.28432  0.93477  1.0000 0.8803957796
Co  Co29      1.0  0.89035  0.28432  0.43477  1.0000 0.8803957796
Co  Co30      1.0  0.10965  0.21568  0.93477  1.0000 0.8803957796
Co  Co31      1.0  0.60965  0.78432  0.56523  1.0000 0.8803957796
Co  Co32      1.0  0.39035  0.71568  0.06523  1.0000 0.8803957796
P   P1        1.0  0.50830  0.45897  0.42648  1.0000 1.3628290284
P   P2        1.0  0.49170  0.04103  0.92648  1.0000 1.3670560365
P   P3        1.0  0.99170  0.95897  0.57352  1.0000 1.3628290284
P   P4        1.0  0.00830  0.54103  0.07352  1.0000 1.3628290284
P   P5        1.0  0.49170  0.54103  0.57352  1.0000 1.3628290284
P   P6        1.0  0.50830  0.95897  0.07352  1.0000 1.3628290284
P   P7        1.0  0.00830  0.04103  0.42648  1.0000 1.3628290284
P   P8        1.0  0.99170  0.45897  0.92648  1.0000 1.3628290284
H   H1        1.0  0.27780  0.19900  0.23320  1.0000 0.109772608
H   H2        1.0  0.72220  0.30100  0.73320  1.0000 0.109772608
H   H3        1.0  0.22220  0.69900  0.76680  1.0000 0.109772608
H   H4        1.0  0.77780  0.80100  0.26680  1.0000 0.109772608
H   H5        1.0  0.72220  0.80100  0.76680  1.0000 0.109772608
H   H6        1.0  0.27780  0.69900  0.26680  1.0000 0.109772608
H   H7        1.0  0.77780  0.30100  0.23320  1.0000 0.109772608
H   H8        1.0  0.22220  0.19900  0.73320  1.0000 0.109772608
H   H9        1.0  0.33000  0.14140  0.13390  1.0000 0.109772608
H   H10       1.0  0.67000  0.35860  0.63390  1.0000 0.109772608
H   H11       1.0  0.17000  0.64140  0.86610  1.0000 0.109772608
H   H12       1.0  0.83000  0.85860  0.36610  1.0000 0.109772608
H   H13       1.0  0.67000  0.85860  0.86610  1.0000 0.109772608
H   H14       1.0  0.33000  0.64140  0.36610  1.0000 0.109772608
H   H15       1.0  0.83000  0.35860  0.13390  1.0000 0.109772608
H   H16       1.0  0.17000  0.14140  0.63390  1.0000 0.109772608
H   H17       1.0  0.34640  0.07250  0.16390  1.0000 0.109772608
H   H18       1.0  0.65360  0.42750  0.66390  1.0000 0.109772608
H   H19       1.0  0.15360  0.57250  0.83610  1.0000 0.109772608
H   H20       1.0  0.84640  0.92750  0.33610  1.0000 0.109772608
H   H21       1.0  0.65360  0.92750  0.83610  1.0000 0.109772608
H   H22       1.0  0.34640  0.57250  0.33610  1.0000 0.109772608
H   H23       1.0  0.84640  0.42750  0.16390  1.0000 0.109772608
H   H24       1.0  0.15360  0.07250  0.66390  1.0000 0.109772608
H   H25       1.0  0.06790  0.57160  0.36770  1.0000 0.1190739447
H   H26       1.0  0.93210  0.92840  0.86770  1.0000 0.1190739447
H   H27       1.0  0.43210  0.07160  0.63230  1.0000 0.1190739447
H   H28       1.0  0.56790  0.42840  0.13230  1.0000 0.1190739447
H   H29       1.0  0.93210  0.42840  0.63230  1.0000 0.1190739447
H   H30       1.0  0.06790  0.07160  0.13230  1.0000 0.1190739447
H   H31       1.0  0.56790  0.92840  0.36770  1.0000 0.1190739447
H   H32       1.0  0.43210  0.57160  0.86770  1.0000 0.1190739447
H   H33       1.0  0.10570  0.50300  0.33740  1.0000 0.109772608
H   H34       1.0  0.89430  0.99700  0.83740  1.0000 0.109772608
H   H35       1.0  0.39430  0.00300  0.66260  1.0000 0.109772608
H   H36       1.0  0.60570  0.49700  0.16260  1.0000 0.109772608
H   H37       1.0  0.89430  0.49700  0.66260  1.0000 0.109772608
H   H38       1.0  0.10570  0.00300  0.16260  1.0000 0.109772608
H   H39       1.0  0.60570  0.99700  0.33740  1.0000 0.109772608
H   H40       1.0  0.39430  0.50300  0.83740  1.0000 0.109772608
H   H41       1.0  0.08850  0.77080  0.43230  1.0000 0.1190739447
H   H42       1.0  0.91150  0.72920  0.93230  1.0000 0.1190739447
H   H43       1.0  0.41150  0.27080  0.56770  1.0000 0.1190739447
H   H44       1.0  0.58850  0.22920  0.06770  1.0000 0.1190739447
H   H45       1.0  0.91150  0.22920  0.56770  1.0000 0.1190739447
H   H46       1.0  0.08850  0.27080  0.06770  1.0000 0.1190739447
H   H47       1.0  0.58850  0.72920  0.43230  1.0000 0.1190739447
H   H48       1.0  0.41150  0.77080  0.93230  1.0000 0.1190739447
H   H49       1.0  0.06300  0.81840  0.34900  1.0000 0.109772608
H   H50       1.0  0.93700  0.68160  0.84900  1.0000 0.109772608
H   H51       1.0  0.43700  0.31840  0.65100  1.0000 0.109772608
H   H52       1.0  0.56300  0.18160  0.15100  1.0000 0.109772608
H   H53       1.0  0.93700  0.18160  0.65100  1.0000 0.109772608
H   H54       1.0  0.06300  0.31840  0.15100  1.0000 0.109772608
H   H55       1.0  0.56300  0.68160  0.34900  1.0000 0.109772608
H   H56       1.0  0.43700  0.81840  0.84900  1.0000 0.109772608
H   H57       1.0  0.05540  0.88120  0.31200  1.0000 0.0977905972
H   H58       1.0  0.94460  0.61880  0.81200  1.0000 0.0977905972
H   H59       1.0  0.44460  0.38120  0.68800  1.0000 0.0977905972
H   H60       1.0  0.55540  0.11880  0.18800  1.0000 0.0977905972
H   H61       1.0  0.94460  0.11880  0.68800  1.0000 0.0977905972
H   H62       1.0  0.05540  0.38120  0.18800  1.0000 0.0977905972
H   H63       1.0  0.55540  0.61880  0.31200  1.0000 0.0977905972
H   H64       1.0  0.44460  0.88120  0.81200  1.0000 0.0977905972
H   H65       1.0  0.07360  0.55950  0.24070  1.0000 0.0977905972
H   H66       1.0  0.92640  0.94050  0.74070  1.0000 0.0977905972
H   H67       1.0  0.42640  0.05950  0.75930  1.0000 0.0977905972
H   H68       1.0  0.57360  0.44050  0.25930  1.0000 0.0977905972
H   H69       1.0  0.92640  0.44050  0.75930  1.0000 0.0977905972
H   H70       1.0  0.07360  0.05950  0.25930  1.0000 0.0977905972
H   H71       1.0  0.57360  0.94050  0.24070  1.0000 0.0977905972
H   H72       1.0  0.42640  0.55950  0.74070  1.0000 0.0977905972
H   H73       1.0  0.27870  0.12760  0.25870  1.0000 0.0906544658
H   H74       1.0  0.72130  0.37240  0.75870  1.0000 0.0906544658
H   H75       1.0  0.22130  0.62760  0.74130  1.0000 0.0906544658
H   H76       1.0  0.77870  0.87240  0.24130  1.0000 0.0906544658
H   H77       1.0  0.72130  0.87240  0.74130  1.0000 0.0906544658
H   H78       1.0  0.27870  0.62760  0.24130  1.0000 0.0906544658
H   H79       1.0  0.77870  0.37240  0.25870  1.0000 0.0906544658
H   H80       1.0  0.22130  0.12760  0.75870  1.0000 0.0906544658
H   H81       1.0  0.31860  0.38800  0.15330  1.0000 0.1190739447
H   H82       1.0  0.68140  0.11200  0.65330  1.0000 0.1190739447
H   H83       1.0  0.18140  0.88800  0.84670  1.0000 0.1190739447
H   H84       1.0  0.81860  0.61200  0.34670  1.0000 0.1190739447
H   H85       1.0  0.68140  0.61200  0.84670  1.0000 0.1190739447
H   H86       1.0  0.31860  0.88800  0.34670  1.0000 0.1190739447
H   H87       1.0  0.81860  0.11200  0.15330  1.0000 0.1190739447
H   H88       1.0  0.18140  0.38800  0.65330  1.0000 0.1190739447
H   H89       1.0  0.03760  0.63020  0.26840  1.0000 0.109772608
H   H90       1.0  0.96240  0.86980  0.76840  1.0000 0.109772608
H   H91       1.0  0.46240  0.13020  0.73160  1.0000 0.109772608
H   H92       1.0  0.53760  0.36980  0.23160  1.0000 0.109772608
H   H93       1.0  0.96240  0.36980  0.73160  1.0000 0.109772608
H   H94       1.0  0.03760  0.13020  0.23160  1.0000 0.109772608
H   H95       1.0  0.53760  0.86980  0.26840  1.0000 0.109772608
H   H96       1.0  0.46240  0.63020  0.76840  1.0000 0.109772608
H   H97       1.0  0.28220  0.44920  0.18940  1.0000 0.109772608
H   H98       1.0  0.71780  0.05080  0.68940  1.0000 0.109772608
H   H99       1.0  0.21780  0.94920  0.81060  1.0000 0.109772608
H   H100      1.0  0.78220  0.55080  0.31060  1.0000 0.109772608
H   H101      1.0  0.71780  0.55080  0.81060  1.0000 0.109772608
H   H102      1.0  0.28220  0.94920  0.31060  1.0000 0.109772608
H   H103      1.0  0.78220  0.05080  0.18940  1.0000 0.109772608
H   H104      1.0  0.21780  0.44920  0.68940  1.0000 0.109772608
H   H105      1.0  0.03310  0.73870  0.25930  1.0000 0.109772608
H   H106      1.0  0.96690  0.76130  0.75930  1.0000 0.109772608
H   H107      1.0  0.46690  0.23870  0.74070  1.0000 0.109772608
H   H108      1.0  0.53310  0.26130  0.24070  1.0000 0.109772608
H   H109      1.0  0.96690  0.26130  0.74070  1.0000 0.109772608
H   H110      1.0  0.03310  0.23870  0.24070  1.0000 0.109772608
H   H111      1.0  0.53310  0.76130  0.25930  1.0000 0.109772608
H   H112      1.0  0.46690  0.73870  0.75930  1.0000 0.109772608
H   H113      1.0  0.11580  0.77460  0.49440  1.0000 0.0906544658
H   H114      1.0  0.88420  0.72540  0.99440  1.0000 0.0906544658
H   H115      1.0  0.38420  0.27460  0.50560  1.0000 0.0906544658
H   H116      1.0  0.61580  0.22540  0.00560  1.0000 0.0906544658
H   H117      1.0  0.88420  0.22540  0.50560  1.0000 0.0906544658
H   H118      1.0  0.11580  0.27460  0.00560  1.0000 0.0906544658
H   H119      1.0  0.61580  0.72540  0.49440  1.0000 0.0906544658
H   H120      1.0  0.38420  0.77460  0.99440  1.0000 0.0906544658
H   H121      1.0  0.29750  0.30860  0.24360  1.0000 0.1190739447
H   H122      1.0  0.70250  0.19140  0.74360  1.0000 0.1190739447
H   H123      1.0  0.20250  0.80860  0.75640  1.0000 0.1190739447
H   H124      1.0  0.79750  0.69140  0.25640  1.0000 0.1190739447
H   H125      1.0  0.70250  0.69140  0.75640  1.0000 0.1190739447
H   H126      1.0  0.29750  0.80860  0.25640  1.0000 0.1190739447
H   H127      1.0  0.79750  0.19140  0.24360  1.0000 0.1190739447
H   H128      1.0  0.20250  0.30860  0.74360  1.0000 0.1190739447
H   H129      1.0  0.25970  0.37240  0.27780  1.0000 0.109772608
H   H130      1.0  0.74030  0.12760  0.77780  1.0000 0.109772608
H   H131      1.0  0.24030  0.87240  0.72220  1.0000 0.109772608
H   H132      1.0  0.75970  0.62760  0.22220  1.0000 0.109772608
H   H133      1.0  0.74030  0.62760  0.72220  1.0000 0.109772608
H   H134      1.0  0.25970  0.87240  0.22220  1.0000 0.109772608
H   H135      1.0  0.75970  0.12760  0.27780  1.0000 0.109772608
H   H136      1.0  0.24030  0.37240  0.77780  1.0000 0.109772608
H   H137      1.0  0.37070  0.21470  0.05950  1.0000 0.1190739447
H   H138      1.0  0.62930  0.28530  0.55950  1.0000 0.1190739447
H   H139      1.0  0.12930  0.71470  0.94050  1.0000 0.1190739447
H   H140      1.0  0.87070  0.78530  0.44050  1.0000 0.1190739447
H   H141      1.0  0.62930  0.78530  0.94050  1.0000 0.1190739447
H   H142      1.0  0.37070  0.71470  0.44050  1.0000 0.1190739447
H   H143      1.0  0.87070  0.28530  0.05950  1.0000 0.1190739447
H   H144      1.0  0.12930  0.21470  0.55950  1.0000 0.1190739447
H   H145      1.0  0.37650  0.22640  0.99760  1.0000 0.109772608
H   H146      1.0  0.62350  0.27360  0.49760  1.0000 0.109772608
H   H147      1.0  0.12350  0.72640  0.00240  1.0000 0.109772608
H   H148      1.0  0.87650  0.77360  0.50240  1.0000 0.109772608
H   H149      1.0  0.62350  0.77360  0.00240  1.0000 0.109772608
H   H150      1.0  0.37650  0.72640  0.50240  1.0000 0.109772608
H   H151      1.0  0.87650  0.27360  0.99760  1.0000 0.109772608
H   H152      1.0  0.12350  0.22640  0.49760  1.0000 0.109772608
H   H153      1.0  0.28630  0.34400  0.07180  1.0000 0.1258805191
H   H154      1.0  0.71370  0.15600  0.57180  1.0000 0.1258805191
H   H155      1.0  0.21370  0.84400  0.92820  1.0000 0.1258805191
H   H156      1.0  0.78630  0.65600  0.42820  1.0000 0.1258805191
H   H157      1.0  0.71370  0.65600  0.92820  1.0000 0.1258805191
H   H158      1.0  0.28630  0.84400  0.42820  1.0000 0.1258805191
H   H159      1.0  0.78630  0.15600  0.07180  1.0000 0.1258805191
H   H160      1.0  0.21370  0.34400  0.57180  1.0000 0.1258805191
H   H161      1.0  0.29050  0.35040  0.00940  1.0000 0.0977905972
H   H162      1.0  0.70950  0.14960  0.50940  1.0000 0.0977905972
H   H163      1.0  0.20950  0.85040  0.99060  1.0000 0.0977905972
H   H164      1.0  0.79050  0.64960  0.49060  1.0000 0.0977905972
H   H165      1.0  0.70950  0.64960  0.99060  1.0000 0.0977905972
H   H166      1.0  0.29050  0.85040  0.49060  1.0000 0.0977905972
H   H167      1.0  0.79050  0.14960  0.00940  1.0000 0.0977905972
H   H168      1.0  0.20950  0.35040  0.50940  1.0000 0.0977905972
H   H169      1.0  0.08630  0.63530  0.44070  1.0000 0.109772608
H   H170      1.0  0.91370  0.86470  0.94070  1.0000 0.1190739447
H   H171      1.0  0.41370  0.13530  0.55930  1.0000 0.1190739447
H   H172      1.0  0.58630  0.36470  0.05930  1.0000 0.1190739447
H   H173      1.0  0.91370  0.36470  0.55930  1.0000 0.1190739447
H   H174      1.0  0.08630  0.13530  0.05930  1.0000 0.1190739447
H   H175      1.0  0.58630  0.86470  0.44070  1.0000 0.1190739447
H   H176      1.0  0.41370  0.63530  0.94070  1.0000 0.109772608
H   H177      1.0  0.11410  0.64370  0.50370  1.0000 0.109772608
H   H178      1.0  0.88590  0.85630  0.00370  1.0000 0.109772608
H   H179      1.0  0.38590  0.14370  0.49630  1.0000 0.109772608
H   H180      1.0  0.61410  0.35630  0.99630  1.0000 0.109772608
H   H181      1.0  0.88590  0.35630  0.49630  1.0000 0.109772608
H   H182      1.0  0.11410  0.14370  0.99630  1.0000 0.109772608
H   H183      1.0  0.61410  0.85630  0.50370  1.0000 0.109772608
H   H184      1.0  0.38590  0.64370  0.00370  1.0000 0.109772608
H   H185      1.0  0.02690  0.80240  0.22410  1.0000 0.0906544658
H   H186      1.0  0.97310  0.69760  0.72410  1.0000 0.0906544658
H   H187      1.0  0.47310  0.30240  0.77590  1.0000 0.0906544658
H   H188      1.0  0.52690  0.19760  0.27590  1.0000 0.0906544658
H   H189      1.0  0.97310  0.19760  0.77590  1.0000 0.0906544658
H   H190      1.0  0.02690  0.30240  0.27590  1.0000 0.0906544658
H   H191      1.0  0.52690  0.69760  0.22410  1.0000 0.0906544658
H   H192      1.0  0.47310  0.80240  0.72410  1.0000 0.0906544658
W   W1        1.0  0.32659  0.45686  0.35050  1.0000 2.427030397
W   W2        1.0  0.67341  0.04314  0.85050  1.0000 2.427030397
W   W3        1.0  0.17341  0.95686  0.64950  1.0000 2.427030397
W   W4        1.0  0.82659  0.54314  0.14950  1.0000 2.427030397
W   W5        1.0  0.67341  0.54314  0.64950  1.0000 2.427030397
W   W6        1.0  0.32659  0.95686  0.14950  1.0000 2.427030397
W   W7        1.0  0.82659  0.04314  0.35050  1.0000 2.427030397
W   W8        1.0  0.17341  0.45686  0.85050  1.0000 2.427030397
W   W9        1.0  0.29707  0.53058  0.42397  1.0000 2.4087217779
W   W10       1.0  0.70293  0.96942  0.92397  1.0000 2.4087217779
W   W11       1.0  0.20293  0.03058  0.57603  1.0000 2.4087217779
W   W12       1.0  0.79707  0.46942  0.07603  1.0000 2.4087217779
W   W13       1.0  0.70293  0.46942  0.57603  1.0000 2.4087217779
W   W14       1.0  0.29707  0.03058  0.07603  1.0000 2.4087217779
W   W15       1.0  0.79707  0.96942  0.42397  1.0000 2.4087217779
W   W16       1.0  0.20293  0.53058  0.92397  1.0000 2.4087217779
W   W17       1.0  0.54914  0.57823  0.41028  1.0000 2.344063211
W   W18       1.0  0.45086  0.92177  0.91028  1.0000 2.344063211
W   W19       1.0  0.95086  0.07823  0.58972  1.0000 2.3453290706
W   W20       1.0  0.04914  0.42177  0.08972  1.0000 2.344063211
W   W21       1.0  0.45086  0.42177  0.58972  1.0000 2.344063211
W   W22       1.0  0.54914  0.07823  0.08972  1.0000 2.3453290706
W   W23       1.0  0.04914  0.92177  0.41028  1.0000 2.344063211
W   W24       1.0  0.95086  0.57823  0.91028  1.0000 2.3453290706
W   W25       1.0  0.74767  0.50588  0.40879  1.0000 2.4506110027
W   W26       1.0  0.25233  0.99412  0.90879  1.0000 2.4560904747
W   W27       1.0  0.75233  0.00588  0.59121  1.0000 2.4506110027
W   W28       1.0  0.24767  0.49412  0.09121  1.0000 2.4506110027
W   W29       1.0  0.25233  0.49412  0.59121  1.0000 2.4506110027
W   W30       1.0  0.74767  0.00588  0.09121  1.0000 2.4506110027
W   W31       1.0  0.24767  0.99412  0.40879  1.0000 2.4506110027
W   W32       1.0  0.75233  0.50588  0.90879  1.0000 2.4560904747
W   W33       1.0  0.54813  0.38082  0.34814  1.0000 2.4506110027
W   W34       1.0  0.45187  0.11918  0.84814  1.0000 2.4506110027
W   W35       1.0  0.95187  0.88082  0.65186  1.0000 2.4506110027
W   W36       1.0  0.04813  0.61918  0.15186  1.0000 2.4506110027
W   W37       1.0  0.45187  0.61918  0.65186  1.0000 2.4506110027
W   W38       1.0  0.54813  0.88082  0.15186  1.0000 2.4506110027
W   W39       1.0  0.04813  0.11918  0.34814  1.0000 2.4506110027
W   W40       1.0  0.95187  0.38082  0.84814  1.0000 2.4506110027
W   W41       1.0  0.47960  0.33904  0.43505  1.0000 2.427030397
W   W42       1.0  0.52040  0.16096  0.93505  1.0000 2.4206606053
W   W43       1.0  0.02040  0.83904  0.56495  1.0000 2.4206606053
W   W44       1.0  0.97960  0.66096  0.06495  1.0000 2.4206606053
W   W45       1.0  0.52040  0.66096  0.56495  1.0000 2.4206606053
W   W46       1.0  0.47960  0.83904  0.06495  1.0000 2.4206606053
W   W47       1.0  0.97960  0.16096  0.43505  1.0000 2.427030397
W   W48       1.0  0.02040  0.33904  0.93505  1.0000 2.4206606053
W   W49       1.0  0.26408  0.41563  0.43735  1.0000 2.4405762797
W   W50       1.0  0.73592  0.08437  0.93735  1.0000 2.4405762797
W   W51       1.0  0.23592  0.91563  0.56265  1.0000 2.4405762797
W   W52       1.0  0.76408  0.58437  0.06265  1.0000 2.4405762797
W   W53       1.0  0.73592  0.58437  0.56265  1.0000 2.4405762797
W   W54       1.0  0.26408  0.91563  0.06265  1.0000 2.4405762797
W   W55       1.0  0.76408  0.08437  0.43735  1.0000 2.4405762797
W   W56       1.0  0.23592  0.41563  0.93735  1.0000 2.4405762797
W   W57       1.0  0.71223  0.38224  0.42360  1.0000 2.4206606053
W   W58       1.0  0.28777  0.11776  0.92360  1.0000 2.4206606053
W   W59       1.0  0.78777  0.88224  0.57640  1.0000 2.4206606053
W   W60       1.0  0.21223  0.61776  0.07640  1.0000 2.4206606053
W   W61       1.0  0.28777  0.61776  0.57640  1.0000 2.4206606053
W   W62       1.0  0.71223  0.88224  0.07640  1.0000 2.4206606053
W   W63       1.0  0.21223  0.11776  0.42360  1.0000 2.4206606053
W   W64       1.0  0.78777  0.38224  0.92360  1.0000 2.4206606053
W   W65       1.0  0.57798  0.50544  0.33584  1.0000 2.4087217779
W   W66       1.0  0.42202  0.99456  0.83584  1.0000 2.4087217779
W   W67       1.0  0.92202  0.00544  0.66416  1.0000 2.4040112739
W   W68       1.0  0.07798  0.49456  0.16416  1.0000 2.4087217779
W   W69       1.0  0.42202  0.49456  0.66416  1.0000 2.4040112739
W   W70       1.0  0.57798  0.00544  0.16416  1.0000 2.4087217779
W   W71       1.0  0.07798  0.99456  0.33584  1.0000 2.4087217779
W   W72       1.0  0.92202  0.50544  0.83584  1.0000 2.4087217779
C   C1        1.0  0.31090  0.29930  0.17110  1.0000 0.3413004039
C   C2        1.0  0.68910  0.20070  0.67110  1.0000 0.3413004039
C   C3        1.0  0.18910  0.79930  0.82890  1.0000 0.3413004039
C   C4        1.0  0.81090  0.70070  0.32890  1.0000 0.3413004039
C   C5        1.0  0.68910  0.70070  0.82890  1.0000 0.3413004039
C   C6        1.0  0.31090  0.79930  0.32890  1.0000 0.3413004039
C   C7        1.0  0.81090  0.20070  0.17110  1.0000 0.3413004039
C   C8        1.0  0.18910  0.29930  0.67110  1.0000 0.3413004039
C   C9        1.0  0.32010  0.27020  0.11390  1.0000 0.3555586582
C   C10       1.0  0.67990  0.22980  0.61390  1.0000 0.3555586582
C   C11       1.0  0.17990  0.77020  0.88610  1.0000 0.3555586582
C   C12       1.0  0.82010  0.72980  0.38610  1.0000 0.3555586582
C   C13       1.0  0.67990  0.72980  0.88610  1.0000 0.3555586582
C   C14       1.0  0.32010  0.77020  0.38610  1.0000 0.3555586582
C   C15       1.0  0.82010  0.22980  0.11390  1.0000 0.3555586582
C   C16       1.0  0.17990  0.27020  0.61390  1.0000 0.3555586582
C   C17       1.0  0.31120  0.22420  0.16310  1.0000 0.3501719853
C   C18       1.0  0.68880  0.27580  0.66310  1.0000 0.3501719853
C   C19       1.0  0.18880  0.72420  0.83690  1.0000 0.3501719853
C   C20       1.0  0.81120  0.77580  0.33690  1.0000 0.3501719853
C   C21       1.0  0.68880  0.77580  0.83690  1.0000 0.3501719853
C   C22       1.0  0.31120  0.72420  0.33690  1.0000 0.3501719853
C   C23       1.0  0.81120  0.27580  0.16310  1.0000 0.3501719853
C   C24       1.0  0.18880  0.22420  0.66310  1.0000 0.3501719853
C   C25       1.0  0.32470  0.27750  0.07280  1.0000 0.0232373608
C   C26       1.0  0.67530  0.22250  0.57280  1.0000 0.0232373608
C   C27       1.0  0.17530  0.77750  0.92720  1.0000 0.0232373608
C   C28       1.0  0.82470  0.72250  0.42720  1.0000 0.0232373608
C   C29       1.0  0.67530  0.72250  0.92720  1.0000 0.0232373608
C   C30       1.0  0.32470  0.77750  0.42720  1.0000 0.0232373608
C   C31       1.0  0.82470  0.22250  0.07280  1.0000 0.0232373608
C   C32       1.0  0.17530  0.27750  0.57280  1.0000 0.0232373608
C   C33       1.0  0.30610  0.17750  0.18110  1.0000 0.0317795949
C   C34       1.0  0.69390  0.32250  0.68110  1.0000 0.0317795949
C   C35       1.0  0.19390  0.67750  0.81890  1.0000 0.0317795949
C   C36       1.0  0.80610  0.82250  0.31890  1.0000 0.0317795949
C   C37       1.0  0.69390  0.82250  0.81890  1.0000 0.0317795949
C   C38       1.0  0.30610  0.67750  0.31890  1.0000 0.0317795949
C   C39       1.0  0.80610  0.32250  0.18110  1.0000 0.0317795949
C   C40       1.0  0.19390  0.17750  0.68110  1.0000 0.0317795949
C   C41       1.0  0.28970  0.17350  0.21850  1.0000 -0.1783488226
C   C42       1.0  0.71030  0.32650  0.71850  1.0000 -0.1783488226
C   C43       1.0  0.21030  0.67350  0.78150  1.0000 -0.1783488226
C   C44       1.0  0.78970  0.82650  0.28150  1.0000 -0.1783488226
C   C45       1.0  0.71030  0.82650  0.78150  1.0000 -0.1783488226
C   C46       1.0  0.28970  0.67350  0.28150  1.0000 -0.1783488226
C   C47       1.0  0.78970  0.32650  0.21850  1.0000 -0.1783488226
C   C48       1.0  0.21030  0.17350  0.71850  1.0000 -0.1783488226
C   C49       1.0  0.32290  0.13930  0.15950  1.0000 -0.1954026426
C   C50       1.0  0.67710  0.36070  0.65950  1.0000 -0.1954026426
C   C51       1.0  0.17710  0.63930  0.84050  1.0000 -0.1954026426
C   C52       1.0  0.82290  0.86070  0.34050  1.0000 -0.1954026426
C   C53       1.0  0.67710  0.86070  0.84050  1.0000 -0.1954026426
C   C54       1.0  0.32290  0.63930  0.34050  1.0000 -0.1954026426
C   C55       1.0  0.82290  0.36070  0.15950  1.0000 -0.1954026426
C   C56       1.0  0.17710  0.13930  0.65950  1.0000 -0.1954026426
C   C57       1.0  0.32880  0.09800  0.17780  1.0000 0.0687607491
C   C58       1.0  0.67120  0.40200  0.67780  1.0000 0.0687607491
C   C59       1.0  0.17120  0.59800  0.82220  1.0000 0.0687607491
C   C60       1.0  0.82880  0.90200  0.32220  1.0000 0.0687607491
C   C61       1.0  0.67120  0.90200  0.82220  1.0000 0.0687607491
C   C62       1.0  0.32880  0.59800  0.32220  1.0000 0.0687607491
C   C63       1.0  0.82880  0.40200  0.17780  1.0000 0.0687607491
C   C64       1.0  0.17120  0.09800  0.67780  1.0000 0.0687607491
C   C65       1.0  0.07260  0.69740  0.38840  1.0000 0.3501719853
C   C66       1.0  0.92740  0.80260  0.88840  1.0000 0.3501719853
C   C67       1.0  0.42740  0.19740  0.61160  1.0000 0.3501719853
C   C68       1.0  0.57260  0.30260  0.11160  1.0000 0.3501719853
C   C69       1.0  0.92740  0.30260  0.61160  1.0000 0.3501719853
C   C70       1.0  0.07260  0.19740  0.11160  1.0000 0.3501719853
C   C71       1.0  0.57260  0.80260  0.38840  1.0000 0.3501719853
C   C72       1.0  0.42740  0.69740  0.88840  1.0000 0.3501719853
C   C73       1.0  0.05510  0.72960  0.33250  1.0000 0.3501719853
C   C74       1.0  0.94490  0.77040  0.83250  1.0000 0.3501719853
C   C75       1.0  0.44490  0.22960  0.66750  1.0000 0.3501719853
C   C76       1.0  0.55510  0.27040  0.16750  1.0000 0.3501719853
C   C77       1.0  0.94490  0.27040  0.66750  1.0000 0.3501719853
C   C78       1.0  0.05510  0.22960  0.16750  1.0000 0.3501719853
C   C79       1.0  0.55510  0.77040  0.33250  1.0000 0.3501719853
C   C80       1.0  0.44490  0.72960  0.83250  1.0000 0.3501719853
C   C81       1.0  0.05800  0.65420  0.33850  1.0000 0.3413004039
C   C82       1.0  0.94200  0.84580  0.83850  1.0000 0.3413004039
C   C83       1.0  0.44200  0.15420  0.66150  1.0000 0.3413004039
C   C84       1.0  0.55800  0.34580  0.16150  1.0000 0.3413004039
C   C85       1.0  0.94200  0.34580  0.66150  1.0000 0.3413004039
C   C86       1.0  0.05800  0.15420  0.16150  1.0000 0.3413004039
C   C87       1.0  0.55800  0.84580  0.33850  1.0000 0.3413004039
C   C88       1.0  0.44200  0.65420  0.83850  1.0000 0.3413004039
C   C89       1.0  0.05910  0.60750  0.32030  1.0000 0.0415284114
C   C90       1.0  0.94090  0.89250  0.82030  1.0000 0.0415284114
C   C91       1.0  0.44090  0.10750  0.67970  1.0000 0.0415284114
C   C92       1.0  0.55910  0.39250  0.17970  1.0000 0.0415284114
C   C93       1.0  0.94090  0.39250  0.67970  1.0000 0.0415284114
C   C94       1.0  0.05910  0.10750  0.17970  1.0000 0.0415284114
C   C95       1.0  0.55910  0.89250  0.32030  1.0000 0.0415284114
C   C96       1.0  0.44090  0.60750  0.82030  1.0000 0.0415284114
C   C97       1.0  0.07240  0.57010  0.34200  1.0000 -0.1692773605
C   C98       1.0  0.92760  0.92990  0.84200  1.0000 -0.1692773605
C   C99       1.0  0.42760  0.07010  0.65800  1.0000 -0.1692773605
C   C100      1.0  0.57240  0.42990  0.15800  1.0000 -0.1692773605
C   C101      1.0  0.92760  0.42990  0.65800  1.0000 -0.1692773605
C   C102      1.0  0.07240  0.07010  0.15800  1.0000 -0.1692773605
C   C103      1.0  0.57240  0.92990  0.34200  1.0000 -0.1692773605
C   C104      1.0  0.42760  0.57010  0.84200  1.0000 -0.1692773605
C   C105      1.0  0.09370  0.52890  0.32320  1.0000 0.0802257419
C   C106      1.0  0.90630  0.97110  0.82320  1.0000 0.0802257419
C   C107      1.0  0.40630  0.02890  0.67680  1.0000 0.0802257419
C   C108      1.0  0.59370  0.47110  0.17680  1.0000 0.0802257419
C   C109      1.0  0.90630  0.47110  0.67680  1.0000 0.0802257419
C   C110      1.0  0.09370  0.02890  0.17680  1.0000 0.0802257419
C   C111      1.0  0.59370  0.97110  0.32320  1.0000 0.0802257419
C   C112      1.0  0.40630  0.52890  0.82320  1.0000 0.0802257419
C   C113      1.0  0.08670  0.70230  0.42930  1.0000 0.0415284114
C   C114      1.0  0.91330  0.79770  0.92930  1.0000 0.0415284114
C   C115      1.0  0.41330  0.20230  0.57070  1.0000 0.0415284114
C   C116      1.0  0.58670  0.29770  0.07070  1.0000 0.0415284114
C   C117      1.0  0.91330  0.29770  0.57070  1.0000 0.0415284114
C   C118      1.0  0.08670  0.20230  0.07070  1.0000 0.0415284114
C   C119      1.0  0.58670  0.79770  0.42930  1.0000 0.0415284114
C   C120      1.0  0.41330  0.70230  0.92930  1.0000 0.0415284114
C   C121      1.0  0.09340  0.74420  0.44620  1.0000 -0.1783488226
C   C122      1.0  0.90660  0.75580  0.94620  1.0000 -0.1783488226
C   C123      1.0  0.40660  0.24420  0.55380  1.0000 -0.1783488226
C   C124      1.0  0.59340  0.25580  0.05380  1.0000 -0.1783488226
C   C125      1.0  0.90660  0.25580  0.55380  1.0000 -0.1783488226
C   C126      1.0  0.09340  0.24420  0.05380  1.0000 -0.1783488226
C   C127      1.0  0.59340  0.75580  0.44620  1.0000 -0.1783488226
C   C128      1.0  0.40660  0.74420  0.94620  1.0000 -0.1783488226
C   C129      1.0  0.04880  0.77130  0.30820  1.0000 0.0415284114
C   C130      1.0  0.95120  0.72870  0.80820  1.0000 0.0415284114
C   C131      1.0  0.45120  0.27130  0.69180  1.0000 0.0415284114
C   C132      1.0  0.54880  0.22870  0.19180  1.0000 0.0415284114
C   C133      1.0  0.95120  0.22870  0.69180  1.0000 0.0415284114
C   C134      1.0  0.04880  0.27130  0.19180  1.0000 0.0415284114
C   C135      1.0  0.54880  0.72870  0.30820  1.0000 0.0415284114
C   C136      1.0  0.45120  0.77130  0.80820  1.0000 0.0415284114
C   C137      1.0  0.05570  0.81490  0.32350  1.0000 -0.1783488226
C   C138      1.0  0.94430  0.68510  0.82350  1.0000 -0.1783488226
C   C139      1.0  0.44430  0.31490  0.67650  1.0000 -0.1783488226
C   C140      1.0  0.55570  0.18510  0.17650  1.0000 -0.1783488226
C   C141      1.0  0.94430  0.18510  0.67650  1.0000 -0.1783488226
C   C142      1.0  0.05570  0.31490  0.17650  1.0000 -0.1783488226
C   C143      1.0  0.55570  0.68510  0.32350  1.0000 -0.1783488226
C   C144      1.0  0.44430  0.81490  0.82350  1.0000 -0.1783488226
C   C145      1.0  0.05190  0.85240  0.30130  1.0000 0.0525853257
C   C146      1.0  0.94810  0.64760  0.80130  1.0000 0.0525853257
C   C147      1.0  0.44810  0.35240  0.69870  1.0000 0.0525853257
C   C148      1.0  0.55190  0.14760  0.19870  1.0000 0.0525853257
C   C149      1.0  0.94810  0.14760  0.69870  1.0000 0.0525853257
C   C150      1.0  0.05190  0.35240  0.19870  1.0000 0.0525853257
C   C151      1.0  0.55190  0.64760  0.30130  1.0000 0.0525853257
C   C152      1.0  0.44810  0.85240  0.80130  1.0000 0.0525853257
C   C153      1.0  0.07530  0.56180  0.26640  1.0000 0.0802257419
C   C154      1.0  0.92470  0.93820  0.76640  1.0000 0.0802257419
C   C155      1.0  0.42470  0.06180  0.73360  1.0000 0.0802257419
C   C156      1.0  0.57530  0.43820  0.23360  1.0000 0.0802257419
C   C157      1.0  0.92470  0.43820  0.73360  1.0000 0.0802257419
C   C158      1.0  0.07530  0.06180  0.23360  1.0000 0.0802257419
C   C159      1.0  0.57530  0.93820  0.26640  1.0000 0.0802257419
C   C160      1.0  0.42470  0.56180  0.76640  1.0000 0.0802257419
C   C161      1.0  0.29150  0.13070  0.23340  1.0000 0.0415284114
C   C162      1.0  0.70850  0.36930  0.73340  1.0000 0.0415284114
C   C163      1.0  0.20850  0.63070  0.76660  1.0000 0.0415284114
C   C164      1.0  0.79150  0.86930  0.26660  1.0000 0.0415284114
C   C165      1.0  0.70850  0.86930  0.76660  1.0000 0.0415284114
C   C166      1.0  0.29150  0.63070  0.26660  1.0000 0.0415284114
C   C167      1.0  0.79150  0.36930  0.23340  1.0000 0.0415284114
C   C168      1.0  0.20850  0.13070  0.73340  1.0000 0.0415284114
C   C169      1.0  0.30350  0.34070  0.19450  1.0000 0.0415284114
C   C170      1.0  0.69650  0.15930  0.69450  1.0000 0.0415284114
C   C171      1.0  0.19650  0.84070  0.80550  1.0000 0.0415284114
C   C172      1.0  0.80350  0.65930  0.30550  1.0000 0.0415284114
C   C173      1.0  0.69650  0.65930  0.80550  1.0000 0.0415284114
C   C174      1.0  0.30350  0.84070  0.30550  1.0000 0.0415284114
C   C175      1.0  0.80350  0.15930  0.19450  1.0000 0.0415284114
C   C176      1.0  0.19650  0.34070  0.69450  1.0000 0.0415284114
C   C177      1.0  0.30380  0.38420  0.17840  1.0000 -0.1783488226
C   C178      1.0  0.69620  0.11580  0.67840  1.0000 -0.1783488226
C   C179      1.0  0.19620  0.88420  0.82160  1.0000 -0.1783488226
C   C180      1.0  0.80380  0.61580  0.32160  1.0000 -0.1783488226
C   C181      1.0  0.69620  0.61580  0.82160  1.0000 -0.1783488226
C   C182      1.0  0.30380  0.88420  0.32160  1.0000 -0.1783488226
C   C183      1.0  0.80380  0.11580  0.17840  1.0000 -0.1783488226
C   C184      1.0  0.19620  0.38420  0.67840  1.0000 -0.1783488226
C   C185      1.0  0.05410  0.60490  0.28280  1.0000 -0.1783488226
C   C186      1.0  0.94590  0.89510  0.78280  1.0000 -0.1783488226
C   C187      1.0  0.44590  0.10490  0.71720  1.0000 -0.1783488226
C   C188      1.0  0.55410  0.39510  0.21720  1.0000 -0.1783488226
C   C189      1.0  0.94590  0.39510  0.71720  1.0000 -0.1783488226
C   C190      1.0  0.05410  0.10490  0.21720  1.0000 -0.1783488226
C   C191      1.0  0.55410  0.89510  0.28280  1.0000 -0.1783488226
C   C192      1.0  0.44590  0.60490  0.78280  1.0000 -0.1783488226
C   C193      1.0  0.28220  0.42040  0.20010  1.0000 0.0687607491
C   C194      1.0  0.71780  0.07960  0.70010  1.0000 0.0687607491
C   C195      1.0  0.21780  0.92040  0.79990  1.0000 0.0687607491
C   C196      1.0  0.78220  0.57960  0.29990  1.0000 0.0687607491
C   C197      1.0  0.71780  0.57960  0.79990  1.0000 0.0687607491
C   C198      1.0  0.28220  0.92040  0.29990  1.0000 0.0687607491
C   C199      1.0  0.78220  0.07960  0.20010  1.0000 0.0687607491
C   C200      1.0  0.21780  0.42040  0.70010  1.0000 0.0687607491
C   C201      1.0  0.03810  0.76720  0.27040  1.0000 -0.1783488226
C   C202      1.0  0.96190  0.73280  0.77040  1.0000 -0.1783488226
C   C203      1.0  0.46190  0.26720  0.72960  1.0000 -0.1783488226
C   C204      1.0  0.53810  0.23280  0.22960  1.0000 -0.1783488226
C   C205      1.0  0.96190  0.23280  0.72960  1.0000 -0.1783488226
C   C206      1.0  0.03810  0.26720  0.22960  1.0000 -0.1783488226
C   C207      1.0  0.53810  0.73280  0.27040  1.0000 -0.1783488226
C   C208      1.0  0.46190  0.76720  0.77040  1.0000 -0.1783488226
C   C209      1.0  0.10760  0.74600  0.48370  1.0000 0.0525853257
C   C210      1.0  0.89240  0.75400  0.98370  1.0000 0.0556666242
C   C211      1.0  0.39240  0.24600  0.51630  1.0000 0.0525853257
C   C212      1.0  0.60760  0.25400  0.01630  1.0000 0.0525853257
C   C213      1.0  0.89240  0.25400  0.51630  1.0000 0.0525853257
C   C214      1.0  0.10760  0.24600  0.01630  1.0000 0.0525853257
C   C215      1.0  0.60760  0.75400  0.48370  1.0000 0.0525853257
C   C216      1.0  0.39240  0.74600  0.98370  1.0000 0.0525853257
C   C217      1.0  0.29110  0.33680  0.23200  1.0000 -0.1783488226
C   C218      1.0  0.70890  0.16320  0.73200  1.0000 -0.1783488226
C   C219      1.0  0.20890  0.83680  0.76800  1.0000 -0.1783488226
C   C220      1.0  0.79110  0.66320  0.26800  1.0000 -0.1783488226
C   C221      1.0  0.70890  0.66320  0.76800  1.0000 -0.1783488226
C   C222      1.0  0.29110  0.83680  0.26800  1.0000 -0.1783488226
C   C223      1.0  0.79110  0.16320  0.23200  1.0000 -0.1783488226
C   C224      1.0  0.20890  0.33680  0.73200  1.0000 -0.1783488226
C   C225      1.0  0.26910  0.37520  0.25230  1.0000 0.0687607491
C   C226      1.0  0.73090  0.12480  0.75230  1.0000 0.0687607491
C   C227      1.0  0.23090  0.87520  0.74770  1.0000 0.0687607491
C   C228      1.0  0.76910  0.62480  0.24770  1.0000 0.0687607491
C   C229      1.0  0.73090  0.62480  0.74770  1.0000 0.0687607491
C   C230      1.0  0.26910  0.87520  0.24770  1.0000 0.0687607491
C   C231      1.0  0.76910  0.12480  0.25230  1.0000 0.0687607491
C   C232      1.0  0.23090  0.37520  0.75230  1.0000 0.0687607491
C   C233      1.0  0.35360  0.24300  0.04980  1.0000 -0.1903914602
C   C234      1.0  0.64640  0.25700  0.54980  1.0000 -0.1903914602
C   C235      1.0  0.14640  0.74300  0.95020  1.0000 -0.1903914602
C   C236      1.0  0.85360  0.75700  0.45020  1.0000 -0.1903914602
C   C237      1.0  0.64640  0.75700  0.95020  1.0000 -0.1903914602
C   C238      1.0  0.35360  0.74300  0.45020  1.0000 -0.1903914602
C   C239      1.0  0.85360  0.25700  0.04980  1.0000 -0.1903914602
C   C240      1.0  0.14640  0.24300  0.54980  1.0000 -0.1903914602
C   C241      1.0  0.35700  0.25040  0.01280  1.0000 0.0556666242
C   C242      1.0  0.64300  0.24960  0.51280  1.0000 0.0556666242
C   C243      1.0  0.14300  0.75040  0.98720  1.0000 0.0556666242
C   C244      1.0  0.85700  0.74960  0.48720  1.0000 0.0556666242
C   C245      1.0  0.64300  0.74960  0.98720  1.0000 0.0556666242
C   C246      1.0  0.35700  0.75040  0.48720  1.0000 0.0556666242
C   C247      1.0  0.85700  0.24960  0.01280  1.0000 0.0556666242
C   C248      1.0  0.14300  0.25040  0.51280  1.0000 0.0556666242
C   C249      1.0  0.30330  0.31910  0.05720  1.0000 -0.1903914602
C   C250      1.0  0.69670  0.18090  0.55720  1.0000 -0.1903914602
C   C251      1.0  0.19670  0.81910  0.94280  1.0000 -0.1903914602
C   C252      1.0  0.80330  0.68090  0.44280  1.0000 -0.1903914602
C   C253      1.0  0.69670  0.68090  0.94280  1.0000 -0.1903914602
C   C254      1.0  0.30330  0.81910  0.44280  1.0000 -0.1903914602
C   C255      1.0  0.80330  0.18090  0.05720  1.0000 -0.1903914602
C   C256      1.0  0.19670  0.31910  0.55720  1.0000 -0.1903914602
C   C257      1.0  0.30770  0.32250  0.01990  1.0000 0.0317795949
C   C258      1.0  0.69230  0.17750  0.51990  1.0000 0.0317795949
C   C259      1.0  0.19230  0.82250  0.98010  1.0000 0.0317795949
C   C260      1.0  0.80770  0.67750  0.48010  1.0000 0.0317795949
C   C261      1.0  0.69230  0.67750  0.98010  1.0000 0.0317795949
C   C262      1.0  0.30770  0.82250  0.48010  1.0000 0.0317795949
C   C263      1.0  0.80770  0.17750  0.01990  1.0000 0.0317795949
C   C264      1.0  0.19230  0.32250  0.51990  1.0000 0.0317795949
C   C265      1.0  0.09210  0.66420  0.45110  1.0000 -0.1783488226
C   C266      1.0  0.90790  0.83580  0.95110  1.0000 -0.1783488226
C   C267      1.0  0.40790  0.16420  0.54890  1.0000 -0.1783488226
C   C268      1.0  0.59210  0.33580  0.04890  1.0000 -0.1783488226
C   C269      1.0  0.90790  0.33580  0.54890  1.0000 -0.1783488226
C   C270      1.0  0.09210  0.16420  0.04890  1.0000 -0.1783488226
C   C271      1.0  0.59210  0.83580  0.45110  1.0000 -0.1783488226
C   C272      1.0  0.40790  0.66420  0.95110  1.0000 -0.1783488226
C   C273      1.0  0.10660  0.66980  0.48930  1.0000 0.0802257419
C   C274      1.0  0.89340  0.83020  0.98930  1.0000 0.0802257419
C   C275      1.0  0.39340  0.16980  0.51070  1.0000 0.0802257419
C   C276      1.0  0.60660  0.33020  0.01070  1.0000 0.0802257419
C   C277      1.0  0.89340  0.33020  0.51070  1.0000 0.0802257419
C   C278      1.0  0.10660  0.16980  0.01070  1.0000 0.0802257419
C   C279      1.0  0.60660  0.83020  0.48930  1.0000 0.0802257419
C   C280      1.0  0.39340  0.66980  0.98930  1.0000 0.0802257419
C   C281      1.0  0.03500  0.80560  0.24960  1.0000 0.0415284114
C   C282      1.0  0.96500  0.69440  0.74960  1.0000 0.0415284114
C   C283      1.0  0.46500  0.30560  0.75040  1.0000 0.0415284114
C   C284      1.0  0.53500  0.19440  0.25040  1.0000 0.0415284114
C   C285      1.0  0.96500  0.19440  0.75040  1.0000 0.0415284114
C   C286      1.0  0.03500  0.30560  0.25040  1.0000 0.0415284114
C   C287      1.0  0.53500  0.69440  0.24960  1.0000 0.0415284114
C   C288      1.0  0.46500  0.80560  0.74960  1.0000 0.0415284114
N   N1        1.0  0.09740  0.52480  0.28600  1.0000 -0.2637881393
N   N2        1.0  0.90260  0.97520  0.78600  1.0000 -0.2637881393
N   N3        1.0  0.40260  0.02480  0.71400  1.0000 -0.2637881393
N   N4        1.0  0.59740  0.47520  0.21400  1.0000 -0.2637881393
N   N5        1.0  0.90260  0.47520  0.71400  1.0000 -0.2637881393
N   N6        1.0  0.09740  0.02480  0.21400  1.0000 -0.2637881393
N   N7        1.0  0.59740  0.97520  0.28600  1.0000 -0.2637881393
N   N8        1.0  0.40260  0.52480  0.78600  1.0000 -0.2637881393
N   N9        1.0  0.11040  0.70940  0.50610  1.0000 -0.2768177705
N   N10       1.0  0.88960  0.79060  0.00610  1.0000 -0.2768177705
N   N11       1.0  0.38960  0.20940  0.49390  1.0000 -0.2768177705
N   N12       1.0  0.61040  0.29060  0.99390  1.0000 -0.2768177705
N   N13       1.0  0.88960  0.29060  0.49390  1.0000 -0.2768177705
N   N14       1.0  0.11040  0.20940  0.99390  1.0000 -0.2768177705
N   N15       1.0  0.61040  0.79060  0.50610  1.0000 -0.2768177705
N   N16       1.0  0.38960  0.70940  0.00610  1.0000 -0.2768177705
N   N17       1.0  0.06660  0.73600  0.36850  1.0000 -0.4202643548
N   N18       1.0  0.93340  0.76400  0.86850  1.0000 -0.4202643548
N   N19       1.0  0.43340  0.23600  0.63150  1.0000 -0.4202643548
N   N20       1.0  0.56660  0.26400  0.13150  1.0000 -0.4202643548
N   N21       1.0  0.93340  0.26400  0.63150  1.0000 -0.4202643548
N   N22       1.0  0.06660  0.23600  0.13150  1.0000 -0.4202643548
N   N23       1.0  0.56660  0.76400  0.36850  1.0000 -0.4202643548
N   N24       1.0  0.43340  0.73600  0.86850  1.0000 -0.4202643548
N   N25       1.0  0.06650  0.65590  0.37510  1.0000 -0.4023940655
N   N26       1.0  0.93350  0.84410  0.87510  1.0000 -0.4023940655
N   N27       1.0  0.43350  0.15590  0.62490  1.0000 -0.4023940655
N   N28       1.0  0.56650  0.34410  0.12490  1.0000 -0.4023940655
N   N29       1.0  0.93350  0.34410  0.62490  1.0000 -0.4023940655
N   N30       1.0  0.06650  0.15590  0.12490  1.0000 -0.4023940655
N   N31       1.0  0.56650  0.84410  0.37510  1.0000 -0.4023940655
N   N32       1.0  0.43350  0.65590  0.87510  1.0000 -0.4023940655
N   N33       1.0  0.04830  0.69000  0.31580  1.0000 -0.4202643548
N   N34       1.0  0.95170  0.81000  0.81580  1.0000 -0.4202643548
N   N35       1.0  0.45170  0.19000  0.68420  1.0000 -0.4202643548
N   N36       1.0  0.54830  0.31000  0.18420  1.0000 -0.4202643548
N   N37       1.0  0.95170  0.31000  0.68420  1.0000 -0.4202643548
N   N38       1.0  0.04830  0.19000  0.18420  1.0000 -0.4202643548
N   N39       1.0  0.54830  0.81000  0.31580  1.0000 -0.4202643548
N   N40       1.0  0.45170  0.69000  0.81580  1.0000 -0.4202643548
N   N41       1.0  0.31850  0.30670  0.13470  1.0000 -0.4023940655
N   N42       1.0  0.68150  0.19330  0.63470  1.0000 -0.4023940655
N   N43       1.0  0.18150  0.80670  0.86530  1.0000 -0.4023940655
N   N44       1.0  0.81850  0.69330  0.36530  1.0000 -0.4023940655
N   N45       1.0  0.68150  0.69330  0.86530  1.0000 -0.4023940655
N   N46       1.0  0.31850  0.80670  0.36530  1.0000 -0.4023940655
N   N47       1.0  0.81850  0.19330  0.13470  1.0000 -0.4023940655
N   N48       1.0  0.18150  0.30670  0.63470  1.0000 -0.4023940655
N   N49       1.0  0.30590  0.25890  0.18650  1.0000 -0.4202643548
N   N50       1.0  0.69410  0.24110  0.68650  1.0000 -0.4202643548
N   N51       1.0  0.19410  0.75890  0.81350  1.0000 -0.4202643548
N   N52       1.0  0.80590  0.74110  0.31350  1.0000 -0.4202643548
N   N53       1.0  0.69410  0.74110  0.81350  1.0000 -0.4202643548
N   N54       1.0  0.30590  0.75890  0.31350  1.0000 -0.4202643548
N   N55       1.0  0.80590  0.24110  0.18650  1.0000 -0.4202643548
N   N56       1.0  0.19410  0.25890  0.68650  1.0000 -0.4202643548
N   N57       1.0  0.31500  0.22740  0.12650  1.0000 -0.4202643548
N   N58       1.0  0.68500  0.27260  0.62650  1.0000 -0.4202643548
N   N59       1.0  0.18500  0.72740  0.87350  1.0000 -0.4202643548
N   N60       1.0  0.81500  0.77260  0.37350  1.0000 -0.4202643548
N   N61       1.0  0.68500  0.77260  0.87350  1.0000 -0.4202643548
N   N62       1.0  0.31500  0.72740  0.37350  1.0000 -0.4202643548
N   N63       1.0  0.81500  0.27260  0.12650  1.0000 -0.4202643548
N   N64       1.0  0.18500  0.22740  0.62650  1.0000 -0.4202643548
N   N65       1.0  0.31090  0.09220  0.21350  1.0000 -0.2377275134
N   N66       1.0  0.68910  0.40780  0.71350  1.0000 -0.2377275134
N   N67       1.0  0.18910  0.59220  0.78650  1.0000 -0.2377275134
N   N68       1.0  0.81090  0.90780  0.28650  1.0000 -0.2377275134
N   N69       1.0  0.68910  0.90780  0.78650  1.0000 -0.2377275134
N   N70       1.0  0.31090  0.59220  0.28650  1.0000 -0.2377275134
N   N71       1.0  0.81090  0.40780  0.21350  1.0000 -0.2377275134
N   N72       1.0  0.18910  0.09220  0.71350  1.0000 -0.2377275134
N   N73       1.0  0.04290  0.84850  0.26350  1.0000 -0.252703728
N   N74       1.0  0.95710  0.65150  0.76350  1.0000 -0.252703728
N   N75       1.0  0.45710  0.34850  0.73650  1.0000 -0.252703728
N   N76       1.0  0.54290  0.15150  0.23650  1.0000 -0.252703728
N   N77       1.0  0.95710  0.15150  0.73650  1.0000 -0.252703728
N   N78       1.0  0.04290  0.34850  0.23650  1.0000 -0.252703728
N   N79       1.0  0.54290  0.65150  0.26350  1.0000 -0.252703728
N   N80       1.0  0.45710  0.84850  0.76350  1.0000 -0.252703728
N   N81       1.0  0.26070  0.41710  0.23630  1.0000 -0.252703728
N   N82       1.0  0.73930  0.08290  0.73630  1.0000 -0.252703728
N   N83       1.0  0.23930  0.91710  0.76370  1.0000 -0.252703728
N   N84       1.0  0.76070  0.58290  0.26370  1.0000 -0.252703728
N   N85       1.0  0.73930  0.58290  0.76370  1.0000 -0.252703728
N   N86       1.0  0.26070  0.91710  0.26370  1.0000 -0.252703728
N   N87       1.0  0.76070  0.08290  0.23630  1.0000 -0.252703728
N   N88       1.0  0.23930  0.41710  0.73630  1.0000 -0.252703728
N   N89       1.0  0.33460  0.28930  0.99700  1.0000 -0.2377275134
N   N90       1.0  0.66540  0.21070  0.49700  1.0000 -0.2377275134
N   N91       1.0  0.16540  0.78930  0.00300  1.0000 -0.2377275134
N   N92       1.0  0.83460  0.71070  0.50300  1.0000 -0.2377275134
N   N93       1.0  0.66540  0.71070  0.00300  1.0000 -0.2377275134
N   N94       1.0  0.33460  0.78930  0.50300  1.0000 -0.2377275134
N   N95       1.0  0.83460  0.21070  0.99700  1.0000 -0.2377275134
N   N96       1.0  0.16540  0.28930  0.49700  1.0000 -0.2377275134
O   O1        1.0  0.56920  0.49460  0.40530  1.0000 -0.9707039884
O   O2        1.0  0.43080  0.00540  0.90530  1.0000 -0.9707039884
O   O3        1.0  0.93080  0.99460  0.59470  1.0000 -0.9750317091
O   O4        1.0  0.06920  0.50540  0.09470  1.0000 -0.9707039884
O   O5        1.0  0.43080  0.50540  0.59470  1.0000 -0.9707039884
O   O6        1.0  0.56920  0.99460  0.09470  1.0000 -0.9707039884
O   O7        1.0  0.06920  0.00540  0.40530  1.0000 -0.9707039884
O   O8        1.0  0.93080  0.49460  0.90530  1.0000 -0.9707039884
O   O9        1.0  0.54520  0.41100  0.41480  1.0000 -0.9707039884
O   O10       1.0  0.45480  0.08900  0.91480  1.0000 -0.9707039884
O   O11       1.0  0.95480  0.91100  0.58520  1.0000 -0.9707039884
O   O12       1.0  0.04520  0.58900  0.08520  1.0000 -0.9707039884
O   O13       1.0  0.45480  0.58900  0.58520  1.0000 -0.9707039884
O   O14       1.0  0.54520  0.91100  0.08520  1.0000 -0.9707039884
O   O15       1.0  0.04520  0.08900  0.41480  1.0000 -0.9707039884
O   O16       1.0  0.95480  0.41100  0.91480  1.0000 -0.9707039884
O   O17       1.0  0.51990  0.46610  0.46860  1.0000 -0.8495118002
O   O18       1.0  0.48010  0.03390  0.96860  1.0000 -0.8495118002
O   O19       1.0  0.98010  0.96610  0.53140  1.0000 -0.8495118002
O   O20       1.0  0.01990  0.53390  0.03140  1.0000 -0.8495118002
O   O21       1.0  0.48010  0.53390  0.53140  1.0000 -0.8495118002
O   O22       1.0  0.51990  0.96610  0.03140  1.0000 -0.8495118002
O   O23       1.0  0.01990  0.03390  0.46860  1.0000 -0.8495118002
O   O24       1.0  0.98010  0.46610  0.96860  1.0000 -0.8495118002
O   O25       1.0  0.39790  0.46340  0.41440  1.0000 -0.9611081173
O   O26       1.0  0.60210  0.03660  0.91440  1.0000 -0.9611081173
O   O27       1.0  0.10210  0.96340  0.58560  1.0000 -0.9707039884
O   O28       1.0  0.89790  0.53660  0.08560  1.0000 -0.9611081173
O   O29       1.0  0.60210  0.53660  0.58560  1.0000 -0.9707039884
O   O30       1.0  0.39790  0.96340  0.08560  1.0000 -0.9611081173
O   O31       1.0  0.89790  0.03660  0.41440  1.0000 -0.9611081173
O   O32       1.0  0.10210  0.46340  0.91440  1.0000 -0.9611081173
O   O33       1.0  0.72890  0.50550  0.45830  1.0000 -0.8900276701
O   O34       1.0  0.27110  0.99450  0.95830  1.0000 -0.8900276701
O   O35       1.0  0.77110  0.00550  0.54170  1.0000 -0.8900276701
O   O36       1.0  0.22890  0.49450  0.04170  1.0000 -0.8900276701
O   O37       1.0  0.27110  0.49450  0.54170  1.0000 -0.8900276701
O   O38       1.0  0.72890  0.00550  0.04170  1.0000 -0.8900276701
O   O39       1.0  0.22890  0.99450  0.45830  1.0000 -0.8900276701
O   O40       1.0  0.77110  0.50550  0.95830  1.0000 -0.8900276701
O   O41       1.0  0.68580  0.56720  0.40850  1.0000 -0.9513508397
O   O42       1.0  0.31420  0.93280  0.90850  1.0000 -0.9513508397
O   O43       1.0  0.81420  0.06720  0.59150  1.0000 -0.9513508397
O   O44       1.0  0.18580  0.43280  0.09150  1.0000 -0.9513508397
O   O45       1.0  0.31420  0.43280  0.59150  1.0000 -0.9513508397
O   O46       1.0  0.68580  0.06720  0.09150  1.0000 -0.9513508397
O   O47       1.0  0.18580  0.93280  0.40850  1.0000 -0.9513508397
O   O48       1.0  0.81420  0.56720  0.90850  1.0000 -0.9513508397
O   O49       1.0  0.70800  0.50700  0.35590  1.0000 -0.9395080599
O   O50       1.0  0.29200  0.99300  0.85590  1.0000 -0.9395080599
O   O51       1.0  0.79200  0.00700  0.64410  1.0000 -0.9395080599
O   O52       1.0  0.20800  0.49300  0.14410  1.0000 -0.9395080599
O   O53       1.0  0.29200  0.49300  0.64410  1.0000 -0.9395080599
O   O54       1.0  0.70800  0.00700  0.14410  1.0000 -0.9395080599
O   O55       1.0  0.20800  0.99300  0.35590  1.0000 -0.9395080599
O   O56       1.0  0.79200  0.50700  0.85590  1.0000 -0.9395080599
O   O57       1.0  0.75340  0.44060  0.40590  1.0000 -0.9611081173
O   O58       1.0  0.24660  0.05940  0.90590  1.0000 -0.9611081173
O   O59       1.0  0.74660  0.94060  0.59410  1.0000 -0.9707039884
O   O60       1.0  0.25340  0.55940  0.09410  1.0000 -0.9611081173
O   O61       1.0  0.24660  0.55940  0.59410  1.0000 -0.9707039884
O   O62       1.0  0.75340  0.94060  0.09410  1.0000 -0.9611081173
O   O63       1.0  0.25340  0.05940  0.40590  1.0000 -0.9611081173
O   O64       1.0  0.74660  0.44060  0.90590  1.0000 -0.9611081173
O   O65       1.0  0.40910  0.56180  0.40570  1.0000 -0.9513508397
O   O66       1.0  0.59090  0.93820  0.90570  1.0000 -0.9513508397
O   O67       1.0  0.09090  0.06180  0.59430  1.0000 -0.9513508397
O   O68       1.0  0.90910  0.43820  0.09430  1.0000 -0.9513508397
O   O69       1.0  0.59090  0.43820  0.59430  1.0000 -0.9513508397
O   O70       1.0  0.40910  0.06180  0.09430  1.0000 -0.9513508397
O   O71       1.0  0.90910  0.93820  0.40570  1.0000 -0.9513508397
O   O72       1.0  0.09090  0.56180  0.90570  1.0000 -0.9513508397
O   O73       1.0  0.69390  0.40190  0.46980  1.0000 -0.8573397601
O   O74       1.0  0.30610  0.09810  0.96980  1.0000 -0.8573397601
O   O75       1.0  0.80610  0.90190  0.53020  1.0000 -0.8573397601
O   O76       1.0  0.19390  0.59810  0.03020  1.0000 -0.8573397601
O   O77       1.0  0.30610  0.59810  0.53020  1.0000 -0.8573397601
O   O78       1.0  0.69390  0.90190  0.03020  1.0000 -0.8573397601
O   O79       1.0  0.19390  0.09810  0.46980  1.0000 -0.8573397601
O   O80       1.0  0.80610  0.40190  0.96980  1.0000 -0.8573397601
O   O81       1.0  0.82390  0.35120  0.42550  1.0000 -0.8656545932
O   O82       1.0  0.17610  0.14880  0.92550  1.0000 -0.8656545932
O   O83       1.0  0.67610  0.85120  0.57450  1.0000 -0.8656545932
O   O84       1.0  0.32390  0.64880  0.07450  1.0000 -0.8656545932
O   O85       1.0  0.17610  0.64880  0.57450  1.0000 -0.8656545932
O   O86       1.0  0.82390  0.85120  0.07450  1.0000 -0.8656545932
O   O87       1.0  0.32390  0.14880  0.42550  1.0000 -0.8656545932
O   O88       1.0  0.67610  0.35120  0.92550  1.0000 -0.8656545932
O   O89       1.0  0.67360  0.37130  0.36980  1.0000 -0.9395080599
O   O90       1.0  0.32640  0.12870  0.86980  1.0000 -0.9395080599
O   O91       1.0  0.82640  0.87130  0.63020  1.0000 -0.9395080599
O   O92       1.0  0.17360  0.62870  0.13020  1.0000 -0.9395080599
O   O93       1.0  0.32640  0.62870  0.63020  1.0000 -0.9395080599
O   O94       1.0  0.67360  0.87130  0.13020  1.0000 -0.9395080599
O   O95       1.0  0.17360  0.12870  0.36980  1.0000 -0.9395080599
O   O96       1.0  0.82640  0.37130  0.86980  1.0000 -0.9395080599
O   O97       1.0  0.46040  0.43400  0.53990  1.0000 -0.9611081173
O   O98       1.0  0.53960  0.06600  0.03990  1.0000 -0.9611081173
O   O99       1.0  0.03960  0.93400  0.46010  1.0000 -0.9611081173
O   O100      1.0  0.96040  0.56600  0.96010  1.0000 -0.9611081173
O   O101      1.0  0.53960  0.56600  0.46010  1.0000 -0.9611081173
O   O102      1.0  0.46040  0.93400  0.96010  1.0000 -0.9611081173
O   O103      1.0  0.96040  0.06600  0.53990  1.0000 -0.9611081173
O   O104      1.0  0.03960  0.43400  0.03990  1.0000 -0.9611081173
O   O105      1.0  0.31440  0.42810  0.48140  1.0000 -0.8495118002
O   O106      1.0  0.68560  0.07190  0.98140  1.0000 -0.8495118002
O   O107      1.0  0.18560  0.92810  0.51860  1.0000 -0.8495118002
O   O108      1.0  0.81440  0.57190  0.01860  1.0000 -0.8495118002
O   O109      1.0  0.68560  0.57190  0.51860  1.0000 -0.8495118002
O   O110      1.0  0.31440  0.92810  0.01860  1.0000 -0.8495118002
O   O111      1.0  0.81440  0.07190  0.48140  1.0000 -0.8495118002
O   O112      1.0  0.18560  0.42810  0.98140  1.0000 -0.8495118002
O   O113      1.0  0.49330  0.36320  0.47950  1.0000 -0.8418128955
O   O114      1.0  0.50670  0.13680  0.97950  1.0000 -0.8418128955
O   O115      1.0  0.00670  0.86320  0.52050  1.0000 -0.8418128955
O   O116      1.0  0.99330  0.63680  0.02050  1.0000 -0.8418128955
O   O117      1.0  0.50670  0.63680  0.52050  1.0000 -0.8418128955
O   O118      1.0  0.49330  0.86320  0.02050  1.0000 -0.8418128955
O   O119      1.0  0.99330  0.13680  0.47950  1.0000 -0.8418128955
O   O120      1.0  0.00670  0.36320  0.97950  1.0000 -0.8418128955
O   O121      1.0  0.21600  0.47880  0.43560  1.0000 -1.0056278759
O   O122      1.0  0.78400  0.02120  0.93560  1.0000 -1.0056278759
O   O123      1.0  0.28400  0.97880  0.56440  1.0000 -1.0056278759
O   O124      1.0  0.71600  0.52120  0.06440  1.0000 -1.0056278759
O   O125      1.0  0.78400  0.52120  0.56440  1.0000 -1.0056278759
O   O126      1.0  0.21600  0.97880  0.06440  1.0000 -1.0056278759
O   O127      1.0  0.71600  0.02120  0.43560  1.0000 -1.0056278759
O   O128      1.0  0.28400  0.47880  0.93560  1.0000 -1.0056278759
O   O129      1.0  0.24980  0.42070  0.38190  1.0000 -0.9395080599
O   O130      1.0  0.75020  0.07930  0.88190  1.0000 -0.9395080599
O   O131      1.0  0.25020  0.92070  0.61810  1.0000 -0.9395080599
O   O132      1.0  0.74980  0.57930  0.11810  1.0000 -0.9395080599
O   O133      1.0  0.75020  0.57930  0.61810  1.0000 -0.9395080599
O   O134      1.0  0.24980  0.92070  0.11810  1.0000 -0.9395080599
O   O135      1.0  0.74980  0.07930  0.38190  1.0000 -0.9395080599
O   O136      1.0  0.25020  0.42070  0.88190  1.0000 -0.9395080599
O   O137      1.0  0.35230  0.36720  0.42650  1.0000 -0.9395080599
O   O138      1.0  0.64770  0.13280  0.92650  1.0000 -0.9395080599
O   O139      1.0  0.14770  0.86720  0.57350  1.0000 -0.9395080599
O   O140      1.0  0.85230  0.63280  0.07350  1.0000 -0.9395080599
O   O141      1.0  0.64770  0.63280  0.57350  1.0000 -0.9395080599
O   O142      1.0  0.35230  0.86720  0.07350  1.0000 -0.9395080599
O   O143      1.0  0.85230  0.13280  0.42650  1.0000 -0.9395080599
O   O144      1.0  0.14770  0.36720  0.92650  1.0000 -0.9395080599
O   O145      1.0  0.34990  0.53010  0.47080  1.0000 -0.9611081173
O   O146      1.0  0.65010  0.96990  0.97080  1.0000 -0.9611081173
O   O147      1.0  0.15010  0.03010  0.52920  1.0000 -0.9611081173
O   O148      1.0  0.84990  0.46990  0.02920  1.0000 -0.9611081173
O   O149      1.0  0.65010  0.46990  0.52920  1.0000 -0.9611081173
O   O150      1.0  0.34990  0.03010  0.02920  1.0000 -0.9611081173
O   O151      1.0  0.84990  0.96990  0.47080  1.0000 -0.9611081173
O   O152      1.0  0.15010  0.53010  0.97080  1.0000 -0.9611081173
O   O153      1.0  0.27560  0.50970  0.37300  1.0000 -0.9119999537
O   O154      1.0  0.72440  0.99030  0.87300  1.0000 -0.9119999537
O   O155      1.0  0.22440  0.00970  0.62700  1.0000 -0.9119999537
O   O156      1.0  0.77560  0.49030  0.12700  1.0000 -0.9119999537
O   O157      1.0  0.72440  0.49030  0.62700  1.0000 -0.9119999537
O   O158      1.0  0.27560  0.00970  0.12700  1.0000 -0.9119999537
O   O159      1.0  0.77560  0.99030  0.37300  1.0000 -0.9119999537
O   O160      1.0  0.22440  0.50970  0.87300  1.0000 -0.9119999537
O   O161      1.0  0.41630  0.40710  0.34500  1.0000 -0.9513508397
O   O162      1.0  0.58370  0.09290  0.84500  1.0000 -0.9513508397
O   O163      1.0  0.08370  0.90710  0.65500  1.0000 -0.9513508397
O   O164      1.0  0.91630  0.59290  0.15500  1.0000 -0.9513508397
O   O165      1.0  0.58370  0.59290  0.65500  1.0000 -0.9513508397
O   O166      1.0  0.41630  0.90710  0.15500  1.0000 -0.9513508397
O   O167      1.0  0.91630  0.09290  0.34500  1.0000 -0.9513508397
O   O168      1.0  0.08370  0.40710  0.84500  1.0000 -0.9513508397
O   O169      1.0  0.59240  0.44050  0.33510  1.0000 -0.9513508397
O   O170      1.0  0.40760  0.05950  0.83510  1.0000 -0.9513508397
O   O171      1.0  0.90760  0.94050  0.66490  1.0000 -0.9513508397
O   O172      1.0  0.09240  0.55950  0.16490  1.0000 -0.9513508397
O   O173      1.0  0.40760  0.55950  0.66490  1.0000 -0.9513508397
O   O174      1.0  0.59240  0.94050  0.16490  1.0000 -0.9513508397
O   O175      1.0  0.09240  0.05950  0.33510  1.0000 -0.9513508397
O   O176      1.0  0.90760  0.44050  0.83510  1.0000 -0.9513508397
O   O177      1.0  0.49150  0.33640  0.37920  1.0000 -0.9395080599
O   O178      1.0  0.50850  0.16360  0.87920  1.0000 -0.9395080599
O   O179      1.0  0.00850  0.83640  0.62080  1.0000 -0.9395080599
O   O180      1.0  0.99150  0.66360  0.12080  1.0000 -0.9395080599
O   O181      1.0  0.50850  0.66360  0.62080  1.0000 -0.9395080599
O   O182      1.0  0.49150  0.83640  0.12080  1.0000 -0.9395080599
O   O183      1.0  0.99150  0.16360  0.37920  1.0000 -0.9395080599
O   O184      1.0  0.00850  0.33640  0.87920  1.0000 -0.9395080599
O   O185      1.0  0.25500  0.45580  0.31050  1.0000 -0.8072352874
O   O186      1.0  0.74500  0.04420  0.81050  1.0000 -0.8072352874
O   O187      1.0  0.24500  0.95580  0.68950  1.0000 -0.8072352874
O   O188      1.0  0.75500  0.54420  0.18950  1.0000 -0.8072352874
O   O189      1.0  0.74500  0.54420  0.68950  1.0000 -0.8072352874
O   O190      1.0  0.25500  0.95580  0.18950  1.0000 -0.8072352874
O   O191      1.0  0.75500  0.04420  0.31050  1.0000 -0.8072352874
O   O192      1.0  0.24500  0.45580  0.81050  1.0000 -0.8072352874
O   O193      1.0  0.60110  0.51930  0.28980  1.0000 -0.8072352874
O   O194      1.0  0.39890  0.98070  0.78980  1.0000 -0.8072352874
O   O195      1.0  0.89890  0.01930  0.71020  1.0000 -0.8072352874
O   O196      1.0  0.10110  0.48070  0.21020  1.0000 -0.8072352874
O   O197      1.0  0.39890  0.48070  0.71020  1.0000 -0.8072352874
O   O198      1.0  0.60110  0.01930  0.21020  1.0000 -0.8072352874
O   O199      1.0  0.10110  0.98070  0.28980  1.0000 -0.8072352874
O   O200      1.0  0.89890  0.51930  0.78980  1.0000 -0.8072352874
O   O201      1.0  0.55180  0.56280  0.35750  1.0000 -0.8969717006
O   O202      1.0  0.44820  0.93720  0.85750  1.0000 -0.8969717006
O   O203      1.0  0.94820  0.06280  0.64250  1.0000 -0.8969717006
O   O204      1.0  0.05180  0.43720  0.14250  1.0000 -0.8969717006
O   O205      1.0  0.44820  0.43720  0.64250  1.0000 -0.8969717006
O   O206      1.0  0.55180  0.06280  0.14250  1.0000 -0.8969717006
O   O207      1.0  0.05180  0.93720  0.35750  1.0000 -0.8969717006
O   O208      1.0  0.94820  0.56280  0.85750  1.0000 -0.8969717006
O   O209      1.0  0.62390  0.33170  0.43130  1.0000 -0.9395080599
O   O210      1.0  0.37610  0.16830  0.93130  1.0000 -0.9344596619
O   O211      1.0  0.87610  0.83170  0.56870  1.0000 -0.9395080599
O   O212      1.0  0.12390  0.66830  0.06870  1.0000 -0.9395080599
O   O213      1.0  0.37610  0.66830  0.56870  1.0000 -0.9395080599
O   O214      1.0  0.62390  0.83170  0.06870  1.0000 -0.9395080599
O   O215      1.0  0.12390  0.16830  0.43130  1.0000 -0.9395080599
O   O216      1.0  0.87610  0.33170  0.93130  1.0000 -0.9395080599
O   O217      1.0  0.44100  0.49590  0.33710  1.0000 -0.8900276701
O   O218      1.0  0.55900  0.00410  0.83710  1.0000 -0.8900276701
O   O219      1.0  0.05900  0.99590  0.66290  1.0000 -0.8900276701
O   O220      1.0  0.94100  0.50410  0.16290  1.0000 -0.8900276701
O   O221      1.0  0.55900  0.50410  0.66290  1.0000 -0.8900276701
O   O222      1.0  0.44100  0.99590  0.16290  1.0000 -0.8900276701
O   O223      1.0  0.94100  0.00410  0.33710  1.0000 -0.8900276701
O   O224      1.0  0.05900  0.49590  0.83710  1.0000 -0.8900276701
O   O225      1.0  0.44510  0.28230  0.44210  1.0000 -0.8418128955
O   O226      1.0  0.55490  0.21770  0.94210  1.0000 -0.8418128955
O   O227      1.0  0.05490  0.78230  0.55790  1.0000 -0.8418128955
O   O228      1.0  0.94510  0.71770  0.05790  1.0000 -0.8418128955
O   O229      1.0  0.55490  0.71770  0.55790  1.0000 -0.8418128955
O   O230      1.0  0.44510  0.78230  0.05790  1.0000 -0.8418128955
O   O231      1.0  0.94510  0.21770  0.44210  1.0000 -0.8418128955
O   O232      1.0  0.05490  0.28230  0.94210  1.0000 -0.8418128955
