# DDEC6 charges by PACMAN v1.1 (https://github.com/mtap-research/PACMAN-charge/)
data_2015[La][nan]3[ASR]4
_chemical_formula_sum              "La3 H36 C63 N3 O18"
_cell_length_a       14.6409
_cell_length_b       14.6409
_cell_length_c       14.6409
_cell_angle_alpha    111.451
_cell_angle_beta     111.451
_cell_angle_gamma    111.451

_symmetry_space_group_name_H-M    "P 1"
_symmetry_Int_Tables_number       1

loop_
  _symmetry_equiv_pos_as_xyz
  'x, y, z'

loop_
  _atom_site_type_symbol
  _atom_site_label
  _atom_site_symmetry_multiplicity
  _atom_site_fract_x
  _atom_site_fract_y
  _atom_site_fract_z
  _atom_site_occupancy
  _atom_site_charge
La  La1       1.0  0.50000  0.81495  0.18505  1.0000 1.9082628813
La  La2       1.0  0.81495  0.18505  0.50000  1.0000 1.9082628813
La  La3       1.0  0.18505  0.50000  0.81495  1.0000 1.9082628813
H   H1        1.0  0.34220  0.82980  0.66420  1.0000 0.1291729437
H   H2        1.0  0.82980  0.66420  0.34220  1.0000 0.1291729437
H   H3        1.0  0.66420  0.34220  0.82980  1.0000 0.1291729437
H   H4        1.0  0.65780  0.33580  0.17020  1.0000 0.1291729437
H   H5        1.0  0.17020  0.65780  0.33580  1.0000 0.1291729437
H   H6        1.0  0.33580  0.17020  0.65780  1.0000 0.1291729437
H   H7        1.0  0.35610  0.75140  0.77640  1.0000 0.1291729437
H   H8        1.0  0.75140  0.77640  0.35610  1.0000 0.1291729437
H   H9        1.0  0.77640  0.35610  0.75140  1.0000 0.1291729437
H   H10       1.0  0.64390  0.22360  0.24860  1.0000 0.1291729437
H   H11       1.0  0.24860  0.64390  0.22360  1.0000 0.1291729437
H   H12       1.0  0.22360  0.24860  0.64390  1.0000 0.1291729437
H   H13       1.0  0.31430  0.06620  0.88470  1.0000 0.1215011618
H   H14       1.0  0.06620  0.88470  0.31430  1.0000 0.1215011618
H   H15       1.0  0.88470  0.31430  0.06620  1.0000 0.1215011618
H   H16       1.0  0.68570  0.11530  0.93380  1.0000 0.1215011618
H   H17       1.0  0.93380  0.68570  0.11530  1.0000 0.1215011618
H   H18       1.0  0.11530  0.93380  0.68570  1.0000 0.1215011618
H   H19       1.0  0.33210  0.98530  0.99640  1.0000 0.1215011618
H   H20       1.0  0.98530  0.99640  0.33210  1.0000 0.1291729437
H   H21       1.0  0.99640  0.33210  0.98530  1.0000 0.1215011618
H   H22       1.0  0.66790  0.00360  0.01470  1.0000 0.1291729437
H   H23       1.0  0.01470  0.66790  0.00360  1.0000 0.1291729437
H   H24       1.0  0.00360  0.01470  0.66790  1.0000 0.1215011618
H   H25       1.0  0.53350  0.08450  0.77650  1.0000 0.1215011618
H   H26       1.0  0.08450  0.77650  0.53350  1.0000 0.1215011618
H   H27       1.0  0.77650  0.53350  0.08450  1.0000 0.1215011618
H   H28       1.0  0.46650  0.22350  0.91550  1.0000 0.1215011618
H   H29       1.0  0.91550  0.46650  0.22350  1.0000 0.1215011618
H   H30       1.0  0.22350  0.91550  0.46650  1.0000 0.1215011618
H   H31       1.0  0.62970  0.09410  0.68270  1.0000 0.1215011618
H   H32       1.0  0.09410  0.68270  0.62970  1.0000 0.1215011618
H   H33       1.0  0.68270  0.62970  0.09410  1.0000 0.1215011618
H   H34       1.0  0.37030  0.31730  0.90590  1.0000 0.1215011618
H   H35       1.0  0.90590  0.37030  0.31730  1.0000 0.1215011618
H   H36       1.0  0.31730  0.90590  0.37030  1.0000 0.1215011618
C   C1        1.0  0.32300  0.95400  0.76020  1.0000 0.1959420072
C   C2        1.0  0.95400  0.76020  0.32300  1.0000 0.1959420072
C   C3        1.0  0.76020  0.32300  0.95400  1.0000 0.1959420072
C   C4        1.0  0.67700  0.23980  0.04600  1.0000 0.1959420072
C   C5        1.0  0.04600  0.67700  0.23980  1.0000 0.1959420072
C   C6        1.0  0.23980  0.04600  0.67700  1.0000 0.1959420072
C   C7        1.0  0.33840  0.86050  0.72940  1.0000 -0.2076222324
C   C8        1.0  0.86050  0.72940  0.33840  1.0000 -0.2076222324
C   C9        1.0  0.72940  0.33840  0.86050  1.0000 -0.2076222324
C   C10       1.0  0.66160  0.27060  0.13950  1.0000 -0.2076222324
C   C11       1.0  0.13950  0.66160  0.27060  1.0000 -0.2076222324
C   C12       1.0  0.27060  0.13950  0.66160  1.0000 -0.2076222324
C   C13       1.0  0.34780  0.81430  0.79830  1.0000 -0.0698306677
C   C14       1.0  0.81430  0.79830  0.34780  1.0000 -0.0698306677
C   C15       1.0  0.79830  0.34780  0.81430  1.0000 -0.0698306677
C   C16       1.0  0.65220  0.20170  0.18570  1.0000 -0.0698306677
C   C17       1.0  0.18570  0.65220  0.20170  1.0000 -0.0698306677
C   C18       1.0  0.20170  0.18570  0.65220  1.0000 -0.0698306677
C   C19       1.0  0.34540  0.85810  0.89490  1.0000 -0.0573698361
C   C20       1.0  0.85810  0.89490  0.34540  1.0000 -0.0573698361
C   C21       1.0  0.89490  0.34540  0.85810  1.0000 -0.0573698361
C   C22       1.0  0.65460  0.10510  0.14190  1.0000 -0.0573698361
C   C23       1.0  0.14190  0.65460  0.10510  1.0000 -0.0573698361
C   C24       1.0  0.10510  0.14190  0.65460  1.0000 -0.0573698361
C   C25       1.0  0.32190  0.00290  0.86210  1.0000 -0.2260050349
C   C26       1.0  0.00290  0.86210  0.32190  1.0000 -0.2260050349
C   C27       1.0  0.86210  0.32190  0.00290  1.0000 -0.2260050349
C   C28       1.0  0.67810  0.13790  0.99710  1.0000 -0.2260050349
C   C29       1.0  0.99710  0.67810  0.13790  1.0000 -0.2260050349
C   C30       1.0  0.13790  0.99710  0.67810  1.0000 -0.2260050349
C   C31       1.0  0.33300  0.95420  0.92910  1.0000 -0.0698306677
C   C32       1.0  0.95420  0.92910  0.33300  1.0000 -0.0698306677
C   C33       1.0  0.92910  0.33300  0.95420  1.0000 -0.0698306677
C   C34       1.0  0.66700  0.07090  0.04580  1.0000 -0.0698306677
C   C35       1.0  0.04580  0.66700  0.07090  1.0000 -0.0698306677
C   C36       1.0  0.07090  0.04580  0.66700  1.0000 -0.0698306677
C   C37       1.0  0.35880  0.81470  0.97230  1.0000 0.586979223
C   C38       1.0  0.81470  0.97230  0.35880  1.0000 0.586979223
C   C39       1.0  0.97230  0.35880  0.81470  1.0000 0.586979223
C   C40       1.0  0.64120  0.02770  0.18530  1.0000 0.586979223
C   C41       1.0  0.18530  0.64120  0.02770  1.0000 0.586979223
C   C42       1.0  0.02770  0.18530  0.64120  1.0000 0.586979223
C   C43       1.0  0.36970  0.00000  0.63030  1.0000 0.1672659742
C   C44       1.0  0.00000  0.63030  0.36970  1.0000 0.1672659742
C   C45       1.0  0.63030  0.36970  0.00000  1.0000 0.1672659742
C   C46       1.0  0.49020  0.05160  0.69490  1.0000 -0.176338968
C   C47       1.0  0.05160  0.69490  0.49020  1.0000 -0.176338968
C   C48       1.0  0.69490  0.49020  0.05160  1.0000 -0.176338968
C   C49       1.0  0.50980  0.30510  0.94840  1.0000 -0.176338968
C   C50       1.0  0.94840  0.50980  0.30510  1.0000 -0.176338968
C   C51       1.0  0.30510  0.94840  0.50980  1.0000 -0.176338968
C   C52       1.0  0.54690  0.05450  0.63800  1.0000 -0.0862399015
C   C53       1.0  0.05450  0.63800  0.54690  1.0000 -0.0862399015
C   C54       1.0  0.63800  0.54690  0.05450  1.0000 -0.0862399015
C   C55       1.0  0.45310  0.36200  0.94550  1.0000 -0.0862399015
C   C56       1.0  0.94550  0.45310  0.36200  1.0000 -0.0862399015
C   C57       1.0  0.36200  0.94550  0.45310  1.0000 -0.0862399015
C   C58       1.0  0.48350  0.00000  0.51650  1.0000 -0.034498507
C   C59       1.0  0.00000  0.51650  0.48350  1.0000 -0.034498507
C   C60       1.0  0.51650  0.48350  0.00000  1.0000 -0.034498507
C   C61       1.0  0.54570  0.00000  0.45430  1.0000 0.6335800218
C   C62       1.0  0.00000  0.45430  0.54570  1.0000 0.6335800218
C   C63       1.0  0.45430  0.54570  0.00000  1.0000 0.6335800218
N   N1        1.0  0.31000  0.00000  0.69000  1.0000 -0.1871610704
N   N2        1.0  0.00000  0.69000  0.31000  1.0000 -0.1871610704
N   N3        1.0  0.69000  0.31000  0.00000  1.0000 -0.1871610704
O   O1        1.0  0.37974  0.87266  0.07280  1.0000 -0.5492697331
O   O2        1.0  0.87266  0.07280  0.37974  1.0000 -0.5492697331
O   O3        1.0  0.07280  0.37974  0.87266  1.0000 -0.5492697331
O   O4        1.0  0.62026  0.92720  0.12734  1.0000 -0.5492697331
O   O5        1.0  0.12734  0.62026  0.92720  1.0000 -0.5492697331
O   O6        1.0  0.92720  0.12734  0.62026  1.0000 -0.5492697331
O   O7        1.0  0.35564  0.71729  0.93217  1.0000 -0.6974182797
O   O8        1.0  0.71729  0.93217  0.35564  1.0000 -0.6974182797
O   O9        1.0  0.93217  0.35564  0.71729  1.0000 -0.6974182797
O   O10       1.0  0.64436  0.06783  0.28271  1.0000 -0.6974182797
O   O11       1.0  0.28271  0.64436  0.06783  1.0000 -0.6974182797
O   O12       1.0  0.06783  0.28271  0.64436  1.0000 -0.6974182797
O   O13       1.0  0.65810  0.07780  0.51670  1.0000 -0.6345061732
O   O14       1.0  0.07780  0.51670  0.65810  1.0000 -0.6345061732
O   O15       1.0  0.51670  0.65810  0.07780  1.0000 -0.6353077961
O   O16       1.0  0.34190  0.48330  0.92220  1.0000 -0.6353077961
O   O17       1.0  0.92220  0.34190  0.48330  1.0000 -0.6345061732
O   O18       1.0  0.48330  0.92220  0.34190  1.0000 -0.6353077961
