# DDEC6 charges by PACMAN v1.1 (https://github.com/mtap-research/PACMAN-charge/)
data_2015[Zn][pcu]3[ASR]10
_chemical_formula_sum              "Zn4 H48 C72 N8 O20"
_cell_length_a       11.472
_cell_length_b       19.94
_cell_length_c       12.0025
_cell_angle_alpha    90
_cell_angle_beta     101.475
_cell_angle_gamma    90

_symmetry_space_group_name_H-M    "P 1"
_symmetry_Int_Tables_number       1

loop_
  _symmetry_equiv_pos_as_xyz
  'x, y, z'

loop_
  _atom_site_type_symbol
  _atom_site_label
  _atom_site_symmetry_multiplicity
  _atom_site_fract_x
  _atom_site_fract_y
  _atom_site_fract_z
  _atom_site_occupancy
  _atom_site_charge
Zn  Zn1       1.0  0.50487  0.91839  0.91851  1.0000 0.8129661162
Zn  Zn2       1.0  0.49513  0.41839  0.58149  1.0000 0.8129661162
Zn  Zn3       1.0  0.49513  0.08161  0.08149  1.0000 0.8129661162
Zn  Zn4       1.0  0.50487  0.58161  0.41851  1.0000 0.8129661162
H   H1        1.0  0.52720  0.62260  0.12320  1.0000 0.3497589161
H   H2        1.0  0.47280  0.12260  0.37680  1.0000 0.3497589161
H   H3        1.0  0.47280  0.37740  0.87680  1.0000 0.3497589161
H   H4        1.0  0.52720  0.87740  0.62320  1.0000 0.3497589161
H   H5        1.0  0.52750  0.68070  0.68240  1.0000 0.1314575267
H   H6        1.0  0.47250  0.18070  0.81760  1.0000 0.1314575267
H   H7        1.0  0.47250  0.31930  0.31760  1.0000 0.1314575267
H   H8        1.0  0.52750  0.81930  0.18240  1.0000 0.1314575267
H   H9        1.0  0.53310  0.71700  0.01300  1.0000 0.1398058104
H   H10       1.0  0.46690  0.21700  0.48700  1.0000 0.1398058104
H   H11       1.0  0.46690  0.28300  0.98700  1.0000 0.1398058104
H   H12       1.0  0.53310  0.78300  0.51300  1.0000 0.1398058104
H   H13       1.0  0.87930  0.94220  0.75430  1.0000 0.1398058104
H   H14       1.0  0.12070  0.44220  0.74570  1.0000 0.1398058104
H   H15       1.0  0.12070  0.05780  0.24570  1.0000 0.1398058104
H   H16       1.0  0.87930  0.55780  0.25430  1.0000 0.1398058104
H   H17       1.0  0.94870  0.89730  0.08430  1.0000 0.1314575267
H   H18       1.0  0.05130  0.39730  0.41570  1.0000 0.1314575267
H   H19       1.0  0.05130  0.10270  0.91570  1.0000 0.1314575267
H   H20       1.0  0.94870  0.60270  0.58430  1.0000 0.1314575267
H   H21       1.0  0.53980  0.52770  0.90210  1.0000 0.1398058104
H   H22       1.0  0.46020  0.02770  0.59790  1.0000 0.1398058104
H   H23       1.0  0.46020  0.47230  0.09790  1.0000 0.1398058104
H   H24       1.0  0.53980  0.97230  0.40210  1.0000 0.1398058104
H   H25       1.0  0.26080  0.94020  0.75930  1.0000 0.1190421064
H   H26       1.0  0.73920  0.44020  0.74070  1.0000 0.1190421064
H   H27       1.0  0.73920  0.05980  0.24070  1.0000 0.1190421064
H   H28       1.0  0.26080  0.55980  0.25930  1.0000 0.1190421064
H   H29       1.0  0.32570  0.89360  0.07930  1.0000 0.1099810158
H   H30       1.0  0.67430  0.39360  0.42070  1.0000 0.1099810158
H   H31       1.0  0.67430  0.10640  0.92070  1.0000 0.1099810158
H   H32       1.0  0.32570  0.60640  0.57930  1.0000 0.1099810158
H   H33       1.0  0.06150  0.93830  0.75140  1.0000 0.1314575267
H   H34       1.0  0.93850  0.43830  0.74860  1.0000 0.1314575267
H   H35       1.0  0.93850  0.06170  0.24860  1.0000 0.1314575267
H   H36       1.0  0.06150  0.56170  0.25140  1.0000 0.1314575267
H   H37       1.0  0.68310  0.94810  0.76180  1.0000 0.1190421064
H   H38       1.0  0.31690  0.44810  0.73820  1.0000 0.1190421064
H   H39       1.0  0.31690  0.05190  0.23820  1.0000 0.1190421064
H   H40       1.0  0.68310  0.55190  0.26180  1.0000 0.1190421064
H   H41       1.0  0.12880  0.89280  0.08300  1.0000 0.1314575267
H   H42       1.0  0.87120  0.39280  0.41700  1.0000 0.1314575267
H   H43       1.0  0.87120  0.10720  0.91700  1.0000 0.1314575267
H   H44       1.0  0.12880  0.60720  0.58300  1.0000 0.1314575267
H   H45       1.0  0.75030  0.89960  0.08030  1.0000 0.1190421064
H   H46       1.0  0.24970  0.39960  0.41970  1.0000 0.1190421064
H   H47       1.0  0.24970  0.10040  0.91970  1.0000 0.1190421064
H   H48       1.0  0.75030  0.60040  0.58030  1.0000 0.1190421064
C   C1        1.0  0.52800  0.71090  0.84390  1.0000 0.0084097847
C   C2        1.0  0.47200  0.21090  0.65610  1.0000 0.0084097847
C   C3        1.0  0.47200  0.28910  0.15610  1.0000 0.0084097847
C   C4        1.0  0.52800  0.78910  0.34390  1.0000 0.0084097847
C   C5        1.0  0.53195  0.54777  0.68380  1.0000 0.5626435658
C   C6        1.0  0.46805  0.04777  0.81620  1.0000 0.5626435658
C   C7        1.0  0.46805  0.45223  0.31620  1.0000 0.5626435658
C   C8        1.0  0.53195  0.95223  0.18380  1.0000 0.5626435658
C   C9        1.0  0.94020  0.91881  0.91840  1.0000 0.1016030205
C   C10       1.0  0.05980  0.41881  0.58160  1.0000 0.1016030205
C   C11       1.0  0.05980  0.08119  0.08160  1.0000 0.1016030205
C   C12       1.0  0.94020  0.58119  0.41840  1.0000 0.1016030205
C   C13       1.0  0.52960  0.66535  0.75595  1.0000 -0.1728552538
C   C14       1.0  0.47040  0.16535  0.74405  1.0000 -0.1728552538
C   C15       1.0  0.47040  0.33465  0.24405  1.0000 -0.1728552538
C   C16       1.0  0.52960  0.83465  0.25595  1.0000 -0.1728552538
C   C17       1.0  0.53310  0.68695  0.95370  1.0000 -0.2336373101
C   C18       1.0  0.46690  0.18695  0.54630  1.0000 -0.2336373101
C   C19       1.0  0.46690  0.31305  0.04630  1.0000 -0.2336373101
C   C20       1.0  0.53310  0.81305  0.45370  1.0000 -0.2336373101
C   C21       1.0  0.85580  0.93387  0.82270  1.0000 -0.1992736594
C   C22       1.0  0.14420  0.43387  0.67730  1.0000 -0.1992736594
C   C23       1.0  0.14420  0.06613  0.17730  1.0000 -0.1992736594
C   C24       1.0  0.85580  0.56613  0.32270  1.0000 -0.1992736594
C   C25       1.0  0.89640  0.90686  0.01650  1.0000 -0.1992736594
C   C26       1.0  0.10360  0.40686  0.48350  1.0000 -0.1992736594
C   C27       1.0  0.10360  0.09314  0.98350  1.0000 -0.1992736594
C   C28       1.0  0.89640  0.59314  0.51650  1.0000 -0.1992736594
C   C29       1.0  0.52090  0.78525  0.82180  1.0000 0.5626435658
C   C30       1.0  0.47910  0.28525  0.67820  1.0000 0.5626435658
C   C31       1.0  0.47910  0.21475  0.17820  1.0000 0.5626435658
C   C32       1.0  0.52090  0.71475  0.32180  1.0000 0.5626435658
C   C33       1.0  0.53820  0.61891  0.97520  1.0000 0.2900979598
C   C34       1.0  0.46180  0.11891  0.52480  1.0000 0.2900979598
C   C35       1.0  0.46180  0.38109  0.02480  1.0000 0.2900979598
C   C36       1.0  0.53820  0.88109  0.47520  1.0000 0.2900979598
C   C37       1.0  0.53450  0.59697  0.77852  1.0000 -0.0321262069
C   C38       1.0  0.46550  0.09697  0.72148  1.0000 -0.0321262069
C   C39       1.0  0.46550  0.40303  0.22148  1.0000 -0.0321262069
C   C40       1.0  0.53450  0.90303  0.27852  1.0000 -0.0321262069
C   C41       1.0  0.06860  0.91679  0.91800  1.0000 0.1016030205
C   C42       1.0  0.93140  0.41679  0.58200  1.0000 0.1016030205
C   C43       1.0  0.93140  0.08321  0.08200  1.0000 0.1016030205
C   C44       1.0  0.06860  0.58321  0.41800  1.0000 0.1016030205
C   C45       1.0  0.53780  0.57356  0.88760  1.0000 -0.2158363829
C   C46       1.0  0.46220  0.07356  0.61240  1.0000 -0.2158363829
C   C47       1.0  0.46220  0.42644  0.11240  1.0000 -0.2158363829
C   C48       1.0  0.53780  0.92644  0.38760  1.0000 -0.2158363829
C   C49       1.0  0.23370  0.93031  0.82550  1.0000 0.0801084475
C   C50       1.0  0.76630  0.43031  0.67450  1.0000 0.0801084475
C   C51       1.0  0.76630  0.06969  0.17450  1.0000 0.0801084475
C   C52       1.0  0.23370  0.56969  0.32550  1.0000 0.0801084475
C   C53       1.0  0.27180  0.90345  0.01260  1.0000 0.0879865262
C   C54       1.0  0.72820  0.40345  0.48740  1.0000 0.0879865262
C   C55       1.0  0.72820  0.09655  0.98740  1.0000 0.0879865262
C   C56       1.0  0.27180  0.59655  0.51260  1.0000 0.0879865262
C   C57       1.0  0.11330  0.92989  0.82000  1.0000 -0.1992736594
C   C58       1.0  0.88670  0.42989  0.68000  1.0000 -0.1992736594
C   C59       1.0  0.88670  0.07011  0.18000  1.0000 -0.1992736594
C   C60       1.0  0.11330  0.57011  0.32000  1.0000 -0.1992736594
C   C61       1.0  0.73720  0.93672  0.82760  1.0000 0.0879865262
C   C62       1.0  0.26280  0.43672  0.67240  1.0000 0.0879865262
C   C63       1.0  0.26280  0.06328  0.17240  1.0000 0.0879865262
C   C64       1.0  0.73720  0.56328  0.32760  1.0000 0.0879865262
C   C65       1.0  0.15310  0.90275  0.01550  1.0000 -0.1992736594
C   C66       1.0  0.84690  0.40275  0.48450  1.0000 -0.1992736594
C   C67       1.0  0.84690  0.09725  0.98450  1.0000 -0.1992736594
C   C68       1.0  0.15310  0.59725  0.51550  1.0000 -0.1992736594
C   C69       1.0  0.77670  0.90914  0.01360  1.0000 0.0879865262
C   C70       1.0  0.22330  0.40914  0.48640  1.0000 0.0879865262
C   C71       1.0  0.22330  0.09086  0.98640  1.0000 0.0879865262
C   C72       1.0  0.77670  0.59086  0.51360  1.0000 0.0879865262
N   N1        1.0  0.31487  0.91752  0.91948  1.0000 -0.2109663407
N   N2        1.0  0.68513  0.41752  0.58052  1.0000 -0.2109663407
N   N3        1.0  0.68513  0.08248  0.08052  1.0000 -0.2109663407
N   N4        1.0  0.31487  0.58248  0.41948  1.0000 -0.2109663407
N   N5        1.0  0.69553  0.92414  0.92125  1.0000 -0.2109663407
N   N6        1.0  0.30447  0.42414  0.57875  1.0000 -0.2109663407
N   N7        1.0  0.30447  0.07586  0.07875  1.0000 -0.2109663407
N   N8        1.0  0.69553  0.57586  0.42125  1.0000 -0.2109663407
O   O1        1.0  0.54120  0.59331  0.08147  1.0000 -0.4591951291
O   O2        1.0  0.45880  0.09331  0.41853  1.0000 -0.4591951291
O   O3        1.0  0.45880  0.40669  0.91853  1.0000 -0.4591951291
O   O4        1.0  0.54120  0.90669  0.58147  1.0000 -0.4591951291
O   O5        1.0  0.54154  0.56986  0.58850  1.0000 -0.5714152078
O   O6        1.0  0.45846  0.06986  0.91150  1.0000 -0.5714152078
O   O7        1.0  0.45846  0.43014  0.41150  1.0000 -0.5714152078
O   O8        1.0  0.54154  0.93014  0.08850  1.0000 -0.5714152078
O   O9        1.0  0.50501  0.82063  0.90411  1.0000 -0.5508835981
O   O10       1.0  0.49499  0.32063  0.59589  1.0000 -0.5508835981
O   O11       1.0  0.49499  0.17937  0.09589  1.0000 -0.5508835981
O   O12       1.0  0.50501  0.67937  0.40411  1.0000 -0.5508835981
O   O13       1.0  0.53050  0.80645  0.72863  1.0000 -0.5508835981
O   O14       1.0  0.46950  0.30645  0.77137  1.0000 -0.5508835981
O   O15       1.0  0.46950  0.19355  0.27137  1.0000 -0.5508835981
O   O16       1.0  0.53050  0.69355  0.22863  1.0000 -0.5508835981
O   O17       1.0  0.52137  0.48665  0.70570  1.0000 -0.5402888428
O   O18       1.0  0.47863  0.98665  0.79430  1.0000 -0.5402888428
O   O19       1.0  0.47863  0.51335  0.29430  1.0000 -0.5402888428
O   O20       1.0  0.52137  0.01335  0.20570  1.0000 -0.5402888428
