# DDEC6 charges by PACMAN v1.1 (https://github.com/mtap-research/PACMAN-charge/)
data_2015[In][qtz]3[ASR]1
_chemical_formula_sum              "In3 H24 C48 O24"
_cell_length_a       12.032
_cell_length_b       15.087
_cell_length_c       15.087
_cell_angle_alpha    120
_cell_angle_beta     90
_cell_angle_gamma    90

_symmetry_space_group_name_H-M    "P 1"
_symmetry_Int_Tables_number       1

loop_
  _symmetry_equiv_pos_as_xyz
  'x, y, z'

loop_
  _atom_site_type_symbol
  _atom_site_label
  _atom_site_symmetry_multiplicity
  _atom_site_fract_x
  _atom_site_fract_y
  _atom_site_fract_z
  _atom_site_occupancy
  _atom_site_charge
In  In1       1.0  0.00000  0.50000  0.50000  1.0000 1.3400113286
In  In2       1.0  0.66667  0.00000  0.50000  1.0000 1.3400113286
In  In3       1.0  0.33333  0.50000  0.00000  1.0000 1.3400113286
H   H1        1.0  0.75623  0.66097  0.78389  1.0000 0.1213421816
H   H2        1.0  0.74583  0.32526  0.60919  1.0000 0.1213421816
H   H3        1.0  0.42290  0.12292  0.33903  1.0000 0.1213421816
H   H4        1.0  0.41250  0.28393  0.67474  1.0000 0.1213421816
H   H5        1.0  0.08956  0.21611  0.87708  1.0000 0.1213421816
H   H6        1.0  0.07916  0.39081  0.71608  1.0000 0.1213421816
H   H7        1.0  0.75623  0.33903  0.21611  1.0000 0.1213421816
H   H8        1.0  0.74583  0.67474  0.39081  1.0000 0.1213421816
H   H9        1.0  0.42290  0.87708  0.66097  1.0000 0.1213421816
H   H10       1.0  0.41250  0.71607  0.32526  1.0000 0.1213421816
H   H11       1.0  0.08956  0.78389  0.12292  1.0000 0.1213421816
H   H12       1.0  0.07916  0.60919  0.28392  1.0000 0.1213421816
H   H13       1.0  0.91128  0.87683  0.21529  1.0000 0.1213421816
H   H14       1.0  0.92144  0.71546  0.39062  1.0000 0.1213421816
H   H15       1.0  0.24460  0.78472  0.66155  1.0000 0.1213421816
H   H16       1.0  0.25477  0.60938  0.32484  1.0000 0.1213421816
H   H17       1.0  0.57710  0.33903  0.12292  1.0000 0.1213421816
H   H18       1.0  0.58750  0.67474  0.28393  1.0000 0.1213421816
H   H19       1.0  0.91128  0.12317  0.78471  1.0000 0.1213421816
H   H20       1.0  0.92144  0.28454  0.60938  1.0000 0.1213421816
H   H21       1.0  0.24460  0.21528  0.33845  1.0000 0.1213421816
H   H22       1.0  0.25477  0.39062  0.67516  1.0000 0.1213421816
H   H23       1.0  0.57793  0.66155  0.87683  1.0000 0.1213421816
H   H24       1.0  0.58810  0.32484  0.71546  1.0000 0.1213421816
C   C1        1.0  0.84830  0.49050  0.61920  1.0000 0.5454900614
C   C2        1.0  0.75370  0.49550  0.68920  1.0000 0.0121711788
C   C3        1.0  0.71360  0.58620  0.76550  1.0000 -0.0786518031
C   C4        1.0  0.70910  0.40040  0.67160  1.0000 -0.0786518031
C   C5        1.0  0.51497  0.12870  0.50950  1.0000 0.5454900614
C   C6        1.0  0.42037  0.19370  0.50450  1.0000 0.0121711788
C   C7        1.0  0.38027  0.17930  0.41380  1.0000 -0.0746148088
C   C8        1.0  0.37577  0.27120  0.59960  1.0000 -0.0786518031
C   C9        1.0  0.18163  0.38080  0.87130  1.0000 0.5454900614
C   C10       1.0  0.08703  0.31080  0.80630  1.0000 0.0121711788
C   C11       1.0  0.04693  0.23450  0.82070  1.0000 -0.0746148088
C   C12       1.0  0.04243  0.32840  0.72880  1.0000 -0.0786518031
C   C13       1.0  0.84830  0.50950  0.38080  1.0000 0.5454900614
C   C14       1.0  0.75370  0.50450  0.31080  1.0000 0.0121711788
C   C15       1.0  0.71360  0.41380  0.23450  1.0000 -0.0786518031
C   C16       1.0  0.70910  0.59960  0.32840  1.0000 -0.0786518031
C   C17       1.0  0.51497  0.87130  0.49050  1.0000 0.5454900614
C   C18       1.0  0.42037  0.80630  0.49550  1.0000 0.0121711788
C   C19       1.0  0.38027  0.82070  0.58620  1.0000 -0.0746148088
C   C20       1.0  0.37577  0.72880  0.40040  1.0000 -0.0786518031
C   C21       1.0  0.18163  0.61920  0.12870  1.0000 0.5454900614
C   C22       1.0  0.08703  0.68920  0.19370  1.0000 0.0121711788
C   C23       1.0  0.04693  0.76550  0.17930  1.0000 -0.0786518031
C   C24       1.0  0.04243  0.67160  0.27120  1.0000 -0.0786518031
C   C25       1.0  0.81837  0.87130  0.38080  1.0000 0.5454900614
C   C26       1.0  0.91297  0.80630  0.31080  1.0000 0.0121711788
C   C27       1.0  0.95307  0.82070  0.23450  1.0000 -0.0746148088
C   C28       1.0  0.95757  0.72880  0.32840  1.0000 -0.0786518031
C   C29       1.0  0.15170  0.61920  0.49050  1.0000 0.5454900614
C   C30       1.0  0.24630  0.68920  0.49550  1.0000 0.0121711788
C   C31       1.0  0.28640  0.76550  0.58620  1.0000 -0.0786518031
C   C32       1.0  0.29090  0.67160  0.40040  1.0000 -0.0786518031
C   C33       1.0  0.48503  0.50950  0.12870  1.0000 0.5454900614
C   C34       1.0  0.57963  0.50450  0.19370  1.0000 0.0121711788
C   C35       1.0  0.61973  0.41380  0.17930  1.0000 -0.0786518031
C   C36       1.0  0.62423  0.59960  0.27120  1.0000 -0.0786518031
C   C37       1.0  0.81837  0.12870  0.61920  1.0000 0.5454900614
C   C38       1.0  0.91297  0.19370  0.68920  1.0000 0.0121711788
C   C39       1.0  0.95307  0.17930  0.76550  1.0000 -0.0746148088
C   C40       1.0  0.95757  0.27120  0.67160  1.0000 -0.0786518031
C   C41       1.0  0.15170  0.38080  0.50950  1.0000 0.5454900614
C   C42       1.0  0.24630  0.31080  0.50450  1.0000 0.0121711788
C   C43       1.0  0.28640  0.23450  0.41380  1.0000 -0.0786518031
C   C44       1.0  0.29090  0.32840  0.59960  1.0000 -0.0786518031
C   C45       1.0  0.48503  0.49050  0.87130  1.0000 0.5454900614
C   C46       1.0  0.57963  0.49550  0.80630  1.0000 0.0121711788
C   C47       1.0  0.61973  0.58620  0.82070  1.0000 -0.0786518031
C   C48       1.0  0.62423  0.40040  0.72880  1.0000 -0.0786518031
O   O1        1.0  0.89710  0.57840  0.64520  1.0000 -0.5145369032
O   O2        1.0  0.87420  0.41350  0.54160  1.0000 -0.464659951
O   O3        1.0  0.56377  0.06680  0.42160  1.0000 -0.5145369032
O   O4        1.0  0.54087  0.12810  0.58650  1.0000 -0.464659951
O   O5        1.0  0.23043  0.35480  0.93320  1.0000 -0.5166743496
O   O6        1.0  0.20753  0.45840  0.87190  1.0000 -0.464659951
O   O7        1.0  0.89710  0.42160  0.35480  1.0000 -0.5145369032
O   O8        1.0  0.87420  0.58650  0.45840  1.0000 -0.4657028416
O   O9        1.0  0.56377  0.93320  0.57840  1.0000 -0.5145369032
O   O10       1.0  0.54087  0.87190  0.41350  1.0000 -0.464659951
O   O11       1.0  0.23043  0.64520  0.06680  1.0000 -0.5145369032
O   O12       1.0  0.20753  0.54160  0.12810  1.0000 -0.464659951
O   O13       1.0  0.76957  0.93320  0.35480  1.0000 -0.5145369032
O   O14       1.0  0.79247  0.87190  0.45840  1.0000 -0.464659951
O   O15       1.0  0.10290  0.64520  0.57840  1.0000 -0.5145369032
O   O16       1.0  0.12580  0.54160  0.41350  1.0000 -0.464659951
O   O17       1.0  0.43623  0.42160  0.06680  1.0000 -0.5145369032
O   O18       1.0  0.45913  0.58650  0.12810  1.0000 -0.464659951
O   O19       1.0  0.76957  0.06680  0.64520  1.0000 -0.5145369032
O   O20       1.0  0.79247  0.12810  0.54160  1.0000 -0.464659951
O   O21       1.0  0.10290  0.35480  0.42160  1.0000 -0.5145369032
O   O22       1.0  0.12580  0.45840  0.58650  1.0000 -0.464659951
O   O23       1.0  0.43623  0.57840  0.93320  1.0000 -0.5166743496
O   O24       1.0  0.45913  0.41350  0.87190  1.0000 -0.4657028416
