# DDEC6 charges by PACMAN v1.1 (https://github.com/mtap-research/PACMAN-charge/)
data_2015[Ni][dia]3[ASR]3
_chemical_formula_sum              "Ni4 H48 C60 N24"
_cell_length_a       13.988
_cell_length_b       13.988
_cell_length_c       18.3269
_cell_angle_alpha    80.9123
_cell_angle_beta     99.0877
_cell_angle_gamma    68.6283

_symmetry_space_group_name_H-M    "P 1"
_symmetry_Int_Tables_number       1

loop_
  _symmetry_equiv_pos_as_xyz
  'x, y, z'

loop_
  _atom_site_type_symbol
  _atom_site_label
  _atom_site_symmetry_multiplicity
  _atom_site_fract_x
  _atom_site_fract_y
  _atom_site_fract_z
  _atom_site_occupancy
  _atom_site_charge
Ni  Ni1       1.0  0.85641  0.73019  0.80723  1.0000 0.1090164323
Ni  Ni2       1.0  0.26981  0.14359  0.30723  1.0000 0.1090164323
Ni  Ni3       1.0  0.48848  0.36460  0.74831  1.0000 0.1201343108
Ni  Ni4       1.0  0.63540  0.51152  0.24831  1.0000 0.1201343108
H   H1        1.0  0.98670  0.00910  0.53420  1.0000 0.1280441925
H   H2        1.0  0.99090  0.01330  0.03420  1.0000 0.1280441925
H   H3        1.0  0.17100  0.74920  0.69770  1.0000 0.1201343108
H   H4        1.0  0.25080  0.82900  0.19770  1.0000 0.1201343108
H   H5        1.0  0.29330  0.85310  0.53460  1.0000 0.1280441925
H   H6        1.0  0.14690  0.70670  0.03460  1.0000 0.1280441925
H   H7        1.0  0.84600  0.01740  0.58800  1.0000 0.1201343108
H   H8        1.0  0.98260  0.15400  0.08800  1.0000 0.1201343108
H   H9        1.0  0.74440  0.95260  0.66440  1.0000 0.1201343108
H   H10       1.0  0.04740  0.25560  0.16440  1.0000 0.1201343108
H   H11       1.0  0.03350  0.74510  0.73000  1.0000 0.1090164323
H   H12       1.0  0.25490  0.96650  0.23000  1.0000 0.1090164323
H   H13       1.0  0.28740  0.58380  0.69250  1.0000 0.1090164323
H   H14       1.0  0.41620  0.71260  0.19250  1.0000 0.1090164323
H   H15       1.0  0.57060  0.54200  0.66750  1.0000 0.1090164323
H   H16       1.0  0.45800  0.42940  0.16750  1.0000 0.1090164323
H   H17       1.0  0.46230  0.72830  0.61980  1.0000 0.1201343108
H   H18       1.0  0.27170  0.53770  0.11980  1.0000 0.1201343108
H   H19       1.0  0.96730  0.08790  0.40790  1.0000 0.1201343108
H   H20       1.0  0.91210  0.03270  0.90790  1.0000 0.1201343108
H   H21       1.0  0.27530  0.01290  0.46300  1.0000 0.1037637666
H   H22       1.0  0.98710  0.72470  0.96300  1.0000 0.1037637666
H   H23       1.0  0.02420  0.19240  0.29900  1.0000 0.1037637666
H   H24       1.0  0.80760  0.97580  0.79900  1.0000 0.1037637666
H   H25       1.0  0.50980  0.17840  0.02940  1.0000 0.1280441925
H   H26       1.0  0.82160  0.49020  0.52940  1.0000 0.1280441925
H   H27       1.0  0.59220  0.91280  0.19230  1.0000 0.1201343108
H   H28       1.0  0.08720  0.40780  0.69230  1.0000 0.1201343108
H   H29       1.0  0.64870  0.89370  0.98490  1.0000 0.1280441925
H   H30       1.0  0.10630  0.35130  0.48490  1.0000 0.1280441925
H   H31       1.0  0.53040  0.24700  0.91640  1.0000 0.1090164323
H   H32       1.0  0.75300  0.46960  0.41640  1.0000 0.1090164323
H   H33       1.0  0.60010  0.97170  0.86280  1.0000 0.1201343108
H   H34       1.0  0.02830  0.39990  0.36280  1.0000 0.1201343108
H   H35       1.0  0.56440  0.10880  0.74950  1.0000 0.1201343108
H   H36       1.0  0.89120  0.43560  0.24950  1.0000 0.1201343108
H   H37       1.0  0.49300  0.26060  0.14340  1.0000 0.1201343108
H   H38       1.0  0.73940  0.50700  0.64340  1.0000 0.1201343108
H   H39       1.0  0.37540  0.30460  0.22920  1.0000 0.1201343108
H   H40       1.0  0.69540  0.62460  0.72920  1.0000 0.1201343108
H   H41       1.0  0.43190  0.01550  0.21930  1.0000 0.1090164323
H   H42       1.0  0.98450  0.56810  0.71930  1.0000 0.1090164323
H   H43       1.0  0.59860  0.75360  0.20580  1.0000 0.1090164323
H   H44       1.0  0.24640  0.40140  0.70580  1.0000 0.1090164323
H   H45       1.0  0.73290  0.54490  0.09450  1.0000 0.1201343108
H   H46       1.0  0.45510  0.26710  0.59450  1.0000 0.1201343108
H   H47       1.0  0.72430  0.71210  0.02850  1.0000 0.1280441925
H   H48       1.0  0.28790  0.27570  0.52850  1.0000 0.1280441925
C   C1        1.0  0.05170  0.95350  0.55600  1.0000 -0.2792137141
C   C2        1.0  0.04650  0.94830  0.05600  1.0000 -0.2792137141
C   C3        1.0  0.06380  0.87860  0.61910  1.0000 0.1792934425
C   C4        1.0  0.12140  0.93620  0.11910  1.0000 0.1792934425
C   C5        1.0  0.16200  0.79660  0.65290  1.0000 -0.3003137335
C   C6        1.0  0.20340  0.83800  0.15290  1.0000 -0.3003137335
C   C7        1.0  0.24460  0.78620  0.61990  1.0000 0.1792934425
C   C8        1.0  0.21380  0.75540  0.11990  1.0000 0.1792934425
C   C9        1.0  0.23600  0.86000  0.55610  1.0000 -0.2872252658
C   C10       1.0  0.14000  0.76400  0.05610  1.0000 -0.2872252658
C   C11       1.0  0.13910  0.94430  0.52530  1.0000 0.1926697977
C   C12       1.0  0.05570  0.86090  0.02530  1.0000 0.1926697977
C   C13       1.0  0.87200  0.95540  0.62580  1.0000 -0.1367225759
C   C14       1.0  0.04460  0.12800  0.12580  1.0000 -0.1367225759
C   C15       1.0  0.81630  0.91850  0.66800  1.0000 -0.0506820082
C   C16       1.0  0.08150  0.18370  0.16800  1.0000 -0.0506820082
C   C17       1.0  0.97390  0.80530  0.70440  1.0000 0.0421784557
C   C18       1.0  0.19470  0.02610  0.20440  1.0000 0.0421784557
C   C19       1.0  0.34480  0.59620  0.68090  1.0000 0.0197288487
C   C20       1.0  0.40380  0.65520  0.18090  1.0000 0.0197288487
C   C21       1.0  0.49940  0.57440  0.66710  1.0000 -0.0506820082
C   C22       1.0  0.42560  0.50060  0.16710  1.0000 -0.0555010711
C   C23       1.0  0.44000  0.67720  0.64010  1.0000 -0.1461688727
C   C24       1.0  0.32280  0.56000  0.14010  1.0000 -0.1461688727
C   C25       1.0  0.03500  0.08340  0.40670  1.0000 -0.1683143104
C   C26       1.0  0.91660  0.96500  0.90670  1.0000 -0.1646734849
C   C27       1.0  0.20490  0.04390  0.43650  1.0000 -0.0004823743
C   C28       1.0  0.95610  0.79510  0.93650  1.0000 0.002973631
C   C29       1.0  0.06320  0.13980  0.35250  1.0000 -0.0555010711
C   C30       1.0  0.86020  0.93680  0.85250  1.0000 -0.0555010711
C   C31       1.0  0.58110  0.04390  0.99620  1.0000 0.1792934425
C   C32       1.0  0.95610  0.41890  0.49620  1.0000 0.1792934425
C   C33       1.0  0.53870  0.10510  0.04480  1.0000 -0.2792137141
C   C34       1.0  0.89490  0.46130  0.54480  1.0000 -0.2872252658
C   C35       1.0  0.54030  0.05490  0.11720  1.0000 0.1792934425
C   C36       1.0  0.94510  0.45970  0.61720  1.0000 0.1792934425
C   C37       1.0  0.58600  0.94540  0.14240  1.0000 -0.3165198192
C   C38       1.0  0.05460  0.41400  0.64240  1.0000 -0.3165198192
C   C39       1.0  0.62190  0.88650  0.09050  1.0000 0.1926697977
C   C40       1.0  0.11350  0.37810  0.59050  1.0000 0.1926697977
C   C41       1.0  0.62180  0.93440  0.01820  1.0000 -0.2872252658
C   C42       1.0  0.06560  0.37820  0.51820  1.0000 -0.2872252658
C   C43       1.0  0.54590  0.19470  0.88920  1.0000 0.0197288487
C   C44       1.0  0.80530  0.45410  0.38920  1.0000 0.0197288487
C   C45       1.0  0.58380  0.04280  0.86080  1.0000 -0.1683143104
C   C46       1.0  0.95720  0.41620  0.36080  1.0000 -0.1683143104
C   C47       1.0  0.56320  0.11960  0.79820  1.0000 -0.0270933695
C   C48       1.0  0.88040  0.43680  0.29820  1.0000 -0.0270933695
C   C49       1.0  0.46690  0.21630  0.16900  1.0000 -0.1759061441
C   C50       1.0  0.78370  0.53310  0.66900  1.0000 -0.1759061441
C   C51       1.0  0.40160  0.23980  0.21640  1.0000 -0.0376436143
C   C52       1.0  0.76020  0.59840  0.71640  1.0000 -0.0376436143
C   C53       1.0  0.43220  0.08280  0.21130  1.0000 0.0197288487
C   C54       1.0  0.91720  0.56780  0.71130  1.0000 0.0197288487
C   C55       1.0  0.63160  0.72200  0.17040  1.0000 0.0089344575
C   C56       1.0  0.27800  0.36840  0.67040  1.0000 0.0089344575
C   C57       1.0  0.70470  0.60850  0.10880  1.0000 -0.0506820082
C   C58       1.0  0.39150  0.29530  0.60880  1.0000 -0.0506820082
C   C59       1.0  0.70080  0.70020  0.07240  1.0000 -0.1367225759
C   C60       1.0  0.29980  0.29920  0.57240  1.0000 -0.1367225759
N   N1        1.0  0.88133  0.82393  0.71680  1.0000 -0.2138286382
N   N2        1.0  0.17607  0.11867  0.21680  1.0000 -0.2138286382
N   N3        1.0  0.97490  0.88270  0.65030  1.0000 0.002973631
N   N4        1.0  0.11730  0.02510  0.15030  1.0000 0.002973631
N   N5        1.0  0.44020  0.52320  0.69420  1.0000 -0.2138286382
N   N6        1.0  0.47680  0.55980  0.19420  1.0000 -0.2138286382
N   N7        1.0  0.34033  0.69333  0.64790  1.0000 0.0089344575
N   N8        1.0  0.30667  0.65967  0.14790  1.0000 0.0089344575
N   N9        1.0  0.12732  0.01872  0.45910  1.0000 0.002973631
N   N10       1.0  0.98128  0.87268  0.95910  1.0000 0.002973631
N   N11       1.0  0.54090  0.21330  0.81610  1.0000 -0.2241683677
N   N12       1.0  0.78670  0.45910  0.31610  1.0000 -0.2241683677
N   N13       1.0  0.57580  0.09120  0.92080  1.0000 0.002973631
N   N14       1.0  0.90880  0.42420  0.42080  1.0000 0.002973631
N   N15       1.0  0.37895  0.15555  0.24300  1.0000 -0.2285774077
N   N16       1.0  0.84445  0.62105  0.74300  1.0000 -0.2285774077
N   N17       1.0  0.48676  0.11336  0.16650  1.0000 0.0089344575
N   N18       1.0  0.88664  0.51324  0.66650  1.0000 0.0089344575
N   N19       1.0  0.66077  0.62077  0.17100  1.0000 -0.2285774077
N   N20       1.0  0.37923  0.33923  0.67100  1.0000 -0.2285774077
N   N21       1.0  0.65576  0.77436  0.11150  1.0000 0.002973631
N   N22       1.0  0.22564  0.34424  0.61150  1.0000 0.002973631
N   N23       1.0  0.16900  0.11640  0.37330  1.0000 -0.2285774077
N   N24       1.0  0.88360  0.83100  0.87330  1.0000 -0.2285774077
