# DDEC6 charges by PACMAN v1.1 (https://github.com/mtap-research/PACMAN-charge/)
data_2015[Co][bcu]3[ASR]1
_chemical_formula_sum              "Co28 H160 C288 O112"
_cell_length_a       19.719
_cell_length_b       15.6642
_cell_length_c       27.118
_cell_angle_alpha    90
_cell_angle_beta     90
_cell_angle_gamma    90

_symmetry_space_group_name_H-M    "P 1"
_symmetry_Int_Tables_number       1

loop_
  _symmetry_equiv_pos_as_xyz
  'x, y, z'

loop_
  _atom_site_type_symbol
  _atom_site_label
  _atom_site_symmetry_multiplicity
  _atom_site_fract_x
  _atom_site_fract_y
  _atom_site_fract_z
  _atom_site_occupancy
  _atom_site_charge
Co  Co1       1.0  0.01944  0.21541  0.52831  1.0000 1.0207135882
Co  Co2       1.0  0.98056  0.78459  0.47169  1.0000 1.0207135882
Co  Co3       1.0  0.48056  0.78459  0.02831  1.0000 1.0207135882
Co  Co4       1.0  0.51944  0.21541  0.97169  1.0000 1.0207135882
Co  Co5       1.0  0.98056  0.71541  0.97169  1.0000 1.0207135882
Co  Co6       1.0  0.01944  0.28459  0.02831  1.0000 1.0207135882
Co  Co7       1.0  0.51944  0.28459  0.47169  1.0000 1.0207135882
Co  Co8       1.0  0.48056  0.71541  0.52831  1.0000 1.0207135882
Co  Co9       1.0  0.03481  0.12454  0.42055  1.0000 1.035550536
Co  Co10      1.0  0.96519  0.87546  0.57945  1.0000 1.035550536
Co  Co11      1.0  0.46519  0.87546  0.92055  1.0000 1.035550536
Co  Co12      1.0  0.53481  0.12454  0.07945  1.0000 1.035550536
Co  Co13      1.0  0.96519  0.62454  0.07945  1.0000 1.035550536
Co  Co14      1.0  0.03481  0.37546  0.92055  1.0000 1.035550536
Co  Co15      1.0  0.53481  0.37546  0.57945  1.0000 1.035550536
Co  Co16      1.0  0.46519  0.62454  0.42055  1.0000 1.035550536
Co  Co17      1.0  0.00000  0.00000  0.50000  1.0000 1.063000427
Co  Co18      1.0  0.50000  0.00000  0.00000  1.0000 1.063000427
Co  Co19      1.0  0.00000  0.50000  0.00000  1.0000 1.063000427
Co  Co20      1.0  0.50000  0.50000  0.50000  1.0000 1.063000427
Co  Co21      1.0  0.94628  0.94533  0.37293  1.0000 1.0207135882
Co  Co22      1.0  0.05372  0.05467  0.62707  1.0000 1.0207135882
Co  Co23      1.0  0.55372  0.05467  0.87293  1.0000 1.0207135882
Co  Co24      1.0  0.44628  0.94533  0.12707  1.0000 1.0257470471
Co  Co25      1.0  0.05372  0.44533  0.12707  1.0000 1.0257470471
Co  Co26      1.0  0.94628  0.55467  0.87293  1.0000 1.0207135882
Co  Co27      1.0  0.44628  0.55467  0.62707  1.0000 1.0207135882
Co  Co28      1.0  0.55372  0.44533  0.37293  1.0000 1.0207135882
H   H1        1.0  0.79939  0.18108  0.42210  1.0000 0.117243738
H   H2        1.0  0.20061  0.81892  0.57790  1.0000 0.117243738
H   H3        1.0  0.70061  0.81892  0.92210  1.0000 0.117243738
H   H4        1.0  0.29939  0.18108  0.07790  1.0000 0.117243738
H   H5        1.0  0.20061  0.68108  0.07790  1.0000 0.117243738
H   H6        1.0  0.79939  0.31892  0.92210  1.0000 0.117243738
H   H7        1.0  0.29939  0.31892  0.57790  1.0000 0.117243738
H   H8        1.0  0.70061  0.68108  0.42210  1.0000 0.117243738
H   H9        1.0  0.69540  0.25748  0.39661  1.0000 0.117243738
H   H10       1.0  0.30460  0.74252  0.60339  1.0000 0.117243738
H   H11       1.0  0.80460  0.74252  0.89661  1.0000 0.117243738
H   H12       1.0  0.19540  0.25748  0.10339  1.0000 0.117243738
H   H13       1.0  0.30460  0.75748  0.10339  1.0000 0.117243738
H   H14       1.0  0.69540  0.24252  0.89661  1.0000 0.117243738
H   H15       1.0  0.19540  0.24252  0.60339  1.0000 0.117243738
H   H16       1.0  0.80460  0.75748  0.39661  1.0000 0.117243738
H   H17       1.0  0.75309  0.55590  0.39810  1.0000 0.1104540275
H   H18       1.0  0.24691  0.44410  0.60190  1.0000 0.1104540275
H   H19       1.0  0.74691  0.44410  0.89810  1.0000 0.1104540275
H   H20       1.0  0.25309  0.55590  0.10190  1.0000 0.1104540275
H   H21       1.0  0.24691  0.05590  0.10190  1.0000 0.1104540275
H   H22       1.0  0.75309  0.94410  0.89810  1.0000 0.1104540275
H   H23       1.0  0.25309  0.94410  0.60190  1.0000 0.1104540275
H   H24       1.0  0.74691  0.05590  0.39810  1.0000 0.1104540275
H   H25       1.0  0.85700  0.63702  0.42298  1.0000 0.1020743065
H   H26       1.0  0.14300  0.36298  0.57702  1.0000 0.1020743065
H   H27       1.0  0.64300  0.36298  0.92298  1.0000 0.1020743065
H   H28       1.0  0.35700  0.63702  0.07702  1.0000 0.1020743065
H   H29       1.0  0.14300  0.13702  0.07702  1.0000 0.1020743065
H   H30       1.0  0.85700  0.86298  0.92298  1.0000 0.1020743065
H   H31       1.0  0.35700  0.86298  0.57702  1.0000 0.1020743065
H   H32       1.0  0.64300  0.13702  0.42298  1.0000 0.1020743065
H   H33       1.0  0.96090  0.56111  0.44949  1.0000 0.1104540275
H   H34       1.0  0.03910  0.43889  0.55051  1.0000 0.1104540275
H   H35       1.0  0.53910  0.43889  0.94949  1.0000 0.1104540275
H   H36       1.0  0.46090  0.56111  0.05051  1.0000 0.1104540275
H   H37       1.0  0.03910  0.06111  0.05051  1.0000 0.1104540275
H   H38       1.0  0.96090  0.93889  0.94949  1.0000 0.1104540275
H   H39       1.0  0.46090  0.93889  0.55051  1.0000 0.1104540275
H   H40       1.0  0.53910  0.06111  0.44949  1.0000 0.1104540275
H   H41       1.0  0.96267  0.40299  0.45485  1.0000 0.1104540275
H   H42       1.0  0.03733  0.59701  0.54515  1.0000 0.1104540275
H   H43       1.0  0.53733  0.59701  0.95485  1.0000 0.1104540275
H   H44       1.0  0.46267  0.40299  0.04515  1.0000 0.1104540275
H   H45       1.0  0.03733  0.90299  0.04515  1.0000 0.1104540275
H   H46       1.0  0.96267  0.09701  0.95485  1.0000 0.1104540275
H   H47       1.0  0.46267  0.09701  0.54515  1.0000 0.1104540275
H   H48       1.0  0.53733  0.90299  0.45485  1.0000 0.1104540275
H   H49       1.0  0.85307  0.18538  0.54538  1.0000 0.1104540275
H   H50       1.0  0.14693  0.81462  0.45462  1.0000 0.1104540275
H   H51       1.0  0.64693  0.81462  0.04538  1.0000 0.1104540275
H   H52       1.0  0.35307  0.18538  0.95462  1.0000 0.1104540275
H   H53       1.0  0.14693  0.68538  0.95462  1.0000 0.1104540275
H   H54       1.0  0.85307  0.31462  0.04538  1.0000 0.1104540275
H   H55       1.0  0.35307  0.31462  0.45462  1.0000 0.1104540275
H   H56       1.0  0.64693  0.68538  0.54538  1.0000 0.1104540275
H   H57       1.0  0.74817  0.26977  0.54487  1.0000 0.1020743065
H   H58       1.0  0.25183  0.73023  0.45513  1.0000 0.1020743065
H   H59       1.0  0.75183  0.73023  0.04487  1.0000 0.1020743065
H   H60       1.0  0.24817  0.26977  0.95513  1.0000 0.1020743065
H   H61       1.0  0.25183  0.76977  0.95513  1.0000 0.1020743065
H   H62       1.0  0.74817  0.23023  0.04487  1.0000 0.1020743065
H   H63       1.0  0.24817  0.23023  0.45513  1.0000 0.1020743065
H   H64       1.0  0.75183  0.76977  0.54487  1.0000 0.1020743065
H   H65       1.0  0.56838  0.06775  0.57080  1.0000 0.1020743065
H   H66       1.0  0.43162  0.93225  0.42920  1.0000 0.1020743065
H   H67       1.0  0.93162  0.93225  0.07080  1.0000 0.1020743065
H   H68       1.0  0.06838  0.06775  0.92920  1.0000 0.1020743065
H   H69       1.0  0.43162  0.56775  0.92920  1.0000 0.1020743065
H   H70       1.0  0.56838  0.43225  0.07080  1.0000 0.1020743065
H   H71       1.0  0.06838  0.43225  0.42920  1.0000 0.1020743065
H   H72       1.0  0.93162  0.56775  0.57080  1.0000 0.1020743065
H   H73       1.0  0.56402  0.91075  0.58648  1.0000 0.1020743065
H   H74       1.0  0.43598  0.08925  0.41352  1.0000 0.1020743065
H   H75       1.0  0.93598  0.08925  0.08648  1.0000 0.1020743065
H   H76       1.0  0.06402  0.91075  0.91352  1.0000 0.1020743065
H   H77       1.0  0.43598  0.41075  0.91352  1.0000 0.1020743065
H   H78       1.0  0.56402  0.58925  0.08648  1.0000 0.1020743065
H   H79       1.0  0.06402  0.58925  0.41352  1.0000 0.1020743065
H   H80       1.0  0.93598  0.41075  0.58648  1.0000 0.1020743065
H   H81       1.0  0.67082  0.82697  0.59277  1.0000 0.1020743065
H   H82       1.0  0.32918  0.17303  0.40723  1.0000 0.1020743065
H   H83       1.0  0.82918  0.17303  0.09277  1.0000 0.1020743065
H   H84       1.0  0.17082  0.82697  0.90723  1.0000 0.1020743065
H   H85       1.0  0.32918  0.32697  0.90723  1.0000 0.1020743065
H   H86       1.0  0.67082  0.67303  0.09277  1.0000 0.1020743065
H   H87       1.0  0.17082  0.67303  0.40723  1.0000 0.1020743065
H   H88       1.0  0.82918  0.32697  0.59277  1.0000 0.1020743065
H   H89       1.0  0.78270  0.89642  0.58246  1.0000 0.1104540275
H   H90       1.0  0.21730  0.10358  0.41754  1.0000 0.1104540275
H   H91       1.0  0.71730  0.10358  0.08246  1.0000 0.1104540275
H   H92       1.0  0.28270  0.89642  0.91754  1.0000 0.1104540275
H   H93       1.0  0.21730  0.39642  0.91754  1.0000 0.1104540275
H   H94       1.0  0.78270  0.60358  0.08246  1.0000 0.1104540275
H   H95       1.0  0.28270  0.60358  0.41754  1.0000 0.1104540275
H   H96       1.0  0.71730  0.39642  0.58246  1.0000 0.1104540275
H   H97       1.0  0.95136  0.62381  0.35207  1.0000 0.1104540275
H   H98       1.0  0.04864  0.37619  0.64793  1.0000 0.1104540275
H   H99       1.0  0.54864  0.37619  0.85207  1.0000 0.1104540275
H   H100      1.0  0.45136  0.62381  0.14793  1.0000 0.1104540275
H   H101      1.0  0.04864  0.12381  0.14793  1.0000 0.1104540275
H   H102      1.0  0.95136  0.87619  0.85207  1.0000 0.1104540275
H   H103      1.0  0.45136  0.87619  0.64793  1.0000 0.1104540275
H   H104      1.0  0.54864  0.12381  0.35207  1.0000 0.1104540275
H   H105      1.0  0.94684  0.54526  0.27263  1.0000 0.117243738
H   H106      1.0  0.05316  0.45474  0.72737  1.0000 0.117243738
H   H107      1.0  0.55316  0.45474  0.77263  1.0000 0.117243738
H   H108      1.0  0.44684  0.54526  0.22737  1.0000 0.117243738
H   H109      1.0  0.05316  0.04526  0.22737  1.0000 0.117243738
H   H110      1.0  0.94684  0.95474  0.77263  1.0000 0.117243738
H   H111      1.0  0.44684  0.95474  0.72737  1.0000 0.117243738
H   H112      1.0  0.55316  0.04526  0.27263  1.0000 0.117243738
H   H113      1.0  0.08950  0.70525  0.16260  1.0000 0.1104540275
H   H114      1.0  0.91050  0.29475  0.83740  1.0000 0.1104540275
H   H115      1.0  0.41050  0.29475  0.66260  1.0000 0.1104540275
H   H116      1.0  0.58950  0.70525  0.33740  1.0000 0.1104540275
H   H117      1.0  0.91050  0.20525  0.33740  1.0000 0.1104540275
H   H118      1.0  0.08950  0.79475  0.66260  1.0000 0.1104540275
H   H119      1.0  0.58950  0.79475  0.83740  1.0000 0.1104540275
H   H120      1.0  0.41050  0.20525  0.16260  1.0000 0.1104540275
H   H121      1.0  0.16544  0.82963  0.17218  1.0000 0.0881286947
H   H122      1.0  0.83456  0.17037  0.82782  1.0000 0.0881286947
H   H123      1.0  0.33456  0.17037  0.67218  1.0000 0.0881286947
H   H124      1.0  0.66544  0.82963  0.32782  1.0000 0.0881286947
H   H125      1.0  0.83456  0.32963  0.32782  1.0000 0.0881286947
H   H126      1.0  0.16544  0.67037  0.67218  1.0000 0.0881286947
H   H127      1.0  0.66544  0.67037  0.82782  1.0000 0.0881286947
H   H128      1.0  0.33456  0.32963  0.17218  1.0000 0.0881286947
H   H129      1.0  0.17250  0.90741  0.25281  1.0000 0.1020743065
H   H130      1.0  0.82750  0.09259  0.74719  1.0000 0.1020743065
H   H131      1.0  0.32750  0.09259  0.75281  1.0000 0.1020743065
H   H132      1.0  0.67250  0.90741  0.24719  1.0000 0.1020743065
H   H133      1.0  0.82750  0.40741  0.24719  1.0000 0.1020743065
H   H134      1.0  0.17250  0.59259  0.75281  1.0000 0.1020743065
H   H135      1.0  0.67250  0.59259  0.74719  1.0000 0.1020743065
H   H136      1.0  0.32750  0.40741  0.25281  1.0000 0.1020743065
H   H137      1.0  0.10291  0.86088  0.32401  1.0000 0.1104540275
H   H138      1.0  0.89709  0.13912  0.67599  1.0000 0.1104540275
H   H139      1.0  0.39709  0.13912  0.82401  1.0000 0.1104540275
H   H140      1.0  0.60291  0.86088  0.17599  1.0000 0.1104540275
H   H141      1.0  0.89709  0.36088  0.17599  1.0000 0.1104540275
H   H142      1.0  0.10291  0.63912  0.82401  1.0000 0.1104540275
H   H143      1.0  0.60291  0.63912  0.67599  1.0000 0.1104540275
H   H144      1.0  0.39709  0.36088  0.32401  1.0000 0.1104540275
H   H145      1.0  0.08611  0.11038  0.49754  1.0000 0.3819370823
H   H146      1.0  0.91389  0.88962  0.50246  1.0000 0.3819370823
H   H147      1.0  0.41389  0.88962  0.99754  1.0000 0.3819370823
H   H148      1.0  0.58611  0.11038  0.00246  1.0000 0.3819370823
H   H149      1.0  0.91389  0.61038  0.00246  1.0000 0.3819370823
H   H150      1.0  0.08611  0.38962  0.99754  1.0000 0.3819370823
H   H151      1.0  0.58611  0.38962  0.50246  1.0000 0.3819370823
H   H152      1.0  0.41389  0.61038  0.49754  1.0000 0.3819370823
H   H153      1.0  0.93079  0.05385  0.43339  1.0000 0.3819370823
H   H154      1.0  0.06921  0.94615  0.56661  1.0000 0.3819370823
H   H155      1.0  0.56921  0.94615  0.93339  1.0000 0.3819370823
H   H156      1.0  0.43079  0.05385  0.06661  1.0000 0.3819370823
H   H157      1.0  0.06921  0.55385  0.06661  1.0000 0.3819370823
H   H158      1.0  0.93079  0.44615  0.93339  1.0000 0.3819370823
H   H159      1.0  0.43079  0.44615  0.56661  1.0000 0.3819370823
H   H160      1.0  0.56921  0.55385  0.43339  1.0000 0.3819370823
C   C1        1.0  0.92192  0.24635  0.45051  1.0000 0.6027845803
C   C2        1.0  0.07808  0.75365  0.54949  1.0000 0.6027845803
C   C3        1.0  0.57808  0.75365  0.95051  1.0000 0.6027845803
C   C4        1.0  0.42192  0.24635  0.04949  1.0000 0.6027845803
C   C5        1.0  0.07808  0.74635  0.04949  1.0000 0.6027845803
C   C6        1.0  0.92192  0.25365  0.95051  1.0000 0.6027845803
C   C7        1.0  0.42192  0.25365  0.54949  1.0000 0.6027845803
C   C8        1.0  0.57808  0.74635  0.45051  1.0000 0.6027845803
C   C9        1.0  0.66833  0.41705  0.39384  1.0000 0.547964291
C   C10       1.0  0.33167  0.58295  0.60616  1.0000 0.547964291
C   C11       1.0  0.83167  0.58295  0.89384  1.0000 0.547964291
C   C12       1.0  0.16833  0.41705  0.10616  1.0000 0.547964291
C   C13       1.0  0.33167  0.91705  0.10616  1.0000 0.547964291
C   C14       1.0  0.66833  0.08295  0.89384  1.0000 0.547964291
C   C15       1.0  0.16833  0.08295  0.60616  1.0000 0.547964291
C   C16       1.0  0.83167  0.91705  0.39384  1.0000 0.547964291
C   C17       1.0  0.85898  0.29536  0.43307  1.0000 -0.0324935602
C   C18       1.0  0.14102  0.70464  0.56693  1.0000 -0.0324935602
C   C19       1.0  0.64102  0.70464  0.93307  1.0000 -0.0324935602
C   C20       1.0  0.35898  0.29536  0.06693  1.0000 -0.0324935602
C   C21       1.0  0.14102  0.79536  0.06693  1.0000 -0.0324935602
C   C22       1.0  0.85898  0.20464  0.93307  1.0000 -0.0324935602
C   C23       1.0  0.35898  0.20464  0.56693  1.0000 -0.0324935602
C   C24       1.0  0.64102  0.79536  0.43307  1.0000 -0.0324935602
C   C25       1.0  0.80034  0.25068  0.42033  1.0000 -0.1097258944
C   C26       1.0  0.19966  0.74932  0.57967  1.0000 -0.1097258944
C   C27       1.0  0.69966  0.74932  0.92033  1.0000 -0.1097258944
C   C28       1.0  0.30034  0.25068  0.07967  1.0000 -0.1097258944
C   C29       1.0  0.19966  0.75068  0.07967  1.0000 -0.1097258944
C   C30       1.0  0.80034  0.24932  0.92033  1.0000 -0.1097258944
C   C31       1.0  0.30034  0.24932  0.57967  1.0000 -0.1097258944
C   C32       1.0  0.69966  0.75068  0.42033  1.0000 -0.1097258944
C   C33       1.0  0.74072  0.29384  0.40629  1.0000 -0.0808243622
C   C34       1.0  0.25928  0.70616  0.59371  1.0000 -0.0808243622
C   C35       1.0  0.75928  0.70616  0.90629  1.0000 -0.0808243622
C   C36       1.0  0.24072  0.29384  0.09371  1.0000 -0.0808243622
C   C37       1.0  0.25928  0.79384  0.09371  1.0000 -0.0808243622
C   C38       1.0  0.74072  0.20616  0.90629  1.0000 -0.0808243622
C   C39       1.0  0.24072  0.20616  0.59371  1.0000 -0.0808243622
C   C40       1.0  0.75928  0.79384  0.40629  1.0000 -0.0808243622
C   C41       1.0  0.73714  0.38286  0.40429  1.0000 -0.0808243622
C   C42       1.0  0.26286  0.61714  0.59571  1.0000 -0.0808243622
C   C43       1.0  0.76286  0.61714  0.90429  1.0000 -0.0808243622
C   C44       1.0  0.23714  0.38286  0.09571  1.0000 -0.0808243622
C   C45       1.0  0.26286  0.88286  0.09571  1.0000 -0.0808243622
C   C46       1.0  0.73714  0.11714  0.90429  1.0000 -0.0808243622
C   C47       1.0  0.23714  0.11714  0.59571  1.0000 -0.0808243622
C   C48       1.0  0.76286  0.88286  0.40429  1.0000 -0.0808243622
C   C49       1.0  0.79751  0.43187  0.41409  1.0000 0.0618489956
C   C50       1.0  0.20249  0.56813  0.58591  1.0000 0.0618489956
C   C51       1.0  0.70249  0.56813  0.91409  1.0000 0.0618489956
C   C52       1.0  0.29751  0.43187  0.08591  1.0000 0.0618489956
C   C53       1.0  0.20249  0.93187  0.08591  1.0000 0.0618489956
C   C54       1.0  0.79751  0.06813  0.91409  1.0000 0.0618489956
C   C55       1.0  0.29751  0.06813  0.58591  1.0000 0.0618489956
C   C56       1.0  0.70249  0.93187  0.41409  1.0000 0.0618489956
C   C57       1.0  0.79882  0.52264  0.41090  1.0000 -0.1312496581
C   C58       1.0  0.20118  0.47736  0.58910  1.0000 -0.1312496581
C   C59       1.0  0.70118  0.47736  0.91090  1.0000 -0.1312496581
C   C60       1.0  0.29882  0.52264  0.08910  1.0000 -0.1312496581
C   C61       1.0  0.20118  0.02264  0.08910  1.0000 -0.1312496581
C   C62       1.0  0.79882  0.97736  0.91090  1.0000 -0.1312496581
C   C63       1.0  0.29882  0.97736  0.58910  1.0000 -0.1312496581
C   C64       1.0  0.70118  0.02264  0.41090  1.0000 -0.1312496581
C   C65       1.0  0.85677  0.56749  0.42364  1.0000 -0.0681089776
C   C66       1.0  0.14323  0.43251  0.57636  1.0000 -0.0681089776
C   C67       1.0  0.64323  0.43251  0.92364  1.0000 -0.0681089776
C   C68       1.0  0.35677  0.56749  0.07636  1.0000 -0.0681089776
C   C69       1.0  0.14323  0.06749  0.07636  1.0000 -0.0681089776
C   C70       1.0  0.85677  0.93251  0.92364  1.0000 -0.0681089776
C   C71       1.0  0.35677  0.93251  0.57636  1.0000 -0.0681089776
C   C72       1.0  0.64323  0.06749  0.42364  1.0000 -0.0681089776
C   C73       1.0  0.91613  0.52420  0.43904  1.0000 -0.0681089776
C   C74       1.0  0.08387  0.47580  0.56096  1.0000 -0.0681089776
C   C75       1.0  0.58387  0.47580  0.93904  1.0000 -0.0681089776
C   C76       1.0  0.41613  0.52420  0.06096  1.0000 -0.0681089776
C   C77       1.0  0.08387  0.02420  0.06096  1.0000 -0.0681089776
C   C78       1.0  0.91613  0.97580  0.93904  1.0000 -0.0681089776
C   C79       1.0  0.41613  0.97580  0.56096  1.0000 -0.0681089776
C   C80       1.0  0.58387  0.02420  0.43904  1.0000 -0.0681089776
C   C81       1.0  0.91717  0.43627  0.44185  1.0000 -0.1312496581
C   C82       1.0  0.08283  0.56373  0.55815  1.0000 -0.1312496581
C   C83       1.0  0.58283  0.56373  0.94185  1.0000 -0.1312496581
C   C84       1.0  0.41717  0.43627  0.05815  1.0000 -0.1312496581
C   C85       1.0  0.08283  0.93627  0.05815  1.0000 -0.1312496581
C   C86       1.0  0.91717  0.06373  0.94185  1.0000 -0.1312496581
C   C87       1.0  0.41717  0.06373  0.55815  1.0000 -0.1312496581
C   C88       1.0  0.58283  0.93627  0.44185  1.0000 -0.1312496581
C   C89       1.0  0.85855  0.38715  0.42991  1.0000 0.053497485
C   C90       1.0  0.14145  0.61285  0.57009  1.0000 0.053497485
C   C91       1.0  0.64145  0.61285  0.92991  1.0000 0.053497485
C   C92       1.0  0.35855  0.38715  0.07009  1.0000 0.053497485
C   C93       1.0  0.14145  0.88715  0.07009  1.0000 0.053497485
C   C94       1.0  0.85855  0.11285  0.92991  1.0000 0.053497485
C   C95       1.0  0.35855  0.11285  0.57009  1.0000 0.053497485
C   C96       1.0  0.64145  0.88715  0.42991  1.0000 0.053497485
C   C97       1.0  0.87199  0.01706  0.55403  1.0000 0.6027845803
C   C98       1.0  0.12801  0.98294  0.44597  1.0000 0.6027845803
C   C99       1.0  0.62801  0.98294  0.05403  1.0000 0.6027845803
C   C100      1.0  0.37199  0.01706  0.94597  1.0000 0.6027845803
C   C101      1.0  0.12801  0.51706  0.94597  1.0000 0.6027845803
C   C102      1.0  0.87199  0.48294  0.05403  1.0000 0.6027845803
C   C103      1.0  0.37199  0.48294  0.44597  1.0000 0.6027845803
C   C104      1.0  0.62801  0.51706  0.55403  1.0000 0.6027845803
C   C105      1.0  0.61849  0.22035  0.54812  1.0000 0.6027845803
C   C106      1.0  0.38151  0.77965  0.45188  1.0000 0.6027845803
C   C107      1.0  0.88151  0.77965  0.04812  1.0000 0.6027845803
C   C108      1.0  0.11849  0.22035  0.95188  1.0000 0.6027845803
C   C109      1.0  0.38151  0.72035  0.95188  1.0000 0.6027845803
C   C110      1.0  0.61849  0.27965  0.04812  1.0000 0.6027845803
C   C111      1.0  0.11849  0.27965  0.45188  1.0000 0.6027845803
C   C112      1.0  0.88151  0.72035  0.54812  1.0000 0.6027845803
C   C113      1.0  0.80504  0.06436  0.55906  1.0000 -0.0681089776
C   C114      1.0  0.19496  0.93564  0.44094  1.0000 -0.0681089776
C   C115      1.0  0.69496  0.93564  0.05906  1.0000 -0.0681089776
C   C116      1.0  0.30504  0.06436  0.94094  1.0000 -0.0681089776
C   C117      1.0  0.19496  0.56436  0.94094  1.0000 -0.0681089776
C   C118      1.0  0.80504  0.43564  0.05906  1.0000 -0.0681089776
C   C119      1.0  0.30504  0.43564  0.44094  1.0000 -0.0681089776
C   C120      1.0  0.69496  0.56436  0.55906  1.0000 -0.0681089776
C   C121      1.0  0.80507  0.15242  0.55173  1.0000 -0.0876539436
C   C122      1.0  0.19493  0.84758  0.44827  1.0000 -0.0876539436
C   C123      1.0  0.69493  0.84758  0.05173  1.0000 -0.0876539436
C   C124      1.0  0.30507  0.15242  0.94827  1.0000 -0.0876539436
C   C125      1.0  0.19493  0.65242  0.94827  1.0000 -0.0876539436
C   C126      1.0  0.80507  0.34758  0.05173  1.0000 -0.0876539436
C   C127      1.0  0.30507  0.34758  0.44827  1.0000 -0.0876539436
C   C128      1.0  0.69493  0.65242  0.55173  1.0000 -0.0876539436
C   C129      1.0  0.74459  0.20098  0.55113  1.0000 -0.1097258944
C   C130      1.0  0.25541  0.79902  0.44887  1.0000 -0.1049887078
C   C131      1.0  0.75541  0.79902  0.05113  1.0000 -0.1097258944
C   C132      1.0  0.24459  0.20098  0.94887  1.0000 -0.1049887078
C   C133      1.0  0.25541  0.70098  0.94887  1.0000 -0.1097258944
C   C134      1.0  0.74459  0.29902  0.05113  1.0000 -0.1049887078
C   C135      1.0  0.24459  0.29902  0.44887  1.0000 -0.1049887078
C   C136      1.0  0.75541  0.70098  0.55113  1.0000 -0.1097258944
C   C137      1.0  0.68111  0.16307  0.55619  1.0000 -0.0476963098
C   C138      1.0  0.31889  0.83693  0.44381  1.0000 -0.0476963098
C   C139      1.0  0.81889  0.83693  0.05619  1.0000 -0.0476963098
C   C140      1.0  0.18111  0.16307  0.94381  1.0000 -0.0476963098
C   C141      1.0  0.31889  0.66307  0.94381  1.0000 -0.0476963098
C   C142      1.0  0.68111  0.33693  0.05619  1.0000 -0.0476963098
C   C143      1.0  0.18111  0.33693  0.44381  1.0000 -0.0476963098
C   C144      1.0  0.81889  0.66307  0.55619  1.0000 -0.0476963098
C   C145      1.0  0.67833  0.07272  0.56564  1.0000 0.053497485
C   C146      1.0  0.32167  0.92728  0.43436  1.0000 0.053497485
C   C147      1.0  0.82167  0.92728  0.06564  1.0000 0.053497485
C   C148      1.0  0.17833  0.07272  0.93436  1.0000 0.053497485
C   C149      1.0  0.32167  0.57272  0.93436  1.0000 0.053497485
C   C150      1.0  0.67833  0.42728  0.06564  1.0000 0.053497485
C   C151      1.0  0.17833  0.42728  0.43436  1.0000 0.053497485
C   C152      1.0  0.82167  0.57272  0.56564  1.0000 0.053497485
C   C153      1.0  0.61527  0.03007  0.57278  1.0000 -0.1097258944
C   C154      1.0  0.38473  0.96993  0.42722  1.0000 -0.1097258944
C   C155      1.0  0.88473  0.96993  0.07278  1.0000 -0.1097258944
C   C156      1.0  0.11527  0.03007  0.92722  1.0000 -0.1097258944
C   C157      1.0  0.38473  0.53007  0.92722  1.0000 -0.1097258944
C   C158      1.0  0.61527  0.46993  0.07278  1.0000 -0.1097258944
C   C159      1.0  0.11527  0.46993  0.42722  1.0000 -0.1097258944
C   C160      1.0  0.88473  0.53007  0.57278  1.0000 -0.1097258944
C   C161      1.0  0.61264  0.94323  0.58169  1.0000 -0.0681089776
C   C162      1.0  0.38736  0.05677  0.41831  1.0000 -0.0681089776
C   C163      1.0  0.88736  0.05677  0.08169  1.0000 -0.0681089776
C   C164      1.0  0.11264  0.94323  0.91831  1.0000 -0.0681089776
C   C165      1.0  0.38736  0.44323  0.91831  1.0000 -0.0681089776
C   C166      1.0  0.61264  0.55677  0.08169  1.0000 -0.0681089776
C   C167      1.0  0.11264  0.55677  0.41831  1.0000 -0.0681089776
C   C168      1.0  0.88736  0.44323  0.58169  1.0000 -0.0681089776
C   C169      1.0  0.67332  0.89533  0.58479  1.0000 -0.0681089776
C   C170      1.0  0.32668  0.10467  0.41521  1.0000 -0.0681089776
C   C171      1.0  0.82668  0.10467  0.08479  1.0000 -0.0681089776
C   C172      1.0  0.17332  0.89533  0.91521  1.0000 -0.0681089776
C   C173      1.0  0.32668  0.39533  0.91521  1.0000 -0.0681089776
C   C174      1.0  0.67332  0.60467  0.08479  1.0000 -0.0681089776
C   C175      1.0  0.17332  0.60467  0.41521  1.0000 -0.0681089776
C   C176      1.0  0.82668  0.39533  0.58479  1.0000 -0.0681089776
C   C177      1.0  0.73588  0.93375  0.57850  1.0000 -0.1363259541
C   C178      1.0  0.26412  0.06625  0.42150  1.0000 -0.1363259541
C   C179      1.0  0.76412  0.06625  0.07850  1.0000 -0.1363259541
C   C180      1.0  0.23588  0.93375  0.92150  1.0000 -0.1363259541
C   C181      1.0  0.26412  0.43375  0.92150  1.0000 -0.1363259541
C   C182      1.0  0.73588  0.56625  0.07850  1.0000 -0.1363259541
C   C183      1.0  0.23588  0.56625  0.42150  1.0000 -0.1363259541
C   C184      1.0  0.76412  0.43375  0.57850  1.0000 -0.1363259541
C   C185      1.0  0.74084  0.02283  0.56828  1.0000 0.0618489956
C   C186      1.0  0.25916  0.97717  0.43172  1.0000 0.0618489956
C   C187      1.0  0.75916  0.97717  0.06828  1.0000 0.0618489956
C   C188      1.0  0.24084  0.02283  0.93172  1.0000 0.0618489956
C   C189      1.0  0.25916  0.52283  0.93172  1.0000 0.0618489956
C   C190      1.0  0.74084  0.47717  0.06828  1.0000 0.0618489956
C   C191      1.0  0.24084  0.47717  0.43172  1.0000 0.0618489956
C   C192      1.0  0.75916  0.52283  0.56828  1.0000 0.0618489956
C   C193      1.0  0.00730  0.77024  0.37292  1.0000 0.5948511673
C   C194      1.0  0.99270  0.22976  0.62708  1.0000 0.5948511673
C   C195      1.0  0.49270  0.22976  0.87292  1.0000 0.5948511673
C   C196      1.0  0.50730  0.77024  0.12708  1.0000 0.5948511673
C   C197      1.0  0.99270  0.27024  0.12708  1.0000 0.5948511673
C   C198      1.0  0.00730  0.72976  0.87292  1.0000 0.5948511673
C   C199      1.0  0.50730  0.72976  0.62708  1.0000 0.5948511673
C   C200      1.0  0.49270  0.27024  0.37292  1.0000 0.5948511673
C   C201      1.0  0.99942  0.59240  0.18338  1.0000 0.6059893531
C   C202      1.0  0.00058  0.40760  0.81662  1.0000 0.6059893531
C   C203      1.0  0.50058  0.40760  0.68338  1.0000 0.6059893531
C   C204      1.0  0.49942  0.59240  0.31662  1.0000 0.6059893531
C   C205      1.0  0.00058  0.09240  0.31662  1.0000 0.6059893531
C   C206      1.0  0.99942  0.90760  0.68338  1.0000 0.6059893531
C   C207      1.0  0.49942  0.90760  0.81662  1.0000 0.6059893531
C   C208      1.0  0.50058  0.09240  0.18338  1.0000 0.6059893531
C   C209      1.0  0.01361  0.72536  0.32459  1.0000 -0.0808243622
C   C210      1.0  0.98639  0.27464  0.67541  1.0000 -0.0808243622
C   C211      1.0  0.48639  0.27464  0.82459  1.0000 -0.0808243622
C   C212      1.0  0.51361  0.72536  0.17541  1.0000 -0.0808243622
C   C213      1.0  0.98639  0.22536  0.17541  1.0000 -0.0808243622
C   C214      1.0  0.01361  0.77464  0.82459  1.0000 -0.0808243622
C   C215      1.0  0.51361  0.77464  0.67541  1.0000 -0.0808243622
C   C216      1.0  0.48639  0.22536  0.32459  1.0000 -0.0808243622
C   C217      1.0  0.97827  0.64875  0.31987  1.0000 -0.0876539436
C   C218      1.0  0.02173  0.35125  0.68013  1.0000 -0.0876539436
C   C219      1.0  0.52173  0.35125  0.81987  1.0000 -0.0876539436
C   C220      1.0  0.47827  0.64875  0.18013  1.0000 -0.0876539436
C   C221      1.0  0.02173  0.14875  0.18013  1.0000 -0.0876539436
C   C222      1.0  0.97827  0.85125  0.81987  1.0000 -0.0876539436
C   C223      1.0  0.47827  0.85125  0.68013  1.0000 -0.0876539436
C   C224      1.0  0.52173  0.14875  0.31987  1.0000 -0.0876539436
C   C225      1.0  0.97580  0.60443  0.27473  1.0000 -0.1097258944
C   C226      1.0  0.02420  0.39557  0.72527  1.0000 -0.1097258944
C   C227      1.0  0.52420  0.39557  0.77473  1.0000 -0.1097258944
C   C228      1.0  0.47580  0.60443  0.22527  1.0000 -0.1097258944
C   C229      1.0  0.02420  0.10443  0.22527  1.0000 -0.1097258944
C   C230      1.0  0.97580  0.89557  0.77473  1.0000 -0.1097258944
C   C231      1.0  0.47580  0.89557  0.72527  1.0000 -0.1097258944
C   C232      1.0  0.52420  0.10443  0.27473  1.0000 -0.1097258944
C   C233      1.0  0.00909  0.63569  0.23330  1.0000 -0.0476963098
C   C234      1.0  0.99091  0.36431  0.76670  1.0000 -0.0476963098
C   C235      1.0  0.49091  0.36431  0.73330  1.0000 -0.0476963098
C   C236      1.0  0.50909  0.63569  0.26670  1.0000 -0.0476963098
C   C237      1.0  0.99091  0.13569  0.26670  1.0000 -0.0476963098
C   C238      1.0  0.00909  0.86431  0.73330  1.0000 -0.0476963098
C   C239      1.0  0.50909  0.86431  0.76670  1.0000 -0.0476963098
C   C240      1.0  0.49091  0.13569  0.23330  1.0000 -0.0476963098
C   C241      1.0  0.05046  0.71112  0.23756  1.0000 0.0618489956
C   C242      1.0  0.94954  0.28888  0.76244  1.0000 0.0618489956
C   C243      1.0  0.44954  0.28888  0.73756  1.0000 0.0618489956
C   C244      1.0  0.55046  0.71112  0.26244  1.0000 0.0618489956
C   C245      1.0  0.94954  0.21112  0.26244  1.0000 0.0618489956
C   C246      1.0  0.05046  0.78888  0.73756  1.0000 0.0618489956
C   C247      1.0  0.55046  0.78888  0.76244  1.0000 0.0618489956
C   C248      1.0  0.44954  0.21112  0.23756  1.0000 0.0618489956
C   C249      1.0  0.09179  0.73942  0.19776  1.0000 -0.1198126065
C   C250      1.0  0.90821  0.26058  0.80224  1.0000 -0.1198126065
C   C251      1.0  0.40821  0.26058  0.69776  1.0000 -0.1198126065
C   C252      1.0  0.59179  0.73942  0.30224  1.0000 -0.1198126065
C   C253      1.0  0.90821  0.23942  0.30224  1.0000 -0.1198126065
C   C254      1.0  0.09179  0.76058  0.69776  1.0000 -0.1198126065
C   C255      1.0  0.59179  0.76058  0.80224  1.0000 -0.1198126065
C   C256      1.0  0.40821  0.23942  0.19776  1.0000 -0.1198126065
C   C257      1.0  0.13443  0.80877  0.20336  1.0000 -0.0808243622
C   C258      1.0  0.86557  0.19123  0.79664  1.0000 -0.0808243622
C   C259      1.0  0.36557  0.19123  0.70336  1.0000 -0.0808243622
C   C260      1.0  0.63443  0.80877  0.29664  1.0000 -0.0808243622
C   C261      1.0  0.86557  0.30877  0.29664  1.0000 -0.0808243622
C   C262      1.0  0.13443  0.69123  0.70336  1.0000 -0.0808243622
C   C263      1.0  0.63443  0.69123  0.79664  1.0000 -0.0808243622
C   C264      1.0  0.36557  0.30877  0.20336  1.0000 -0.0808243622
C   C265      1.0  0.13839  0.85273  0.24887  1.0000 -0.0876539436
C   C266      1.0  0.86161  0.14727  0.75113  1.0000 -0.0876539436
C   C267      1.0  0.36161  0.14727  0.74887  1.0000 -0.0876539436
C   C268      1.0  0.63839  0.85273  0.25113  1.0000 -0.0876539436
C   C269      1.0  0.86161  0.35273  0.25113  1.0000 -0.0876539436
C   C270      1.0  0.13839  0.64727  0.74887  1.0000 -0.0876539436
C   C271      1.0  0.63839  0.64727  0.75113  1.0000 -0.0876539436
C   C272      1.0  0.36161  0.35273  0.24887  1.0000 -0.0876539436
C   C273      1.0  0.09916  0.82737  0.28860  1.0000 -0.1312496581
C   C274      1.0  0.90084  0.17263  0.71140  1.0000 -0.1312496581
C   C275      1.0  0.40084  0.17263  0.78860  1.0000 -0.1312496581
C   C276      1.0  0.59916  0.82737  0.21140  1.0000 -0.1312496581
C   C277      1.0  0.90084  0.32737  0.21140  1.0000 -0.1312496581
C   C278      1.0  0.09916  0.67263  0.78860  1.0000 -0.1312496581
C   C279      1.0  0.59916  0.67263  0.71140  1.0000 -0.1312496581
C   C280      1.0  0.40084  0.32737  0.28860  1.0000 -0.1312496581
C   C281      1.0  0.05373  0.75673  0.28405  1.0000 0.0703648714
C   C282      1.0  0.94627  0.24327  0.71595  1.0000 0.0703648714
C   C283      1.0  0.44627  0.24327  0.78405  1.0000 0.0703648714
C   C284      1.0  0.55373  0.75673  0.21595  1.0000 0.0703648714
C   C285      1.0  0.94627  0.25673  0.21595  1.0000 0.0703648714
C   C286      1.0  0.05373  0.74327  0.78405  1.0000 0.0703648714
C   C287      1.0  0.55373  0.74327  0.71595  1.0000 0.0703648714
C   C288      1.0  0.44627  0.25673  0.28405  1.0000 0.0703648714
O   O1        1.0  0.95174  0.19741  0.41914  1.0000 -0.5308236616
O   O2        1.0  0.04826  0.80259  0.58086  1.0000 -0.5308236616
O   O3        1.0  0.54826  0.80259  0.91914  1.0000 -0.5308236616
O   O4        1.0  0.45174  0.19741  0.08086  1.0000 -0.5308236616
O   O5        1.0  0.04826  0.69741  0.08086  1.0000 -0.5308236616
O   O6        1.0  0.95174  0.30259  0.91914  1.0000 -0.5308236616
O   O7        1.0  0.45174  0.30259  0.58086  1.0000 -0.5308236616
O   O8        1.0  0.54826  0.69741  0.41914  1.0000 -0.5308236616
O   O9        1.0  0.93869  0.25761  0.49596  1.0000 -0.5385220634
O   O10       1.0  0.06131  0.74239  0.50404  1.0000 -0.5385220634
O   O11       1.0  0.56131  0.74239  0.99596  1.0000 -0.5385220634
O   O12       1.0  0.43869  0.25761  0.00404  1.0000 -0.5385220634
O   O13       1.0  0.06131  0.75761  0.00404  1.0000 -0.5385220634
O   O14       1.0  0.93869  0.24239  0.99596  1.0000 -0.5385220634
O   O15       1.0  0.43869  0.24239  0.50404  1.0000 -0.5385220634
O   O16       1.0  0.56131  0.75761  0.49596  1.0000 -0.5385220634
O   O17       1.0  0.61540  0.36951  0.40549  1.0000 -0.5800594153
O   O18       1.0  0.38460  0.63049  0.59451  1.0000 -0.5800594153
O   O19       1.0  0.88460  0.63049  0.90549  1.0000 -0.5800594153
O   O20       1.0  0.11540  0.36951  0.09451  1.0000 -0.5800594153
O   O21       1.0  0.38460  0.86951  0.09451  1.0000 -0.5800594153
O   O22       1.0  0.61540  0.13049  0.90549  1.0000 -0.5800594153
O   O23       1.0  0.11540  0.13049  0.59451  1.0000 -0.5800594153
O   O24       1.0  0.88460  0.86951  0.40549  1.0000 -0.5800594153
O   O25       1.0  0.65200  0.48808  0.37278  1.0000 -0.5044557759
O   O26       1.0  0.34800  0.51192  0.62722  1.0000 -0.5044557759
O   O27       1.0  0.84800  0.51192  0.87278  1.0000 -0.5044557759
O   O28       1.0  0.15200  0.48808  0.12722  1.0000 -0.5044557759
O   O29       1.0  0.34800  0.98808  0.12722  1.0000 -0.5044557759
O   O30       1.0  0.65200  0.01192  0.87278  1.0000 -0.5044557759
O   O31       1.0  0.15200  0.01192  0.62722  1.0000 -0.5044557759
O   O32       1.0  0.84800  0.98808  0.37278  1.0000 -0.511743791
O   O33       1.0  0.91204  0.04437  0.51894  1.0000 -0.5800594153
O   O34       1.0  0.08796  0.95563  0.48106  1.0000 -0.5800594153
O   O35       1.0  0.58796  0.95563  0.01894  1.0000 -0.5800594153
O   O36       1.0  0.41204  0.04437  0.98106  1.0000 -0.5800594153
O   O37       1.0  0.08796  0.54437  0.98106  1.0000 -0.5800594153
O   O38       1.0  0.91204  0.45563  0.01894  1.0000 -0.5800594153
O   O39       1.0  0.41204  0.45563  0.48106  1.0000 -0.5800594153
O   O40       1.0  0.58796  0.54437  0.51894  1.0000 -0.5800594153
O   O41       1.0  0.88543  0.95348  0.58259  1.0000 -0.511743791
O   O42       1.0  0.11457  0.04652  0.41741  1.0000 -0.511743791
O   O43       1.0  0.61457  0.04652  0.08259  1.0000 -0.511743791
O   O44       1.0  0.38543  0.95348  0.91741  1.0000 -0.511743791
O   O45       1.0  0.11457  0.45348  0.91741  1.0000 -0.511743791
O   O46       1.0  0.88543  0.54652  0.08259  1.0000 -0.511743791
O   O47       1.0  0.38543  0.54652  0.41741  1.0000 -0.511743791
O   O48       1.0  0.61457  0.45348  0.58259  1.0000 -0.511743791
O   O49       1.0  0.58635  0.20853  0.50682  1.0000 -0.5700322377
O   O50       1.0  0.41365  0.79147  0.49318  1.0000 -0.5700322377
O   O51       1.0  0.91365  0.79147  0.00682  1.0000 -0.5700322377
O   O52       1.0  0.08635  0.20853  0.99318  1.0000 -0.5700322377
O   O53       1.0  0.41365  0.70853  0.99318  1.0000 -0.5700322377
O   O54       1.0  0.58635  0.29147  0.00682  1.0000 -0.5700322377
O   O55       1.0  0.08635  0.29147  0.49318  1.0000 -0.5700322377
O   O56       1.0  0.91365  0.70853  0.50682  1.0000 -0.5700322377
O   O57       1.0  0.60592  0.27786  0.58043  1.0000 -0.523709728
O   O58       1.0  0.39408  0.72214  0.41957  1.0000 -0.523709728
O   O59       1.0  0.89408  0.72214  0.08043  1.0000 -0.523709728
O   O60       1.0  0.10592  0.27786  0.91957  1.0000 -0.523709728
O   O61       1.0  0.39408  0.77786  0.91957  1.0000 -0.523709728
O   O62       1.0  0.60592  0.22214  0.08043  1.0000 -0.523709728
O   O63       1.0  0.10592  0.22214  0.41957  1.0000 -0.523709728
O   O64       1.0  0.89408  0.77786  0.58043  1.0000 -0.523709728
O   O65       1.0  0.01219  0.85267  0.37616  1.0000 -0.5700322377
O   O66       1.0  0.98781  0.14733  0.62384  1.0000 -0.5700322377
O   O67       1.0  0.48781  0.14733  0.87616  1.0000 -0.5700322377
O   O68       1.0  0.51219  0.85267  0.12384  1.0000 -0.5700322377
O   O69       1.0  0.98781  0.35267  0.12384  1.0000 -0.5700322377
O   O70       1.0  0.01219  0.64733  0.87616  1.0000 -0.5700322377
O   O71       1.0  0.51219  0.64733  0.62384  1.0000 -0.5700322377
O   O72       1.0  0.48781  0.35267  0.37616  1.0000 -0.5700322377
O   O73       1.0  0.99915  0.72241  0.41169  1.0000 -0.5385220634
O   O74       1.0  0.00085  0.27759  0.58831  1.0000 -0.5385220634
O   O75       1.0  0.50085  0.27759  0.91169  1.0000 -0.5385220634
O   O76       1.0  0.49915  0.72241  0.08831  1.0000 -0.5385220634
O   O77       1.0  0.00085  0.22241  0.08831  1.0000 -0.5385220634
O   O78       1.0  0.99915  0.77759  0.91169  1.0000 -0.5385220634
O   O79       1.0  0.49915  0.77759  0.58831  1.0000 -0.5385220634
O   O80       1.0  0.50085  0.22241  0.41169  1.0000 -0.5385220634
O   O81       1.0  0.97300  0.63940  0.14981  1.0000 -0.4813599946
O   O82       1.0  0.02700  0.36060  0.85019  1.0000 -0.4813599946
O   O83       1.0  0.52700  0.36060  0.64981  1.0000 -0.4813599946
O   O84       1.0  0.47300  0.63940  0.35019  1.0000 -0.4813599946
O   O85       1.0  0.02700  0.13940  0.35019  1.0000 -0.4813599946
O   O86       1.0  0.97300  0.86060  0.64981  1.0000 -0.4813599946
O   O87       1.0  0.47300  0.86060  0.85019  1.0000 -0.4813599946
O   O88       1.0  0.52700  0.13940  0.14981  1.0000 -0.4813599946
O   O89       1.0  0.01720  0.51348  0.17953  1.0000 -0.5385220634
O   O90       1.0  0.98280  0.48652  0.82047  1.0000 -0.5385220634
O   O91       1.0  0.48280  0.48652  0.67953  1.0000 -0.5385220634
O   O92       1.0  0.51720  0.51348  0.32047  1.0000 -0.5385220634
O   O93       1.0  0.98280  0.01348  0.32047  1.0000 -0.5385220634
O   O94       1.0  0.01720  0.98652  0.67953  1.0000 -0.5385220634
O   O95       1.0  0.51720  0.98652  0.82047  1.0000 -0.5385220634
O   O96       1.0  0.48280  0.01348  0.17953  1.0000 -0.5385220634
O   O97       1.0  0.03776  0.11822  0.49037  1.0000 -0.8098737436
O   O98       1.0  0.96224  0.88178  0.50963  1.0000 -0.8098737436
O   O99       1.0  0.46224  0.88178  0.99037  1.0000 -0.8098737436
O   O100      1.0  0.53776  0.11822  0.00963  1.0000 -0.8098737436
O   O101      1.0  0.96224  0.61822  0.00963  1.0000 -0.8098737436
O   O102      1.0  0.03776  0.38178  0.99037  1.0000 -0.8098737436
O   O103      1.0  0.53776  0.38178  0.50963  1.0000 -0.8098737436
O   O104      1.0  0.46224  0.61822  0.49037  1.0000 -0.8098737436
O   O105      1.0  0.97434  0.02443  0.42826  1.0000 -0.8098737436
O   O106      1.0  0.02566  0.97557  0.57174  1.0000 -0.8098737436
O   O107      1.0  0.52566  0.97557  0.92826  1.0000 -0.8098737436
O   O108      1.0  0.47434  0.02443  0.07174  1.0000 -0.8098737436
O   O109      1.0  0.02566  0.52443  0.07174  1.0000 -0.8098737436
O   O110      1.0  0.97434  0.47557  0.92826  1.0000 -0.8098737436
O   O111      1.0  0.47434  0.47557  0.57174  1.0000 -0.8098737436
O   O112      1.0  0.52566  0.52443  0.42826  1.0000 -0.8098737436
