# DDEC6 charges by PACMAN v1.1 (https://github.com/mtap-research/PACMAN-charge/)
data_2015[Cu][nan]3[ASR]13
_chemical_formula_sum              "Cu6 H168 C168 N48 O24"
_cell_length_a       25.0332
_cell_length_b       25.0332
_cell_length_c       25.0332
_cell_angle_alpha    109.471
_cell_angle_beta     109.471
_cell_angle_gamma    109.471

_symmetry_space_group_name_H-M    "P 1"
_symmetry_Int_Tables_number       1

loop_
  _symmetry_equiv_pos_as_xyz
  'x, y, z'

loop_
  _atom_site_type_symbol
  _atom_site_label
  _atom_site_symmetry_multiplicity
  _atom_site_fract_x
  _atom_site_fract_y
  _atom_site_fract_z
  _atom_site_occupancy
  _atom_site_charge
Cu  Cu1       1.0  0.30544  0.00000  0.30544  1.0000 0.1735552941
Cu  Cu2       1.0  0.00000  0.69456  0.69456  1.0000 0.1735552941
Cu  Cu3       1.0  0.69456  0.00000  0.69456  1.0000 0.1750155297
Cu  Cu4       1.0  0.00000  0.30544  0.30544  1.0000 0.1735552941
Cu  Cu5       1.0  0.30544  0.30544  0.00000  1.0000 0.1735552941
Cu  Cu6       1.0  0.69456  0.69456  0.00000  1.0000 0.1750155297
H   H1        1.0  0.40310  0.82850  0.13080  1.0000 0.2617607732
H   H2        1.0  0.82850  0.69770  0.42540  1.0000 0.2617607732
H   H3        1.0  0.69770  0.27230  0.86920  1.0000 0.2617607732
H   H4        1.0  0.27230  0.40310  0.57460  1.0000 0.2617607732
H   H5        1.0  0.59690  0.72770  0.42540  1.0000 0.2617607732
H   H6        1.0  0.72770  0.30230  0.13080  1.0000 0.2617607732
H   H7        1.0  0.30230  0.17150  0.57460  1.0000 0.2617607732
H   H8        1.0  0.17150  0.59690  0.86920  1.0000 0.2617607732
H   H9        1.0  0.13080  0.40310  0.82850  1.0000 0.2617607732
H   H10       1.0  0.40310  0.57460  0.27230  1.0000 0.2617607732
H   H11       1.0  0.57460  0.30230  0.17150  1.0000 0.2617607732
H   H12       1.0  0.30230  0.13080  0.72770  1.0000 0.2617607732
H   H13       1.0  0.86920  0.69770  0.27230  1.0000 0.2617607732
H   H14       1.0  0.69770  0.42540  0.82850  1.0000 0.2617607732
H   H15       1.0  0.42540  0.59690  0.72770  1.0000 0.2617607732
H   H16       1.0  0.59690  0.86920  0.17150  1.0000 0.2617607732
H   H17       1.0  0.82850  0.13080  0.40310  1.0000 0.2617607732
H   H18       1.0  0.86920  0.17150  0.59690  1.0000 0.2617607732
H   H19       1.0  0.13080  0.72770  0.30230  1.0000 0.2617607732
H   H20       1.0  0.57460  0.27230  0.40310  1.0000 0.2617607732
H   H21       1.0  0.42540  0.82850  0.69770  1.0000 0.2617607732
H   H22       1.0  0.17150  0.57460  0.30230  1.0000 0.2617607732
H   H23       1.0  0.72770  0.42540  0.59690  1.0000 0.2617607732
H   H24       1.0  0.27230  0.86920  0.69770  1.0000 0.2617607732
H   H25       1.0  0.20870  0.87770  0.17400  1.0000 0.1107995317
H   H26       1.0  0.87770  0.70370  0.66900  1.0000 0.1107995317
H   H27       1.0  0.70370  0.03470  0.82600  1.0000 0.1107995317
H   H28       1.0  0.03470  0.20870  0.33100  1.0000 0.1107995317
H   H29       1.0  0.79130  0.96530  0.66900  1.0000 0.1107995317
H   H30       1.0  0.96530  0.29630  0.17400  1.0000 0.1107995317
H   H31       1.0  0.29630  0.12230  0.33100  1.0000 0.1107995317
H   H32       1.0  0.12230  0.79130  0.82600  1.0000 0.1107995317
H   H33       1.0  0.17400  0.20870  0.87770  1.0000 0.1107995317
H   H34       1.0  0.20870  0.33100  0.03470  1.0000 0.1107995317
H   H35       1.0  0.33100  0.29630  0.12230  1.0000 0.1107995317
H   H36       1.0  0.29630  0.17400  0.96530  1.0000 0.1107995317
H   H37       1.0  0.82600  0.70370  0.03470  1.0000 0.1107995317
H   H38       1.0  0.70370  0.66900  0.87770  1.0000 0.1107995317
H   H39       1.0  0.66900  0.79130  0.96530  1.0000 0.1107995317
H   H40       1.0  0.79130  0.82600  0.12230  1.0000 0.1107995317
H   H41       1.0  0.87770  0.17400  0.20870  1.0000 0.1107995317
H   H42       1.0  0.82600  0.12230  0.79130  1.0000 0.1107995317
H   H43       1.0  0.17400  0.96530  0.29630  1.0000 0.1107995317
H   H44       1.0  0.33100  0.03470  0.20870  1.0000 0.1107995317
H   H45       1.0  0.66900  0.87770  0.70370  1.0000 0.1107995317
H   H46       1.0  0.12230  0.33100  0.29630  1.0000 0.1107995317
H   H47       1.0  0.96530  0.66900  0.79130  1.0000 0.1107995317
H   H48       1.0  0.03470  0.82600  0.70370  1.0000 0.1107995317
H   H49       1.0  0.20790  0.79680  0.09470  1.0000 0.1327448395
H   H50       1.0  0.79680  0.70210  0.58890  1.0000 0.1327448395
H   H51       1.0  0.70210  0.11320  0.90530  1.0000 0.1327448395
H   H52       1.0  0.11320  0.20790  0.41110  1.0000 0.1327448395
H   H53       1.0  0.79210  0.88680  0.58890  1.0000 0.1327448395
H   H54       1.0  0.88680  0.29790  0.09470  1.0000 0.1327448395
H   H55       1.0  0.29790  0.20320  0.41110  1.0000 0.1327448395
H   H56       1.0  0.20320  0.79210  0.90530  1.0000 0.1327448395
H   H57       1.0  0.09470  0.20790  0.79680  1.0000 0.1327448395
H   H58       1.0  0.20790  0.41110  0.11320  1.0000 0.1327448395
H   H59       1.0  0.41110  0.29790  0.20320  1.0000 0.1327448395
H   H60       1.0  0.29790  0.09470  0.88680  1.0000 0.1327448395
H   H61       1.0  0.90530  0.70210  0.11320  1.0000 0.1327448395
H   H62       1.0  0.70210  0.58890  0.79680  1.0000 0.1327448395
H   H63       1.0  0.58890  0.79210  0.88680  1.0000 0.1327448395
H   H64       1.0  0.79210  0.90530  0.20320  1.0000 0.1327448395
H   H65       1.0  0.79680  0.09470  0.20790  1.0000 0.1327448395
H   H66       1.0  0.90530  0.20320  0.79210  1.0000 0.1327448395
H   H67       1.0  0.09470  0.88680  0.29790  1.0000 0.1327448395
H   H68       1.0  0.41110  0.11320  0.20790  1.0000 0.1327448395
H   H69       1.0  0.58890  0.79680  0.70210  1.0000 0.1327448395
H   H70       1.0  0.20320  0.41110  0.29790  1.0000 0.1327448395
H   H71       1.0  0.88680  0.58890  0.79210  1.0000 0.1327448395
H   H72       1.0  0.11320  0.90530  0.70210  1.0000 0.1327448395
H   H73       1.0  0.30150  0.79360  0.11170  1.0000 0.1158083883
H   H74       1.0  0.79360  0.68190  0.49210  1.0000 0.1107995317
H   H75       1.0  0.68190  0.18980  0.88830  1.0000 0.1158083883
H   H76       1.0  0.18980  0.30150  0.50790  1.0000 0.1158083883
H   H77       1.0  0.69850  0.81020  0.49210  1.0000 0.1107995317
H   H78       1.0  0.81020  0.31810  0.11170  1.0000 0.1158083883
H   H79       1.0  0.31810  0.20640  0.50790  1.0000 0.1158083883
H   H80       1.0  0.20640  0.69850  0.88830  1.0000 0.1158083883
H   H81       1.0  0.11170  0.30150  0.79360  1.0000 0.1107995317
H   H82       1.0  0.30150  0.50790  0.18980  1.0000 0.1158083883
H   H83       1.0  0.50790  0.31810  0.20640  1.0000 0.1158083883
H   H84       1.0  0.31810  0.11170  0.81020  1.0000 0.1158083883
H   H85       1.0  0.88830  0.68190  0.18980  1.0000 0.1158083883
H   H86       1.0  0.68190  0.49210  0.79360  1.0000 0.1158083883
H   H87       1.0  0.49210  0.69850  0.81020  1.0000 0.1158083883
H   H88       1.0  0.69850  0.88830  0.20640  1.0000 0.1107995317
H   H89       1.0  0.79360  0.11170  0.30150  1.0000 0.1158083883
H   H90       1.0  0.88830  0.20640  0.69850  1.0000 0.1158083883
H   H91       1.0  0.11170  0.81020  0.31810  1.0000 0.1107995317
H   H92       1.0  0.50790  0.18980  0.30150  1.0000 0.1158083883
H   H93       1.0  0.49210  0.79360  0.68190  1.0000 0.1158083883
H   H94       1.0  0.20640  0.50790  0.31810  1.0000 0.1158083883
H   H95       1.0  0.81020  0.49210  0.69850  1.0000 0.1158083883
H   H96       1.0  0.18980  0.88830  0.68190  1.0000 0.1107995317
H   H97       1.0  0.39720  0.95590  0.28470  1.0000 0.1107995317
H   H98       1.0  0.95590  0.67120  0.55870  1.0000 0.1107995317
H   H99       1.0  0.67120  0.11250  0.71530  1.0000 0.1107995317
H   H100      1.0  0.11250  0.39720  0.44130  1.0000 0.1107995317
H   H101      1.0  0.60280  0.88750  0.55870  1.0000 0.1107995317
H   H102      1.0  0.88750  0.32880  0.28470  1.0000 0.1107995317
H   H103      1.0  0.32880  0.04410  0.44130  1.0000 0.1107995317
H   H104      1.0  0.04410  0.60280  0.71530  1.0000 0.1107995317
H   H105      1.0  0.28470  0.39720  0.95590  1.0000 0.1107995317
H   H106      1.0  0.39720  0.44130  0.11250  1.0000 0.1107995317
H   H107      1.0  0.44130  0.32880  0.04410  1.0000 0.1107995317
H   H108      1.0  0.32880  0.28470  0.88750  1.0000 0.1107995317
H   H109      1.0  0.71530  0.67120  0.11250  1.0000 0.1107995317
H   H110      1.0  0.67120  0.55870  0.95590  1.0000 0.1107995317
H   H111      1.0  0.55870  0.60280  0.88750  1.0000 0.1107995317
H   H112      1.0  0.60280  0.71530  0.04410  1.0000 0.1107995317
H   H113      1.0  0.95590  0.28470  0.39720  1.0000 0.1107995317
H   H114      1.0  0.71530  0.04410  0.60280  1.0000 0.1107995317
H   H115      1.0  0.28470  0.88750  0.32880  1.0000 0.1107995317
H   H116      1.0  0.44130  0.11250  0.39720  1.0000 0.1107995317
H   H117      1.0  0.55870  0.95590  0.67120  1.0000 0.1107995317
H   H118      1.0  0.04410  0.44130  0.32880  1.0000 0.1107995317
H   H119      1.0  0.88750  0.55870  0.60280  1.0000 0.1107995317
H   H120      1.0  0.11250  0.71530  0.67120  1.0000 0.1107995317
H   H121      1.0  0.52530  0.90660  0.18930  1.0000 0.0787535726
H   H122      1.0  0.90660  0.71730  0.38130  1.0000 0.0787535726
H   H123      1.0  0.71730  0.33600  0.81070  1.0000 0.0787535726
H   H124      1.0  0.33600  0.52530  0.61870  1.0000 0.0787535726
H   H125      1.0  0.47470  0.66400  0.38130  1.0000 0.0787535726
H   H126      1.0  0.66400  0.28270  0.18930  1.0000 0.0787535726
H   H127      1.0  0.28270  0.09340  0.61870  1.0000 0.0787535726
H   H128      1.0  0.09340  0.47470  0.81070  1.0000 0.0787535726
H   H129      1.0  0.18930  0.52530  0.90660  1.0000 0.0787535726
H   H130      1.0  0.52530  0.61870  0.33600  1.0000 0.0787535726
H   H131      1.0  0.61870  0.28270  0.09340  1.0000 0.0787535726
H   H132      1.0  0.28270  0.18930  0.66400  1.0000 0.0787535726
H   H133      1.0  0.81070  0.71730  0.33600  1.0000 0.0787535726
H   H134      1.0  0.71730  0.38130  0.90660  1.0000 0.0787535726
H   H135      1.0  0.38130  0.47470  0.66400  1.0000 0.0787535726
H   H136      1.0  0.47470  0.81070  0.09340  1.0000 0.0787535726
H   H137      1.0  0.90660  0.18930  0.52530  1.0000 0.0787535726
H   H138      1.0  0.81070  0.09340  0.47470  1.0000 0.0787535726
H   H139      1.0  0.18930  0.66400  0.28270  1.0000 0.0787535726
H   H140      1.0  0.61870  0.33600  0.52530  1.0000 0.0787535726
H   H141      1.0  0.38130  0.90660  0.71730  1.0000 0.0787535726
H   H142      1.0  0.09340  0.61870  0.28270  1.0000 0.0787535726
H   H143      1.0  0.66400  0.38130  0.47470  1.0000 0.0787535726
H   H144      1.0  0.33600  0.81070  0.71730  1.0000 0.0787535726
H   H145      1.0  0.52300  0.86720  0.22660  1.0000 0.0948774742
H   H146      1.0  0.86720  0.64060  0.34420  1.0000 0.0948774742
H   H147      1.0  0.64060  0.29640  0.77340  1.0000 0.0956890267
H   H148      1.0  0.29640  0.52300  0.65580  1.0000 0.0948774742
H   H149      1.0  0.47700  0.70360  0.34420  1.0000 0.0948774742
H   H150      1.0  0.70360  0.35940  0.22660  1.0000 0.0948774742
H   H151      1.0  0.35940  0.13280  0.65580  1.0000 0.0956890267
H   H152      1.0  0.13280  0.47700  0.77340  1.0000 0.0948774742
H   H153      1.0  0.22660  0.52300  0.86720  1.0000 0.0948774742
H   H154      1.0  0.52300  0.65580  0.29640  1.0000 0.0948774742
H   H155      1.0  0.65580  0.35940  0.13280  1.0000 0.0948774742
H   H156      1.0  0.35940  0.22660  0.70360  1.0000 0.0948774742
H   H157      1.0  0.77340  0.64060  0.29640  1.0000 0.0948774742
H   H158      1.0  0.64060  0.34420  0.86720  1.0000 0.0956890267
H   H159      1.0  0.34420  0.47700  0.70360  1.0000 0.0948774742
H   H160      1.0  0.47700  0.77340  0.13280  1.0000 0.0948774742
H   H161      1.0  0.86720  0.22660  0.52300  1.0000 0.0956890267
H   H162      1.0  0.77340  0.13280  0.47700  1.0000 0.0948774742
H   H163      1.0  0.22660  0.70360  0.35940  1.0000 0.0948774742
H   H164      1.0  0.65580  0.29640  0.52300  1.0000 0.0956890267
H   H165      1.0  0.34420  0.86720  0.64060  1.0000 0.0948774742
H   H166      1.0  0.13280  0.65580  0.35940  1.0000 0.0948774742
H   H167      1.0  0.70360  0.34420  0.47700  1.0000 0.0948774742
H   H168      1.0  0.29640  0.77340  0.64060  1.0000 0.0956890267
C   C1        1.0  0.24770  0.87790  0.18100  1.0000 0.0334120708
C   C2        1.0  0.87790  0.69690  0.63020  1.0000 0.0334120708
C   C3        1.0  0.69690  0.06670  0.81900  1.0000 0.0334120708
C   C4        1.0  0.06670  0.24770  0.36980  1.0000 0.0334120708
C   C5        1.0  0.75230  0.93330  0.63020  1.0000 0.0334120708
C   C6        1.0  0.93330  0.30310  0.18100  1.0000 0.0334120708
C   C7        1.0  0.30310  0.12210  0.36980  1.0000 0.0334120708
C   C8        1.0  0.12210  0.75230  0.81900  1.0000 0.0334120708
C   C9        1.0  0.18100  0.24770  0.87790  1.0000 0.0334120708
C   C10       1.0  0.24770  0.36980  0.06670  1.0000 0.0334120708
C   C11       1.0  0.36980  0.30310  0.12210  1.0000 0.0334120708
C   C12       1.0  0.30310  0.18100  0.93330  1.0000 0.0334120708
C   C13       1.0  0.81900  0.69690  0.06670  1.0000 0.0334120708
C   C14       1.0  0.69690  0.63020  0.87790  1.0000 0.0334120708
C   C15       1.0  0.63020  0.75230  0.93330  1.0000 0.0334120708
C   C16       1.0  0.75230  0.81900  0.12210  1.0000 0.0334120708
C   C17       1.0  0.87790  0.18100  0.24770  1.0000 0.0334120708
C   C18       1.0  0.81900  0.12210  0.75230  1.0000 0.0334120708
C   C19       1.0  0.18100  0.93330  0.30310  1.0000 0.0334120708
C   C20       1.0  0.36980  0.06670  0.24770  1.0000 0.0334120708
C   C21       1.0  0.63020  0.87790  0.69690  1.0000 0.0334120708
C   C22       1.0  0.12210  0.36980  0.30310  1.0000 0.0334120708
C   C23       1.0  0.93330  0.63020  0.75230  1.0000 0.0334120708
C   C24       1.0  0.06670  0.81900  0.69690  1.0000 0.0334120708
C   C25       1.0  0.24690  0.82860  0.13350  1.0000 -0.1329104024
C   C26       1.0  0.82860  0.69510  0.58170  1.0000 -0.1329104024
C   C27       1.0  0.69510  0.11340  0.86650  1.0000 -0.1329104024
C   C28       1.0  0.11340  0.24690  0.41830  1.0000 -0.1329104024
C   C29       1.0  0.75310  0.88660  0.58170  1.0000 -0.1350138727
C   C30       1.0  0.88660  0.30490  0.13350  1.0000 -0.1329104024
C   C31       1.0  0.30490  0.17140  0.41830  1.0000 -0.1329104024
C   C32       1.0  0.17140  0.75310  0.86650  1.0000 -0.1329104024
C   C33       1.0  0.13350  0.24690  0.82860  1.0000 -0.1350138727
C   C34       1.0  0.24690  0.41830  0.11340  1.0000 -0.1329104024
C   C35       1.0  0.41830  0.30490  0.17140  1.0000 -0.1329104024
C   C36       1.0  0.30490  0.13350  0.88660  1.0000 -0.1329104024
C   C37       1.0  0.86650  0.69510  0.11340  1.0000 -0.1329104024
C   C38       1.0  0.69510  0.58170  0.82860  1.0000 -0.1329104024
C   C39       1.0  0.58170  0.75310  0.88660  1.0000 -0.1329104024
C   C40       1.0  0.75310  0.86650  0.17140  1.0000 -0.1350138727
C   C41       1.0  0.82860  0.13350  0.24690  1.0000 -0.1329104024
C   C42       1.0  0.86650  0.17140  0.75310  1.0000 -0.1329104024
C   C43       1.0  0.13350  0.88660  0.30490  1.0000 -0.1350138727
C   C44       1.0  0.41830  0.11340  0.24690  1.0000 -0.1329104024
C   C45       1.0  0.58170  0.82860  0.69510  1.0000 -0.1329104024
C   C46       1.0  0.17140  0.41830  0.30490  1.0000 -0.1329104024
C   C47       1.0  0.88660  0.58170  0.75310  1.0000 -0.1329104024
C   C48       1.0  0.11340  0.86650  0.69510  1.0000 -0.1329104024
C   C49       1.0  0.30190  0.82670  0.14320  1.0000 -0.1007202812
C   C50       1.0  0.82670  0.68350  0.52480  1.0000 -0.1007202812
C   C51       1.0  0.68350  0.15870  0.85680  1.0000 -0.1007202812
C   C52       1.0  0.15870  0.30190  0.47520  1.0000 -0.1007202812
C   C53       1.0  0.69810  0.84130  0.52480  1.0000 -0.1007202812
C   C54       1.0  0.84130  0.31650  0.14320  1.0000 -0.1007202812
C   C55       1.0  0.31650  0.17330  0.47520  1.0000 -0.1007202812
C   C56       1.0  0.17330  0.69810  0.85680  1.0000 -0.1007202812
C   C57       1.0  0.14320  0.30190  0.82670  1.0000 -0.1007202812
C   C58       1.0  0.30190  0.47520  0.15870  1.0000 -0.1007202812
C   C59       1.0  0.47520  0.31650  0.17330  1.0000 -0.1007202812
C   C60       1.0  0.31650  0.14320  0.84130  1.0000 -0.1007202812
C   C61       1.0  0.85680  0.68350  0.15870  1.0000 -0.1007202812
C   C62       1.0  0.68350  0.52480  0.82670  1.0000 -0.1007202812
C   C63       1.0  0.52480  0.69810  0.84130  1.0000 -0.1007202812
C   C64       1.0  0.69810  0.85680  0.17330  1.0000 -0.1007202812
C   C65       1.0  0.82670  0.14320  0.30190  1.0000 -0.1007202812
C   C66       1.0  0.85680  0.17330  0.69810  1.0000 -0.1007202812
C   C67       1.0  0.14320  0.84130  0.31650  1.0000 -0.1007202812
C   C68       1.0  0.47520  0.15870  0.30190  1.0000 -0.1007202812
C   C69       1.0  0.52480  0.82670  0.68350  1.0000 -0.1007202812
C   C70       1.0  0.17330  0.47520  0.31650  1.0000 -0.1007202812
C   C71       1.0  0.84130  0.52480  0.69810  1.0000 -0.1007202812
C   C72       1.0  0.15870  0.85680  0.68350  1.0000 -0.1007202812
C   C73       1.0  0.35970  0.87530  0.20140  1.0000 -0.0638201446
C   C74       1.0  0.87530  0.67390  0.51560  1.0000 -0.0638201446
C   C75       1.0  0.67390  0.15830  0.79860  1.0000 -0.0638201446
C   C76       1.0  0.15830  0.35970  0.48440  1.0000 -0.0638201446
C   C77       1.0  0.64030  0.84170  0.51560  1.0000 -0.0638201446
C   C78       1.0  0.84170  0.32610  0.20140  1.0000 -0.0638201446
C   C79       1.0  0.32610  0.12470  0.48440  1.0000 -0.0638201446
C   C80       1.0  0.12470  0.64030  0.79860  1.0000 -0.0638201446
C   C81       1.0  0.20140  0.35970  0.87530  1.0000 -0.0638201446
C   C82       1.0  0.35970  0.48440  0.15830  1.0000 -0.0638201446
C   C83       1.0  0.48440  0.32610  0.12470  1.0000 -0.0638201446
C   C84       1.0  0.32610  0.20140  0.84170  1.0000 -0.0638201446
C   C85       1.0  0.79860  0.67390  0.15830  1.0000 -0.0638201446
C   C86       1.0  0.67390  0.51560  0.87530  1.0000 -0.0638201446
C   C87       1.0  0.51560  0.64030  0.84170  1.0000 -0.0638201446
C   C88       1.0  0.64030  0.79860  0.12470  1.0000 -0.0638201446
C   C89       1.0  0.87530  0.20140  0.35970  1.0000 -0.0638201446
C   C90       1.0  0.79860  0.12470  0.64030  1.0000 -0.0638201446
C   C91       1.0  0.20140  0.84170  0.32610  1.0000 -0.0638201446
C   C92       1.0  0.48440  0.15830  0.35970  1.0000 -0.0638201446
C   C93       1.0  0.51560  0.87530  0.67390  1.0000 -0.0638201446
C   C94       1.0  0.12470  0.48440  0.32610  1.0000 -0.0638201446
C   C95       1.0  0.84170  0.51560  0.64030  1.0000 -0.0638201446
C   C96       1.0  0.15830  0.79860  0.67390  1.0000 -0.0638201446
C   C97       1.0  0.35830  0.92330  0.24600  1.0000 0.0245050336
C   C98       1.0  0.92330  0.67730  0.56500  1.0000 0.0245050336
C   C99       1.0  0.67730  0.11230  0.75400  1.0000 0.0245050336
C   C100      1.0  0.11230  0.35830  0.43500  1.0000 0.0245050336
C   C101      1.0  0.64170  0.88770  0.56500  1.0000 0.0245050336
C   C102      1.0  0.88770  0.32270  0.24600  1.0000 0.0245050336
C   C103      1.0  0.32270  0.07670  0.43500  1.0000 0.0245050336
C   C104      1.0  0.07670  0.64170  0.75400  1.0000 0.0245050336
C   C105      1.0  0.24600  0.35830  0.92330  1.0000 0.0245050336
C   C106      1.0  0.35830  0.43500  0.11230  1.0000 0.0245050336
C   C107      1.0  0.43500  0.32270  0.07670  1.0000 0.0245050336
C   C108      1.0  0.32270  0.24600  0.88770  1.0000 0.0245050336
C   C109      1.0  0.75400  0.67730  0.11230  1.0000 0.0245050336
C   C110      1.0  0.67730  0.56500  0.92330  1.0000 0.0245050336
C   C111      1.0  0.56500  0.64170  0.88770  1.0000 0.0245050336
C   C112      1.0  0.64170  0.75400  0.07670  1.0000 0.0245050336
C   C113      1.0  0.92330  0.24600  0.35830  1.0000 0.0245050336
C   C114      1.0  0.75400  0.07670  0.64170  1.0000 0.0245050336
C   C115      1.0  0.24600  0.88770  0.32270  1.0000 0.0245050336
C   C116      1.0  0.43500  0.11230  0.35830  1.0000 0.0334120708
C   C117      1.0  0.56500  0.92330  0.67730  1.0000 0.0245050336
C   C118      1.0  0.07670  0.43500  0.32270  1.0000 0.0245050336
C   C119      1.0  0.88770  0.56500  0.64170  1.0000 0.0245050336
C   C120      1.0  0.11230  0.75400  0.67730  1.0000 0.0245050336
C   C121      1.0  0.42420  0.87800  0.22000  1.0000 0.4473073228
C   C122      1.0  0.87800  0.65800  0.45380  1.0000 0.4473073228
C   C123      1.0  0.65800  0.20420  0.78000  1.0000 0.4473073228
C   C124      1.0  0.20420  0.42420  0.54620  1.0000 0.4473073228
C   C125      1.0  0.57580  0.79580  0.45380  1.0000 0.4473073228
C   C126      1.0  0.79580  0.34200  0.22000  1.0000 0.4473073228
C   C127      1.0  0.34200  0.12200  0.54620  1.0000 0.4473073228
C   C128      1.0  0.12200  0.57580  0.78000  1.0000 0.4473073228
C   C129      1.0  0.22000  0.42420  0.87800  1.0000 0.4473073228
C   C130      1.0  0.42420  0.54620  0.20420  1.0000 0.4473073228
C   C131      1.0  0.54620  0.34200  0.12200  1.0000 0.4473073228
C   C132      1.0  0.34200  0.22000  0.79580  1.0000 0.4473073228
C   C133      1.0  0.78000  0.65800  0.20420  1.0000 0.4473073228
C   C134      1.0  0.65800  0.45380  0.87800  1.0000 0.4473073228
C   C135      1.0  0.45380  0.57580  0.79580  1.0000 0.4473073228
C   C136      1.0  0.57580  0.78000  0.12200  1.0000 0.4473073228
C   C137      1.0  0.87800  0.22000  0.42420  1.0000 0.4473073228
C   C138      1.0  0.78000  0.12200  0.57580  1.0000 0.4473073228
C   C139      1.0  0.22000  0.79580  0.34200  1.0000 0.4473073228
C   C140      1.0  0.54620  0.20420  0.42420  1.0000 0.4473073228
C   C141      1.0  0.45380  0.87800  0.65800  1.0000 0.4473073228
C   C142      1.0  0.12200  0.54620  0.34200  1.0000 0.4473073228
C   C143      1.0  0.79580  0.45380  0.57580  1.0000 0.4473073228
C   C144      1.0  0.20420  0.78000  0.65800  1.0000 0.4473073228
C   C145      1.0  0.50080  0.86480  0.18520  1.0000 -0.1007202812
C   C146      1.0  0.86480  0.67960  0.36400  1.0000 -0.1007202812
C   C147      1.0  0.67960  0.31560  0.81480  1.0000 -0.1007202812
C   C148      1.0  0.31560  0.50080  0.63600  1.0000 -0.1007202812
C   C149      1.0  0.49920  0.68440  0.36400  1.0000 -0.1007202812
C   C150      1.0  0.68440  0.32040  0.18520  1.0000 -0.1007202812
C   C151      1.0  0.32040  0.13520  0.63600  1.0000 -0.1007202812
C   C152      1.0  0.13520  0.49920  0.81480  1.0000 -0.1007202812
C   C153      1.0  0.18520  0.50080  0.86480  1.0000 -0.0920390257
C   C154      1.0  0.50080  0.63600  0.31560  1.0000 -0.0920390257
C   C155      1.0  0.63600  0.32040  0.13520  1.0000 -0.1007202812
C   C156      1.0  0.32040  0.18520  0.68440  1.0000 -0.1007202812
C   C157      1.0  0.81480  0.67960  0.31560  1.0000 -0.1007202812
C   C158      1.0  0.67960  0.36400  0.86480  1.0000 -0.1007202812
C   C159      1.0  0.36400  0.49920  0.68440  1.0000 -0.0920390257
C   C160      1.0  0.49920  0.81480  0.13520  1.0000 -0.1007202812
C   C161      1.0  0.86480  0.18520  0.50080  1.0000 -0.1007202812
C   C162      1.0  0.81480  0.13520  0.49920  1.0000 -0.1007202812
C   C163      1.0  0.18520  0.68440  0.32040  1.0000 -0.1007202812
C   C164      1.0  0.63600  0.31560  0.50080  1.0000 -0.1007202812
C   C165      1.0  0.36400  0.86480  0.67960  1.0000 -0.1007202812
C   C166      1.0  0.13520  0.63600  0.32040  1.0000 -0.1007202812
C   C167      1.0  0.68440  0.36400  0.49920  1.0000 -0.1007202812
C   C168      1.0  0.31560  0.81480  0.67960  1.0000 -0.1007202812
N   N1        1.0  0.30300  0.92540  0.23640  1.0000 -0.1930279346
N   N2        1.0  0.92540  0.68900  0.62240  1.0000 -0.1930279346
N   N3        1.0  0.68900  0.06660  0.76360  1.0000 -0.1930279346
N   N4        1.0  0.06660  0.30300  0.37760  1.0000 -0.1930279346
N   N5        1.0  0.69700  0.93340  0.62240  1.0000 -0.1930279346
N   N6        1.0  0.93340  0.31100  0.23640  1.0000 -0.1930279346
N   N7        1.0  0.31100  0.07460  0.37760  1.0000 -0.1930279346
N   N8        1.0  0.07460  0.69700  0.76360  1.0000 -0.1930279346
N   N9        1.0  0.23640  0.30300  0.92540  1.0000 -0.1930279346
N   N10       1.0  0.30300  0.37760  0.06660  1.0000 -0.1930279346
N   N11       1.0  0.37760  0.31100  0.07460  1.0000 -0.1930279346
N   N12       1.0  0.31100  0.23640  0.93340  1.0000 -0.1930279346
N   N13       1.0  0.76360  0.68900  0.06660  1.0000 -0.1930279346
N   N14       1.0  0.68900  0.62240  0.92540  1.0000 -0.1930279346
N   N15       1.0  0.62240  0.69700  0.93340  1.0000 -0.1930279346
N   N16       1.0  0.69700  0.76360  0.07460  1.0000 -0.1930279346
N   N17       1.0  0.92540  0.23640  0.30300  1.0000 -0.1930279346
N   N18       1.0  0.76360  0.07460  0.69700  1.0000 -0.1930279346
N   N19       1.0  0.23640  0.93340  0.31100  1.0000 -0.1930279346
N   N20       1.0  0.37760  0.06660  0.30300  1.0000 -0.1930279346
N   N21       1.0  0.62240  0.92540  0.68900  1.0000 -0.1930279346
N   N22       1.0  0.07460  0.37760  0.31100  1.0000 -0.1930279346
N   N23       1.0  0.93340  0.62240  0.69700  1.0000 -0.1930279346
N   N24       1.0  0.06660  0.76360  0.68900  1.0000 -0.1930279346
N   N25       1.0  0.43500  0.85230  0.17050  1.0000 -0.3534067411
N   N26       1.0  0.85230  0.68180  0.41730  1.0000 -0.3534067411
N   N27       1.0  0.68180  0.26450  0.82950  1.0000 -0.3534067411
N   N28       1.0  0.26450  0.43500  0.58270  1.0000 -0.3534067411
N   N29       1.0  0.56500  0.73550  0.41730  1.0000 -0.3534067411
N   N30       1.0  0.73550  0.31820  0.17050  1.0000 -0.3534067411
N   N31       1.0  0.31820  0.14770  0.58270  1.0000 -0.3534067411
N   N32       1.0  0.14770  0.56500  0.82950  1.0000 -0.3534067411
N   N33       1.0  0.17050  0.43500  0.85230  1.0000 -0.3534067411
N   N34       1.0  0.43500  0.58270  0.26450  1.0000 -0.3534067411
N   N35       1.0  0.58270  0.31820  0.14770  1.0000 -0.3534067411
N   N36       1.0  0.31820  0.17050  0.73550  1.0000 -0.3534067411
N   N37       1.0  0.82950  0.68180  0.26450  1.0000 -0.3534067411
N   N38       1.0  0.68180  0.41730  0.85230  1.0000 -0.3534067411
N   N39       1.0  0.41730  0.56500  0.73550  1.0000 -0.3534067411
N   N40       1.0  0.56500  0.82950  0.14770  1.0000 -0.3534067411
N   N41       1.0  0.85230  0.17050  0.43500  1.0000 -0.3557959143
N   N42       1.0  0.82950  0.14770  0.56500  1.0000 -0.3534067411
N   N43       1.0  0.17050  0.73550  0.31820  1.0000 -0.3534067411
N   N44       1.0  0.58270  0.26450  0.43500  1.0000 -0.3534067411
N   N45       1.0  0.41730  0.85230  0.68180  1.0000 -0.3534067411
N   N46       1.0  0.14770  0.58270  0.31820  1.0000 -0.3534067411
N   N47       1.0  0.73550  0.41730  0.56500  1.0000 -0.3534067411
N   N48       1.0  0.26450  0.82950  0.68180  1.0000 -0.3534067411
O   O1        1.0  0.46730  0.90570  0.27860  1.0000 -0.5096300933
O   O2        1.0  0.90570  0.62710  0.43840  1.0000 -0.5096300933
O   O3        1.0  0.62710  0.18870  0.72140  1.0000 -0.5096300933
O   O4        1.0  0.18870  0.46730  0.56160  1.0000 -0.5096300933
O   O5        1.0  0.53270  0.81130  0.43840  1.0000 -0.5096300933
O   O6        1.0  0.81130  0.37290  0.27860  1.0000 -0.5096300933
O   O7        1.0  0.37290  0.09430  0.56160  1.0000 -0.5096300933
O   O8        1.0  0.09430  0.53270  0.72140  1.0000 -0.5096300933
O   O9        1.0  0.27860  0.46730  0.90570  1.0000 -0.5096300933
O   O10       1.0  0.46730  0.56160  0.18870  1.0000 -0.5096300933
O   O11       1.0  0.56160  0.37290  0.09430  1.0000 -0.5096300933
O   O12       1.0  0.37290  0.27860  0.81130  1.0000 -0.5096300933
O   O13       1.0  0.72140  0.62710  0.18870  1.0000 -0.5096300933
O   O14       1.0  0.62710  0.43840  0.90570  1.0000 -0.5096300933
O   O15       1.0  0.43840  0.53270  0.81130  1.0000 -0.5096300933
O   O16       1.0  0.53270  0.72140  0.09430  1.0000 -0.5096300933
O   O17       1.0  0.90570  0.27860  0.46730  1.0000 -0.5096300933
O   O18       1.0  0.72140  0.09430  0.53270  1.0000 -0.5096300933
O   O19       1.0  0.27860  0.81130  0.37290  1.0000 -0.5096300933
O   O20       1.0  0.56160  0.18870  0.46730  1.0000 -0.5096300933
O   O21       1.0  0.43840  0.90570  0.62710  1.0000 -0.5096300933
O   O22       1.0  0.09430  0.56160  0.37290  1.0000 -0.5096300933
O   O23       1.0  0.81130  0.43840  0.53270  1.0000 -0.5096300933
O   O24       1.0  0.18870  0.72140  0.62710  1.0000 -0.5096300933
