# DDEC6 charges by PACMAN v1.1 (https://github.com/mtap-research/PACMAN-charge/)
data_2015[Mn][dia]3[ASR]2
_chemical_formula_sum              "Mn4 H52 C60 N24 O2"
_cell_length_a       14.1407
_cell_length_b       14.1407
_cell_length_c       18.506
_cell_angle_alpha    81.1972
_cell_angle_beta     98.8028
_cell_angle_gamma    67.9375

_symmetry_space_group_name_H-M    "P 1"
_symmetry_Int_Tables_number       1

loop_
  _symmetry_equiv_pos_as_xyz
  'x, y, z'

loop_
  _atom_site_type_symbol
  _atom_site_label
  _atom_site_symmetry_multiplicity
  _atom_site_fract_x
  _atom_site_fract_y
  _atom_site_fract_z
  _atom_site_occupancy
  _atom_site_charge
Mn  Mn1       1.0  0.82836  0.03172  0.15768  1.0000 0.5783483264
Mn  Mn2       1.0  0.96828  0.17164  0.65768  1.0000 0.5783483264
Mn  Mn3       1.0  0.18970  0.39110  0.09599  1.0000 0.5594576177
Mn  Mn4       1.0  0.60890  0.81030  0.59599  1.0000 0.5594576177
H   H1        1.0  0.81280  0.21920  0.07040  1.0000 0.2918777493
H   H2        1.0  0.78080  0.18720  0.57040  1.0000 0.2918777493
H   H3        1.0  0.89730  0.14450  0.11940  1.0000 0.2688057897
H   H4        1.0  0.85550  0.10270  0.61940  1.0000 0.2688057897
H   H5        1.0  0.81200  0.65040  0.42290  1.0000 0.1185569485
H   H6        1.0  0.34960  0.18800  0.92290  1.0000 0.1185569485
H   H7        1.0  0.86730  0.63090  0.21810  1.0000 0.1088797529
H   H8        1.0  0.36910  0.13270  0.71810  1.0000 0.1088797529
H   H9        1.0  0.94580  0.36740  0.37570  1.0000 0.1185569485
H   H10       1.0  0.63260  0.05420  0.87570  1.0000 0.1185569485
H   H11       1.0  0.73120  0.82940  0.37930  1.0000 0.1185569485
H   H12       1.0  0.17060  0.26880  0.87930  1.0000 0.1185569485
H   H13       1.0  0.72370  0.99510  0.31480  1.0000 0.1088797529
H   H14       1.0  0.00490  0.27630  0.81480  1.0000 0.1088797529
H   H15       1.0  0.85720  0.79040  0.20390  1.0000 0.0938833905
H   H16       1.0  0.20960  0.14280  0.70390  1.0000 0.0938833905
H   H17       1.0  0.86640  0.56840  0.54460  1.0000 0.1185569485
H   H18       1.0  0.43160  0.13360  0.04460  1.0000 0.1185569485
H   H19       1.0  0.89620  0.43580  0.65380  1.0000 0.1088797529
H   H20       1.0  0.56420  0.10380  0.15380  1.0000 0.1088797529
H   H21       1.0  0.92870  0.29990  0.48800  1.0000 0.1088797529
H   H22       1.0  0.70010  0.07130  0.98800  1.0000 0.1088797529
H   H23       1.0  0.02310  0.52470  0.18740  1.0000 0.1006898935
H   H24       1.0  0.47530  0.97690  0.68740  1.0000 0.1006898935
H   H25       1.0  0.95480  0.28860  0.26210  1.0000 0.1185569485
H   H26       1.0  0.71140  0.04520  0.76210  1.0000 0.1185569485
H   H27       1.0  0.06750  0.24250  0.17450  1.0000 0.1006898935
H   H28       1.0  0.75750  0.93250  0.67450  1.0000 0.1006898935
H   H29       1.0  0.32060  0.82400  0.37140  1.0000 0.1185569485
H   H30       1.0  0.17600  0.67940  0.87140  1.0000 0.1185569485
H   H31       1.0  0.21930  0.70210  0.20900  1.0000 0.1185569485
H   H32       1.0  0.29790  0.78070  0.70900  1.0000 0.1088797529
H   H33       1.0  0.47260  0.51700  0.37370  1.0000 0.131516355
H   H34       1.0  0.48300  0.52740  0.87370  1.0000 0.131516355
H   H35       1.0  0.05530  0.82750  0.20910  1.0000 0.1006898935
H   H36       1.0  0.17250  0.94470  0.70910  1.0000 0.1006898935
H   H37       1.0  0.02110  0.10410  0.23800  1.0000 0.0938833905
H   H38       1.0  0.89590  0.97890  0.73800  1.0000 0.0938833905
H   H39       1.0  0.20350  0.98890  0.29040  1.0000 0.1185569485
H   H40       1.0  0.01110  0.79650  0.79040  1.0000 0.1185569485
H   H41       1.0  0.21420  0.56620  0.17890  1.0000 0.0938833905
H   H42       1.0  0.43380  0.78580  0.67890  1.0000 0.0938833905
H   H43       1.0  0.41660  0.27760  0.24600  1.0000 0.1088797529
H   H44       1.0  0.72240  0.58340  0.74600  1.0000 0.1088797529
H   H45       1.0  0.48420  0.37920  0.31810  1.0000 0.1185569485
H   H46       1.0  0.62080  0.51580  0.81810  1.0000 0.1185569485
H   H47       1.0  0.48200  0.80200  0.43790  1.0000 0.1006898935
H   H48       1.0  0.19800  0.51800  0.93790  1.0000 0.1006898935
H   H49       1.0  0.64260  0.54880  0.59820  1.0000 0.1088797529
H   H50       1.0  0.45120  0.35740  0.09820  1.0000 0.1088797529
H   H51       1.0  0.53810  0.50190  0.50270  1.0000 0.1185569485
H   H52       1.0  0.49810  0.46190  0.00270  1.0000 0.1185569485
C   C1        1.0  0.83670  0.61010  0.38910  1.0000 -0.3010339362
C   C2        1.0  0.38990  0.16330  0.88910  1.0000 -0.3010339362
C   C3        1.0  0.83580  0.65720  0.31740  1.0000 0.1786575717
C   C4        1.0  0.34280  0.16420  0.81740  1.0000 0.1786575717
C   C5        1.0  0.87200  0.59840  0.26700  1.0000 -0.3114167991
C   C6        1.0  0.40160  0.12800  0.76700  1.0000 -0.3114167991
C   C7        1.0  0.91490  0.49110  0.28980  1.0000 0.1720720706
C   C8        1.0  0.50890  0.08510  0.78980  1.0000 0.1720720706
C   C9        1.0  0.91710  0.44010  0.36100  1.0000 -0.2940003398
C   C10       1.0  0.55990  0.08290  0.86100  1.0000 -0.2940003398
C   C11       1.0  0.87510  0.50150  0.40930  1.0000 0.1786575717
C   C12       1.0  0.49850  0.12490  0.90930  1.0000 0.1786575717
C   C13       1.0  0.75610  0.84090  0.33650  1.0000 -0.1594169299
C   C14       1.0  0.15910  0.24390  0.83650  1.0000 -0.1594169299
C   C15       1.0  0.75280  0.93160  0.30090  1.0000 -0.0513051432
C   C16       1.0  0.06840  0.24720  0.80090  1.0000 -0.0513051432
C   C17       1.0  0.82570  0.82050  0.24010  1.0000 -0.009448503
C   C18       1.0  0.17950  0.17430  0.74010  1.0000 -0.009448503
C   C19       1.0  0.87860  0.49880  0.54550  1.0000 -0.1594169299
C   C20       1.0  0.50120  0.12140  0.04550  1.0000 -0.1594169299
C   C21       1.0  0.89580  0.42560  0.60530  1.0000 -0.060657424
C   C22       1.0  0.57440  0.10420  0.10530  1.0000 -0.060657424
C   C23       1.0  0.91130  0.35150  0.51520  1.0000 0.0407735919
C   C24       1.0  0.64850  0.08870  0.01520  1.0000 0.0407735919
C   C25       1.0  0.02060  0.45920  0.19510  1.0000 0.0199173865
C   C26       1.0  0.54080  0.97940  0.69510  1.0000 0.0199173865
C   C27       1.0  0.98180  0.33100  0.23680  1.0000 -0.1898036472
C   C28       1.0  0.66900  0.01820  0.73680  1.0000 -0.1898036472
C   C29       1.0  0.04440  0.30660  0.18830  1.0000 -0.060657424
C   C30       1.0  0.69340  0.95560  0.68830  1.0000 -0.060657424
C   C31       1.0  0.32720  0.76700  0.35020  1.0000 -0.3010339362
C   C32       1.0  0.23300  0.67280  0.85020  1.0000 -0.3114167991
C   C33       1.0  0.25580  0.77600  0.28590  1.0000 0.1786575717
C   C34       1.0  0.22400  0.74420  0.78590  1.0000 0.1786575717
C   C35       1.0  0.26550  0.69310  0.25360  1.0000 -0.3114167991
C   C36       1.0  0.30690  0.73450  0.75360  1.0000 -0.3114167991
C   C37       1.0  0.34480  0.59600  0.28780  1.0000 0.1720720706
C   C38       1.0  0.40400  0.65520  0.78780  1.0000 0.1720720706
C   C39       1.0  0.41840  0.58240  0.35160  1.0000 -0.2685887438
C   C40       1.0  0.41760  0.58160  0.85160  1.0000 -0.280594872
C   C41       1.0  0.40920  0.66820  0.38160  1.0000 0.1786575717
C   C42       1.0  0.33180  0.59080  0.88160  1.0000 0.1786575717
C   C43       1.0  0.06920  0.88240  0.22290  1.0000 0.0134110725
C   C44       1.0  0.11760  0.93080  0.72290  1.0000 0.0134110725
C   C45       1.0  0.05130  0.03290  0.23910  1.0000 -0.094208655
C   C46       1.0  0.96710  0.94870  0.73910  1.0000 -0.094208655
C   C47       1.0  0.15210  0.97010  0.26760  1.0000 -0.1315950724
C   C48       1.0  0.02990  0.84790  0.76760  1.0000 -0.1315950724
C   C49       1.0  0.27340  0.50640  0.20470  1.0000 0.0134110725
C   C50       1.0  0.49360  0.72660  0.70470  1.0000 0.0134110725
C   C51       1.0  0.38360  0.34960  0.24120  1.0000 -0.0513051432
C   C52       1.0  0.65040  0.61640  0.74120  1.0000 -0.0513051432
C   C53       1.0  0.42190  0.40490  0.28170  1.0000 -0.1538481611
C   C54       1.0  0.59510  0.57810  0.78170  1.0000 -0.1538481611
C   C55       1.0  0.50940  0.73360  0.46640  1.0000 -0.0408565822
C   C56       1.0  0.26640  0.49060  0.96640  1.0000 -0.0408565822
C   C57       1.0  0.59750  0.59410  0.55370  1.0000 -0.060657424
C   C58       1.0  0.40590  0.40250  0.05370  1.0000 -0.060657424
C   C59       1.0  0.53910  0.56750  0.50160  1.0000 -0.1898036472
C   C60       1.0  0.43250  0.46090  0.00160  1.0000 -0.1820036593
N   N1        1.0  0.79800  0.91860  0.24150  1.0000 -0.2685887438
N   N2        1.0  0.08140  0.20200  0.74150  1.0000 -0.2685887438
N   N3        1.0  0.80340  0.76700  0.29760  1.0000 -0.0012625559
N   N4        1.0  0.23300  0.19660  0.79760  1.0000 -0.0012625559
N   N5        1.0  0.06970  0.38630  0.16210  1.0000 -0.2606225657
N   N6        1.0  0.61370  0.93030  0.66210  1.0000 -0.2606225657
N   N7        1.0  0.96650  0.43130  0.24090  1.0000 0.0031394849
N   N8        1.0  0.56870  0.03350  0.74090  1.0000 0.0031394849
N   N9        1.0  0.91280  0.33240  0.58550  1.0000 -0.280594872
N   N10       1.0  0.66760  0.08720  0.08550  1.0000 -0.280594872
N   N11       1.0  0.88210  0.45350  0.48490  1.0000 -0.0157137379
N   N12       1.0  0.54650  0.11790  0.98490  1.0000 -0.009448503
N   N13       1.0  0.99870  0.97690  0.21150  1.0000 -0.280594872
N   N14       1.0  0.02310  0.00130  0.71150  1.0000 -0.280594872
N   N15       1.0  0.16580  0.87240  0.25710  1.0000 0.0031394849
N   N16       1.0  0.12760  0.83420  0.75710  1.0000 0.0031394849
N   N17       1.0  0.29110  0.41330  0.19300  1.0000 -0.2514269325
N   N18       1.0  0.58670  0.70890  0.69300  1.0000 -0.2514269325
N   N19       1.0  0.34900  0.50740  0.25770  1.0000 -0.009448503
N   N20       1.0  0.49260  0.65100  0.75770  1.0000 -0.009448503
N   N21       1.0  0.58020  0.69780  0.53110  1.0000 -0.280594872
N   N22       1.0  0.30220  0.41980  0.03110  1.0000 -0.280594872
N   N23       1.0  0.48270  0.65670  0.44770  1.0000 0.0031394849
N   N24       1.0  0.34330  0.51730  0.94770  1.0000 0.0031394849
O   O1        1.0  0.84210  0.15410  0.07620  1.0000 -0.6506502154
O   O2        1.0  0.84590  0.15790  0.57620  1.0000 -0.6506502154
