# DDEC6 charges by PACMAN v1.1 (https://github.com/mtap-research/PACMAN-charge/)
data_2015[Cu][gfy]3[ASR]1
_chemical_formula_sum              "Cu12 H186 C138 Br2 N60"
_cell_length_a       19.003
_cell_length_b       19.003
_cell_length_c       16.916
_cell_angle_alpha    90
_cell_angle_beta     90
_cell_angle_gamma    120

_symmetry_space_group_name_H-M    "P 1"
_symmetry_Int_Tables_number       1

loop_
  _symmetry_equiv_pos_as_xyz
  'x, y, z'

loop_
  _atom_site_type_symbol
  _atom_site_label
  _atom_site_symmetry_multiplicity
  _atom_site_fract_x
  _atom_site_fract_y
  _atom_site_fract_z
  _atom_site_occupancy
  _atom_site_charge
Cu  Cu1       1.0  0.66925  0.66699  0.75000  1.0000 0.254194303
Cu  Cu2       1.0  0.00226  0.66925  0.25000  1.0000 0.254194303
Cu  Cu3       1.0  0.33301  0.00226  0.75000  1.0000 0.254194303
Cu  Cu4       1.0  0.33075  0.33301  0.25000  1.0000 0.254194303
Cu  Cu5       1.0  0.99774  0.33075  0.75000  1.0000 0.254194303
Cu  Cu6       1.0  0.66699  0.99774  0.25000  1.0000 0.254194303
Cu  Cu7       1.0  0.54767  0.36660  0.75000  1.0000 0.3507861779
Cu  Cu8       1.0  0.18107  0.54767  0.25000  1.0000 0.3507861779
Cu  Cu9       1.0  0.63340  0.18107  0.75000  1.0000 0.3507861779
Cu  Cu10      1.0  0.45233  0.63340  0.25000  1.0000 0.3507861779
Cu  Cu11      1.0  0.81893  0.45233  0.75000  1.0000 0.3507861779
Cu  Cu12      1.0  0.36660  0.81893  0.25000  1.0000 0.3507861779
H   H1        1.0  0.50703  0.20763  0.66190  1.0000 0.2699770094
H   H2        1.0  0.29940  0.50703  0.16190  1.0000 0.2699770094
H   H3        1.0  0.79237  0.29940  0.66190  1.0000 0.2699770094
H   H4        1.0  0.49297  0.79237  0.16190  1.0000 0.2699770094
H   H5        1.0  0.70060  0.49297  0.66190  1.0000 0.2699770094
H   H6        1.0  0.20763  0.70060  0.16190  1.0000 0.2699770094
H   H7        1.0  0.49297  0.79237  0.33810  1.0000 0.2699770094
H   H8        1.0  0.70060  0.49297  0.83810  1.0000 0.2699770094
H   H9        1.0  0.20763  0.70060  0.33810  1.0000 0.2699770094
H   H10       1.0  0.50703  0.20763  0.83810  1.0000 0.2699770094
H   H11       1.0  0.29940  0.50703  0.33810  1.0000 0.2699770094
H   H12       1.0  0.79237  0.29940  0.83810  1.0000 0.2699770094
H   H13       1.0  0.23563  0.17423  0.35120  1.0000 0.2699770094
H   H14       1.0  0.06140  0.23563  0.85120  1.0000 0.2699770094
H   H15       1.0  0.82577  0.06140  0.35120  1.0000 0.2699770094
H   H16       1.0  0.76437  0.82577  0.85120  1.0000 0.2699770094
H   H17       1.0  0.93860  0.76437  0.35120  1.0000 0.2699770094
H   H18       1.0  0.17423  0.93860  0.85120  1.0000 0.2699770094
H   H19       1.0  0.76437  0.82577  0.64880  1.0000 0.2699770094
H   H20       1.0  0.93860  0.76437  0.14880  1.0000 0.2699770094
H   H21       1.0  0.17423  0.93860  0.64880  1.0000 0.2699770094
H   H22       1.0  0.23563  0.17423  0.14880  1.0000 0.2699770094
H   H23       1.0  0.06140  0.23563  0.64880  1.0000 0.2699770094
H   H24       1.0  0.82577  0.06140  0.14880  1.0000 0.2699770094
H   H25       1.0  0.18673  0.09113  0.47440  1.0000 0.1412780565
H   H26       1.0  0.09560  0.18673  0.97440  1.0000 0.1412780565
H   H27       1.0  0.90887  0.09560  0.47440  1.0000 0.1412780565
H   H28       1.0  0.81327  0.90887  0.97440  1.0000 0.1412780565
H   H29       1.0  0.90440  0.81327  0.47440  1.0000 0.1412780565
H   H30       1.0  0.09113  0.90440  0.97440  1.0000 0.1412780565
H   H31       1.0  0.81327  0.90887  0.52560  1.0000 0.1412780565
H   H32       1.0  0.90440  0.81327  0.02560  1.0000 0.1412780565
H   H33       1.0  0.09113  0.90440  0.52560  1.0000 0.1412780565
H   H34       1.0  0.18673  0.09113  0.02560  1.0000 0.1412780565
H   H35       1.0  0.09560  0.18673  0.52560  1.0000 0.1412780565
H   H36       1.0  0.90887  0.09560  0.02560  1.0000 0.1412780565
H   H37       1.0  0.25053  0.11073  0.54180  1.0000 0.1498673394
H   H38       1.0  0.13980  0.25053  0.04180  1.0000 0.1498673394
H   H39       1.0  0.88927  0.13980  0.54180  1.0000 0.1498673394
H   H40       1.0  0.74947  0.88927  0.04180  1.0000 0.1498673394
H   H41       1.0  0.86020  0.74947  0.54180  1.0000 0.1498673394
H   H42       1.0  0.11073  0.86020  0.04180  1.0000 0.1498673394
H   H43       1.0  0.74947  0.88927  0.45820  1.0000 0.1498673394
H   H44       1.0  0.86020  0.74947  0.95820  1.0000 0.1498673394
H   H45       1.0  0.11073  0.86020  0.45820  1.0000 0.1498673394
H   H46       1.0  0.25053  0.11073  0.95820  1.0000 0.1498673394
H   H47       1.0  0.13980  0.25053  0.45820  1.0000 0.1498673394
H   H48       1.0  0.88927  0.13980  0.95820  1.0000 0.1498673394
H   H49       1.0  0.25093  0.06263  0.46660  1.0000 0.1498673394
H   H50       1.0  0.18830  0.25093  0.96660  1.0000 0.1498673394
H   H51       1.0  0.93737  0.18830  0.46660  1.0000 0.1498673394
H   H52       1.0  0.74907  0.93737  0.96660  1.0000 0.1498673394
H   H53       1.0  0.81170  0.74907  0.46660  1.0000 0.1498673394
H   H54       1.0  0.06263  0.81170  0.96660  1.0000 0.1498673394
H   H55       1.0  0.74907  0.93737  0.53340  1.0000 0.1498673394
H   H56       1.0  0.81170  0.74907  0.03340  1.0000 0.1498673394
H   H57       1.0  0.06263  0.81170  0.53340  1.0000 0.1498673394
H   H58       1.0  0.25093  0.06263  0.03340  1.0000 0.1498673394
H   H59       1.0  0.18830  0.25093  0.53340  1.0000 0.1498673394
H   H60       1.0  0.93737  0.18830  0.03340  1.0000 0.1498673394
H   H61       1.0  0.45093  0.09453  0.57050  1.0000 0.1498673394
H   H62       1.0  0.35640  0.45093  0.07050  1.0000 0.1498673394
H   H63       1.0  0.90547  0.35640  0.57050  1.0000 0.1498673394
H   H64       1.0  0.54907  0.90547  0.07050  1.0000 0.1498673394
H   H65       1.0  0.64360  0.54907  0.57050  1.0000 0.1498673394
H   H66       1.0  0.09453  0.64360  0.07050  1.0000 0.1498673394
H   H67       1.0  0.54907  0.90547  0.42950  1.0000 0.1498673394
H   H68       1.0  0.64360  0.54907  0.92950  1.0000 0.1498673394
H   H69       1.0  0.09453  0.64360  0.42950  1.0000 0.1498673394
H   H70       1.0  0.45093  0.09453  0.92950  1.0000 0.1498673394
H   H71       1.0  0.35640  0.45093  0.42950  1.0000 0.1498673394
H   H72       1.0  0.90547  0.35640  0.92950  1.0000 0.1498673394
H   H73       1.0  0.47343  0.13583  0.48700  1.0000 0.1498673394
H   H74       1.0  0.33760  0.47343  0.98700  1.0000 0.1498673394
H   H75       1.0  0.86417  0.33760  0.48700  1.0000 0.1498673394
H   H76       1.0  0.52657  0.86417  0.98700  1.0000 0.1498673394
H   H77       1.0  0.66240  0.52657  0.48700  1.0000 0.1498673394
H   H78       1.0  0.13583  0.66240  0.98700  1.0000 0.1498673394
H   H79       1.0  0.52657  0.86417  0.51300  1.0000 0.1498673394
H   H80       1.0  0.66240  0.52657  0.01300  1.0000 0.1498673394
H   H81       1.0  0.13583  0.66240  0.51300  1.0000 0.1498673394
H   H82       1.0  0.47343  0.13583  0.01300  1.0000 0.1498673394
H   H83       1.0  0.33760  0.47343  0.51300  1.0000 0.1498673394
H   H84       1.0  0.86417  0.33760  0.01300  1.0000 0.1498673394
H   H85       1.0  0.38243  0.08783  0.51410  1.0000 0.1412780565
H   H86       1.0  0.29460  0.38243  0.01410  1.0000 0.1412780565
H   H87       1.0  0.91217  0.29460  0.51410  1.0000 0.1412780565
H   H88       1.0  0.61757  0.91217  0.01410  1.0000 0.1412780565
H   H89       1.0  0.70540  0.61757  0.51410  1.0000 0.1412780565
H   H90       1.0  0.08783  0.70540  0.01410  1.0000 0.1412780565
H   H91       1.0  0.61757  0.91217  0.48590  1.0000 0.1412780565
H   H92       1.0  0.70540  0.61757  0.98590  1.0000 0.1412780565
H   H93       1.0  0.08783  0.70540  0.48590  1.0000 0.1412780565
H   H94       1.0  0.38243  0.08783  0.98590  1.0000 0.1412780565
H   H95       1.0  0.29460  0.38243  0.48590  1.0000 0.1412780565
H   H96       1.0  0.91217  0.29460  0.98590  1.0000 0.1412780565
H   H97       1.0  0.45483  0.41173  0.64950  1.0000 0.1498673394
H   H98       1.0  0.04310  0.45483  0.14950  1.0000 0.1498673394
H   H99       1.0  0.58827  0.04310  0.64950  1.0000 0.1498673394
H   H100      1.0  0.54517  0.58827  0.14950  1.0000 0.1498673394
H   H101      1.0  0.95690  0.54517  0.64950  1.0000 0.1498673394
H   H102      1.0  0.41173  0.95690  0.14950  1.0000 0.1498673394
H   H103      1.0  0.54517  0.58827  0.35050  1.0000 0.1498673394
H   H104      1.0  0.95690  0.54517  0.85050  1.0000 0.1498673394
H   H105      1.0  0.41173  0.95690  0.35050  1.0000 0.1498673394
H   H106      1.0  0.45483  0.41173  0.85050  1.0000 0.1498673394
H   H107      1.0  0.04310  0.45483  0.35050  1.0000 0.1498673394
H   H108      1.0  0.58827  0.04310  0.85050  1.0000 0.1498673394
H   H109      1.0  0.38103  0.36833  0.59130  1.0000 0.1412780565
H   H110      1.0  0.01270  0.38103  0.09130  1.0000 0.1412780565
H   H111      1.0  0.63167  0.01270  0.59130  1.0000 0.1412780565
H   H112      1.0  0.61897  0.63167  0.09130  1.0000 0.1412780565
H   H113      1.0  0.98730  0.61897  0.59130  1.0000 0.1412780565
H   H114      1.0  0.36833  0.98730  0.09130  1.0000 0.1412780565
H   H115      1.0  0.61897  0.63167  0.40870  1.0000 0.1412780565
H   H116      1.0  0.98730  0.61897  0.90870  1.0000 0.1412780565
H   H117      1.0  0.36833  0.98730  0.40870  1.0000 0.1412780565
H   H118      1.0  0.38103  0.36833  0.90870  1.0000 0.1412780565
H   H119      1.0  0.01270  0.38103  0.40870  1.0000 0.1412780565
H   H120      1.0  0.63167  0.01270  0.90870  1.0000 0.1412780565
H   H121      1.0  0.46893  0.42383  0.55800  1.0000 0.1412780565
H   H122      1.0  0.04510  0.46893  0.05800  1.0000 0.1412780565
H   H123      1.0  0.57617  0.04510  0.55800  1.0000 0.1412780565
H   H124      1.0  0.53107  0.57617  0.05800  1.0000 0.1412780565
H   H125      1.0  0.95490  0.53107  0.55800  1.0000 0.1412780565
H   H126      1.0  0.42383  0.95490  0.05800  1.0000 0.1412780565
H   H127      1.0  0.53107  0.57617  0.44200  1.0000 0.1412780565
H   H128      1.0  0.95490  0.53107  0.94200  1.0000 0.1412780565
H   H129      1.0  0.42383  0.95490  0.44200  1.0000 0.1412780565
H   H130      1.0  0.46893  0.42383  0.94200  1.0000 0.1412780565
H   H131      1.0  0.04510  0.46893  0.44200  1.0000 0.1412780565
H   H132      1.0  0.57617  0.04510  0.94200  1.0000 0.1412780565
H   H133      1.0  0.47483  0.42273  0.41040  1.0000 0.1412780565
H   H134      1.0  0.05210  0.47483  0.91040  1.0000 0.1412780565
H   H135      1.0  0.57727  0.05210  0.41040  1.0000 0.1412780565
H   H136      1.0  0.52517  0.57727  0.91040  1.0000 0.1412780565
H   H137      1.0  0.94790  0.52517  0.41040  1.0000 0.1412780565
H   H138      1.0  0.42273  0.94790  0.91040  1.0000 0.1412780565
H   H139      1.0  0.52517  0.57727  0.58960  1.0000 0.1412780565
H   H140      1.0  0.94790  0.52517  0.08960  1.0000 0.1412780565
H   H141      1.0  0.42273  0.94790  0.58960  1.0000 0.1412780565
H   H142      1.0  0.47483  0.42273  0.08960  1.0000 0.1412780565
H   H143      1.0  0.05210  0.47483  0.58960  1.0000 0.1412780565
H   H144      1.0  0.57727  0.05210  0.08960  1.0000 0.1412780565
H   H145      1.0  0.49213  0.38583  0.33500  1.0000 0.1498673394
H   H146      1.0  0.10630  0.49213  0.83500  1.0000 0.1498673394
H   H147      1.0  0.61417  0.10630  0.33500  1.0000 0.1498673394
H   H148      1.0  0.50787  0.61417  0.83500  1.0000 0.1498673394
H   H149      1.0  0.89370  0.50787  0.33500  1.0000 0.1498673394
H   H150      1.0  0.38583  0.89370  0.83500  1.0000 0.1498673394
H   H151      1.0  0.50787  0.61417  0.66500  1.0000 0.1498673394
H   H152      1.0  0.89370  0.50787  0.16500  1.0000 0.1498673394
H   H153      1.0  0.38583  0.89370  0.66500  1.0000 0.1498673394
H   H154      1.0  0.49213  0.38583  0.16500  1.0000 0.1498673394
H   H155      1.0  0.10630  0.49213  0.66500  1.0000 0.1498673394
H   H156      1.0  0.61417  0.10630  0.16500  1.0000 0.1498673394
H   H157      1.0  0.52183  0.37483  0.41810  1.0000 0.1498673394
H   H158      1.0  0.14700  0.52183  0.91810  1.0000 0.1498673394
H   H159      1.0  0.62517  0.14700  0.41810  1.0000 0.1498673394
H   H160      1.0  0.47817  0.62517  0.91810  1.0000 0.1498673394
H   H161      1.0  0.85300  0.47817  0.41810  1.0000 0.1498673394
H   H162      1.0  0.37483  0.85300  0.91810  1.0000 0.1498673394
H   H163      1.0  0.47817  0.62517  0.58190  1.0000 0.1498673394
H   H164      1.0  0.85300  0.47817  0.08190  1.0000 0.1498673394
H   H165      1.0  0.37483  0.85300  0.58190  1.0000 0.1498673394
H   H166      1.0  0.52183  0.37483  0.08190  1.0000 0.1498673394
H   H167      1.0  0.14700  0.52183  0.58190  1.0000 0.1498673394
H   H168      1.0  0.62517  0.14700  0.08190  1.0000 0.1498673394
H   H169      1.0  0.97763  0.78333  0.75000  1.0000 0.1412780565
H   H170      1.0  0.19430  0.97763  0.25000  1.0000 0.1412780565
H   H171      1.0  0.21667  0.19430  0.75000  1.0000 0.1412780565
H   H172      1.0  0.02237  0.21667  0.25000  1.0000 0.1412780565
H   H173      1.0  0.80570  0.02237  0.75000  1.0000 0.1412780565
H   H174      1.0  0.78333  0.80570  0.25000  1.0000 0.1412780565
H   H175      1.0  0.94533  0.70143  0.70370  1.0000 0.1682256049
H   H176      1.0  0.24390  0.94533  0.20370  1.0000 0.1682256049
H   H177      1.0  0.29857  0.24390  0.70370  1.0000 0.1682256049
H   H178      1.0  0.05467  0.29857  0.20370  1.0000 0.1682256049
H   H179      1.0  0.75610  0.05467  0.70370  1.0000 0.1682256049
H   H180      1.0  0.70143  0.75610  0.20370  1.0000 0.1682256049
H   H181      1.0  0.05467  0.29857  0.29630  1.0000 0.1682256049
H   H182      1.0  0.75610  0.05467  0.79630  1.0000 0.1682256049
H   H183      1.0  0.70143  0.75610  0.29630  1.0000 0.1682256049
H   H184      1.0  0.94533  0.70143  0.79630  1.0000 0.1682256049
H   H185      1.0  0.24390  0.94533  0.29630  1.0000 0.1682256049
H   H186      1.0  0.29857  0.24390  0.79630  1.0000 0.1682256049
C   C1        1.0  0.61823  0.55363  0.75000  1.0000 -0.1141221984
C   C2        1.0  0.06460  0.61823  0.25000  1.0000 -0.1141221984
C   C3        1.0  0.44637  0.06460  0.75000  1.0000 -0.1141221984
C   C4        1.0  0.38177  0.44637  0.25000  1.0000 -0.1141221984
C   C5        1.0  0.93540  0.38177  0.75000  1.0000 -0.1141221984
C   C6        1.0  0.55363  0.93540  0.25000  1.0000 -0.1141221984
C   C7        1.0  0.37413  0.24423  0.46620  1.0000 -0.1285044738
C   C8        1.0  0.12990  0.37413  0.96620  1.0000 -0.1285044738
C   C9        1.0  0.75577  0.12990  0.46620  1.0000 -0.1285044738
C   C10       1.0  0.62587  0.75577  0.96620  1.0000 -0.1285044738
C   C11       1.0  0.87010  0.62587  0.46620  1.0000 -0.1285044738
C   C12       1.0  0.24423  0.87010  0.96620  1.0000 -0.1285044738
C   C13       1.0  0.62587  0.75577  0.53380  1.0000 -0.1285044738
C   C14       1.0  0.87010  0.62587  0.03380  1.0000 -0.1285044738
C   C15       1.0  0.24423  0.87010  0.53380  1.0000 -0.1285044738
C   C16       1.0  0.37413  0.24423  0.03380  1.0000 -0.1285044738
C   C17       1.0  0.12990  0.37413  0.53380  1.0000 -0.1285044738
C   C18       1.0  0.75577  0.12990  0.03380  1.0000 -0.1285044738
C   C19       1.0  0.29833  0.18233  0.44620  1.0000 0.1682256049
C   C20       1.0  0.11600  0.29833  0.94620  1.0000 0.1682256049
C   C21       1.0  0.81767  0.11600  0.44620  1.0000 0.1682256049
C   C22       1.0  0.70167  0.81767  0.94620  1.0000 0.1682256049
C   C23       1.0  0.88400  0.70167  0.44620  1.0000 0.1682256049
C   C24       1.0  0.18233  0.88400  0.94620  1.0000 0.1682256049
C   C25       1.0  0.70167  0.81767  0.55380  1.0000 0.1682256049
C   C26       1.0  0.88400  0.70167  0.05380  1.0000 0.1682256049
C   C27       1.0  0.18233  0.88400  0.55380  1.0000 0.1682256049
C   C28       1.0  0.29833  0.18233  0.05380  1.0000 0.1682256049
C   C29       1.0  0.11600  0.29833  0.55380  1.0000 0.1682256049
C   C30       1.0  0.81767  0.11600  0.05380  1.0000 0.1682256049
C   C31       1.0  0.24163  0.10483  0.48570  1.0000 -0.4918001039
C   C32       1.0  0.13680  0.24163  0.98570  1.0000 -0.4918001039
C   C33       1.0  0.89517  0.13680  0.48570  1.0000 -0.4918001039
C   C34       1.0  0.75837  0.89517  0.98570  1.0000 -0.4918001039
C   C35       1.0  0.86320  0.75837  0.48570  1.0000 -0.4918001039
C   C36       1.0  0.10483  0.86320  0.98570  1.0000 -0.4918001039
C   C37       1.0  0.75837  0.89517  0.51430  1.0000 -0.4918001039
C   C38       1.0  0.86320  0.75837  0.01430  1.0000 -0.4918001039
C   C39       1.0  0.10483  0.86320  0.51430  1.0000 -0.4918001039
C   C40       1.0  0.24163  0.10483  0.01430  1.0000 -0.4918001039
C   C41       1.0  0.13680  0.24163  0.51430  1.0000 -0.4918001039
C   C42       1.0  0.89517  0.13680  0.01430  1.0000 -0.4918001039
C   C43       1.0  0.40093  0.30093  0.40200  1.0000 0.2137142778
C   C44       1.0  0.10000  0.40093  0.90200  1.0000 0.2137142778
C   C45       1.0  0.69907  0.10000  0.40200  1.0000 0.2137142778
C   C46       1.0  0.59907  0.69907  0.90200  1.0000 0.2137142778
C   C47       1.0  0.90000  0.59907  0.40200  1.0000 0.2137142778
C   C48       1.0  0.30093  0.90000  0.90200  1.0000 0.2137142778
C   C49       1.0  0.59907  0.69907  0.59800  1.0000 0.2137142778
C   C50       1.0  0.90000  0.59907  0.09800  1.0000 0.2137142778
C   C51       1.0  0.30093  0.90000  0.59800  1.0000 0.2137142778
C   C52       1.0  0.40093  0.30093  0.09800  1.0000 0.2137142778
C   C53       1.0  0.10000  0.40093  0.59800  1.0000 0.2137142778
C   C54       1.0  0.69907  0.10000  0.09800  1.0000 0.2137142778
C   C55       1.0  0.42143  0.25143  0.53830  1.0000 -0.1285044738
C   C56       1.0  0.17000  0.42143  0.03830  1.0000 -0.1285044738
C   C57       1.0  0.74857  0.17000  0.53830  1.0000 -0.1285044738
C   C58       1.0  0.57857  0.74857  0.03830  1.0000 -0.1285044738
C   C59       1.0  0.83000  0.57857  0.53830  1.0000 -0.1285044738
C   C60       1.0  0.25143  0.83000  0.03830  1.0000 -0.1285044738
C   C61       1.0  0.57857  0.74857  0.46170  1.0000 -0.1285044738
C   C62       1.0  0.83000  0.57857  0.96170  1.0000 -0.1285044738
C   C63       1.0  0.25143  0.83000  0.46170  1.0000 -0.1285044738
C   C64       1.0  0.42143  0.25143  0.96170  1.0000 -0.1285044738
C   C65       1.0  0.17000  0.42143  0.46170  1.0000 -0.1285044738
C   C66       1.0  0.74857  0.17000  0.96170  1.0000 -0.1285044738
C   C67       1.0  0.44563  0.19763  0.56560  1.0000 0.1918407088
C   C68       1.0  0.24800  0.44563  0.06560  1.0000 0.1918407088
C   C69       1.0  0.80237  0.24800  0.56560  1.0000 0.1918407088
C   C70       1.0  0.55437  0.80237  0.06560  1.0000 0.1918407088
C   C71       1.0  0.75200  0.55437  0.56560  1.0000 0.1918407088
C   C72       1.0  0.19763  0.75200  0.06560  1.0000 0.1918407088
C   C73       1.0  0.55437  0.80237  0.43440  1.0000 0.1918407088
C   C74       1.0  0.75200  0.55437  0.93440  1.0000 0.1918407088
C   C75       1.0  0.19763  0.75200  0.43440  1.0000 0.1918407088
C   C76       1.0  0.44563  0.19763  0.93440  1.0000 0.1918407088
C   C77       1.0  0.24800  0.44563  0.43440  1.0000 0.1918407088
C   C78       1.0  0.80237  0.24800  0.93440  1.0000 0.1918407088
C   C79       1.0  0.44973  0.31433  0.59530  1.0000 0.1918407088
C   C80       1.0  0.13540  0.44973  0.09530  1.0000 0.1918407088
C   C81       1.0  0.68567  0.13540  0.59530  1.0000 0.1918407088
C   C82       1.0  0.55027  0.68567  0.09530  1.0000 0.1918407088
C   C83       1.0  0.86460  0.55027  0.59530  1.0000 0.1918407088
C   C84       1.0  0.31433  0.86460  0.09530  1.0000 0.1918407088
C   C85       1.0  0.55027  0.68567  0.40470  1.0000 0.1918407088
C   C86       1.0  0.86460  0.55027  0.90470  1.0000 0.1918407088
C   C87       1.0  0.31433  0.86460  0.40470  1.0000 0.1918407088
C   C88       1.0  0.44973  0.31433  0.90470  1.0000 0.1918407088
C   C89       1.0  0.13540  0.44973  0.40470  1.0000 0.1918407088
C   C90       1.0  0.68567  0.13540  0.90470  1.0000 0.1918407088
C   C91       1.0  0.85273  0.71503  0.75000  1.0000 0.3698427068
C   C92       1.0  0.13770  0.85273  0.25000  1.0000 0.3698427068
C   C93       1.0  0.28497  0.13770  0.75000  1.0000 0.3698427068
C   C94       1.0  0.14727  0.28497  0.25000  1.0000 0.3698427068
C   C95       1.0  0.86230  0.14727  0.75000  1.0000 0.3698427068
C   C96       1.0  0.71503  0.86230  0.25000  1.0000 0.3698427068
C   C97       1.0  0.43743  0.12233  0.53130  1.0000 -0.4918001039
C   C98       1.0  0.31510  0.43743  0.03130  1.0000 -0.4918001039
C   C99       1.0  0.87767  0.31510  0.53130  1.0000 -0.4958461255
C   C100      1.0  0.56257  0.87767  0.03130  1.0000 -0.4958461255
C   C101      1.0  0.68490  0.56257  0.53130  1.0000 -0.4958461255
C   C102      1.0  0.12233  0.68490  0.03130  1.0000 -0.4958461255
C   C103      1.0  0.56257  0.87767  0.46870  1.0000 -0.4958461255
C   C104      1.0  0.68490  0.56257  0.96870  1.0000 -0.4958461255
C   C105      1.0  0.12233  0.68490  0.46870  1.0000 -0.4918001039
C   C106      1.0  0.43743  0.12233  0.96870  1.0000 -0.4918001039
C   C107      1.0  0.31510  0.43743  0.46870  1.0000 -0.4918001039
C   C108      1.0  0.87767  0.31510  0.96870  1.0000 -0.4918001039
C   C109      1.0  0.43753  0.38593  0.59880  1.0000 -0.4958461255
C   C110      1.0  0.05160  0.43753  0.09880  1.0000 -0.4958461255
C   C111      1.0  0.61407  0.05160  0.59880  1.0000 -0.4958461255
C   C112      1.0  0.56247  0.61407  0.09880  1.0000 -0.4958461255
C   C113      1.0  0.94840  0.56247  0.59880  1.0000 -0.4958461255
C   C114      1.0  0.38593  0.94840  0.09880  1.0000 -0.4958461255
C   C115      1.0  0.56247  0.61407  0.40120  1.0000 -0.4958461255
C   C116      1.0  0.94840  0.56247  0.90120  1.0000 -0.4958461255
C   C117      1.0  0.38593  0.94840  0.40120  1.0000 -0.4958461255
C   C118      1.0  0.43753  0.38593  0.90120  1.0000 -0.4958461255
C   C119      1.0  0.05160  0.43753  0.40120  1.0000 -0.4958461255
C   C120      1.0  0.61407  0.05160  0.90120  1.0000 -0.4958461255
C   C121      1.0  0.47943  0.37793  0.39040  1.0000 -0.4918001039
C   C122      1.0  0.10150  0.47943  0.89040  1.0000 -0.4918001039
C   C123      1.0  0.62207  0.10150  0.39040  1.0000 -0.4918001039
C   C124      1.0  0.52057  0.62207  0.89040  1.0000 -0.4918001039
C   C125      1.0  0.89850  0.52057  0.39040  1.0000 -0.4918001039
C   C126      1.0  0.37793  0.89850  0.89040  1.0000 -0.4918001039
C   C127      1.0  0.52057  0.62207  0.60960  1.0000 -0.4918001039
C   C128      1.0  0.89850  0.52057  0.10960  1.0000 -0.4918001039
C   C129      1.0  0.37793  0.89850  0.60960  1.0000 -0.4918001039
C   C130      1.0  0.47943  0.37793  0.10960  1.0000 -0.4918001039
C   C131      1.0  0.10150  0.47943  0.60960  1.0000 -0.4918001039
C   C132      1.0  0.62207  0.10150  0.10960  1.0000 -0.4918001039
C   C133      1.0  0.93823  0.72633  0.75000  1.0000 -0.460932281
C   C134      1.0  0.21190  0.93823  0.25000  1.0000 -0.460932281
C   C135      1.0  0.27367  0.21190  0.75000  1.0000 -0.460932281
C   C136      1.0  0.06177  0.27367  0.25000  1.0000 -0.460932281
C   C137      1.0  0.78810  0.06177  0.75000  1.0000 -0.460932281
C   C138      1.0  0.72633  0.78810  0.25000  1.0000 -0.460932281
Br  Br1       1.0  0.66667  0.33333  0.75000  1.0000 -0.5411849482
Br  Br2       1.0  0.33333  0.66667  0.25000  1.0000 -0.5411849482
N   N1        1.0  0.48563  0.22973  0.63380  1.0000 -0.1285044738
N   N2        1.0  0.25590  0.48563  0.13380  1.0000 -0.1285044738
N   N3        1.0  0.77027  0.25590  0.63380  1.0000 -0.1285044738
N   N4        1.0  0.51437  0.77027  0.13380  1.0000 -0.1285044738
N   N5        1.0  0.74410  0.51437  0.63380  1.0000 -0.1285044738
N   N6        1.0  0.22973  0.74410  0.13380  1.0000 -0.1285044738
N   N7        1.0  0.51437  0.77027  0.36620  1.0000 -0.1285044738
N   N8        1.0  0.74410  0.51437  0.86620  1.0000 -0.1285044738
N   N9        1.0  0.22973  0.74410  0.36620  1.0000 -0.1285044738
N   N10       1.0  0.48563  0.22973  0.86620  1.0000 -0.1285044738
N   N11       1.0  0.25590  0.48563  0.36620  1.0000 -0.1285044738
N   N12       1.0  0.77027  0.25590  0.86620  1.0000 -0.1285044738
N   N13       1.0  0.48893  0.30013  0.65360  1.0000 -0.2339291822
N   N14       1.0  0.18880  0.48893  0.15360  1.0000 -0.2339291822
N   N15       1.0  0.69987  0.18880  0.65360  1.0000 -0.2339291822
N   N16       1.0  0.51107  0.69987  0.15360  1.0000 -0.2339291822
N   N17       1.0  0.81120  0.51107  0.65360  1.0000 -0.2339291822
N   N18       1.0  0.30013  0.81120  0.15360  1.0000 -0.2339291822
N   N19       1.0  0.51107  0.69987  0.34640  1.0000 -0.2339291822
N   N20       1.0  0.81120  0.51107  0.84640  1.0000 -0.2339291822
N   N21       1.0  0.30013  0.81120  0.34640  1.0000 -0.2339291822
N   N22       1.0  0.48893  0.30013  0.84640  1.0000 -0.2339291822
N   N23       1.0  0.18880  0.48893  0.34640  1.0000 -0.2339291822
N   N24       1.0  0.69987  0.18880  0.84640  1.0000 -0.2339291822
N   N25       1.0  0.28073  0.20323  0.37570  1.0000 -0.1475500478
N   N26       1.0  0.07750  0.28073  0.87570  1.0000 -0.1475500478
N   N27       1.0  0.79677  0.07750  0.37570  1.0000 -0.1475500478
N   N28       1.0  0.71927  0.79677  0.87570  1.0000 -0.1475500478
N   N29       1.0  0.92250  0.71927  0.37570  1.0000 -0.1475500478
N   N30       1.0  0.20323  0.92250  0.87570  1.0000 -0.1475500478
N   N31       1.0  0.71927  0.79677  0.62430  1.0000 -0.1475500478
N   N32       1.0  0.92250  0.71927  0.12430  1.0000 -0.1475500478
N   N33       1.0  0.20323  0.92250  0.62430  1.0000 -0.1475500478
N   N34       1.0  0.28073  0.20323  0.12430  1.0000 -0.1475500478
N   N35       1.0  0.07750  0.28073  0.62430  1.0000 -0.1475500478
N   N36       1.0  0.79677  0.07750  0.12430  1.0000 -0.1475500478
N   N37       1.0  0.59283  0.48223  0.75000  1.0000 -0.4015014632
N   N38       1.0  0.11060  0.59283  0.25000  1.0000 -0.4015014632
N   N39       1.0  0.51777  0.11060  0.75000  1.0000 -0.4015014632
N   N40       1.0  0.40717  0.51777  0.25000  1.0000 -0.4015014632
N   N41       1.0  0.88940  0.40717  0.75000  1.0000 -0.4015014632
N   N42       1.0  0.48223  0.88940  0.25000  1.0000 -0.4015014632
N   N43       1.0  0.79193  0.70783  0.75000  1.0000 -0.4692929202
N   N44       1.0  0.08410  0.79193  0.25000  1.0000 -0.4692929202
N   N45       1.0  0.29217  0.08410  0.75000  1.0000 -0.4692929202
N   N46       1.0  0.20807  0.29217  0.25000  1.0000 -0.4692929202
N   N47       1.0  0.91590  0.20807  0.75000  1.0000 -0.4692929202
N   N48       1.0  0.70783  0.91590  0.25000  1.0000 -0.4692929202
N   N49       1.0  0.34273  0.27593  0.34740  1.0000 -0.2339291822
N   N50       1.0  0.06680  0.34273  0.84740  1.0000 -0.2339291822
N   N51       1.0  0.72407  0.06680  0.34740  1.0000 -0.2339291822
N   N52       1.0  0.65727  0.72407  0.84740  1.0000 -0.2339291822
N   N53       1.0  0.93320  0.65727  0.34740  1.0000 -0.2339291822
N   N54       1.0  0.27593  0.93320  0.84740  1.0000 -0.2339291822
N   N55       1.0  0.65727  0.72407  0.65260  1.0000 -0.2339291822
N   N56       1.0  0.93320  0.65727  0.15260  1.0000 -0.2339291822
N   N57       1.0  0.27593  0.93320  0.65260  1.0000 -0.2339291822
N   N58       1.0  0.34273  0.27593  0.15260  1.0000 -0.2339291822
N   N59       1.0  0.06680  0.34273  0.65260  1.0000 -0.2339291822
N   N60       1.0  0.72407  0.06680  0.15260  1.0000 -0.2339291822
