# DDEC6 charges by PACMAN v1.1 (https://github.com/mtap-research/PACMAN-charge/)
data_2015[Cu][bcu]3[ASR]3
_chemical_formula_sum              "Cu4 H72 C104 N16 O24"
_cell_length_a       8.3259
_cell_length_b       22.773
_cell_length_c       21.2586
_cell_angle_alpha    90
_cell_angle_beta     109.306
_cell_angle_gamma    90

_symmetry_space_group_name_H-M    "P 1"
_symmetry_Int_Tables_number       1

loop_
  _symmetry_equiv_pos_as_xyz
  'x, y, z'

loop_
  _atom_site_type_symbol
  _atom_site_label
  _atom_site_symmetry_multiplicity
  _atom_site_fract_x
  _atom_site_fract_y
  _atom_site_fract_z
  _atom_site_occupancy
  _atom_site_charge
Cu  Cu1       1.0  0.21847  0.55428  0.50552  1.0000 0.7851089175
Cu  Cu2       1.0  0.78153  0.05428  0.99448  1.0000 0.7851089175
Cu  Cu3       1.0  0.78153  0.44572  0.49448  1.0000 0.7851089175
Cu  Cu4       1.0  0.21847  0.94572  0.00552  1.0000 0.7851089175
H   H1        1.0  0.92970  0.35760  0.38550  1.0000 0.1195685001
H   H2        1.0  0.07030  0.85760  0.11450  1.0000 0.1195685001
H   H3        1.0  0.07030  0.64240  0.61450  1.0000 0.1195685001
H   H4        1.0  0.92970  0.14240  0.88550  1.0000 0.1195685001
H   H5        1.0  0.91640  0.29440  0.29710  1.0000 0.1089831377
H   H6        1.0  0.08360  0.79440  0.20290  1.0000 0.1089831377
H   H7        1.0  0.08360  0.70560  0.70290  1.0000 0.1089831377
H   H8        1.0  0.91640  0.20560  0.79710  1.0000 0.1089831377
H   H9        1.0  0.32240  0.37500  0.27280  1.0000 0.1195685001
H   H10       1.0  0.67760  0.87500  0.22720  1.0000 0.1195685001
H   H11       1.0  0.67760  0.62500  0.72720  1.0000 0.1195685001
H   H12       1.0  0.32240  0.12500  0.77280  1.0000 0.1195685001
H   H13       1.0  0.33370  0.44030  0.36040  1.0000 0.1195685001
H   H14       1.0  0.66630  0.94030  0.13960  1.0000 0.1195685001
H   H15       1.0  0.66630  0.55970  0.63960  1.0000 0.1195685001
H   H16       1.0  0.33370  0.05970  0.86040  1.0000 0.1195685001
H   H17       1.0  0.03940  0.15150  0.03150  1.0000 0.1195685001
H   H18       1.0  0.96060  0.65150  0.46850  1.0000 0.1195685001
H   H19       1.0  0.96060  0.84850  0.96850  1.0000 0.1195685001
H   H20       1.0  0.03940  0.34850  0.53150  1.0000 0.1195685001
H   H21       1.0  0.13220  0.22370  0.11100  1.0000 0.1405836826
H   H22       1.0  0.86780  0.72370  0.38900  1.0000 0.1405836826
H   H23       1.0  0.86780  0.77630  0.88900  1.0000 0.1405836826
H   H24       1.0  0.13220  0.27630  0.61100  1.0000 0.1405836826
H   H25       1.0  0.88350  0.13800  0.21930  1.0000 0.1405836826
H   H26       1.0  0.11650  0.63800  0.28070  1.0000 0.1405836826
H   H27       1.0  0.11650  0.86200  0.78070  1.0000 0.1405836826
H   H28       1.0  0.88350  0.36200  0.71930  1.0000 0.1405836826
H   H29       1.0  0.79560  0.06970  0.13560  1.0000 0.1089831377
H   H30       1.0  0.20440  0.56970  0.36440  1.0000 0.1089831377
H   H31       1.0  0.20440  0.93030  0.86440  1.0000 0.1089831377
H   H32       1.0  0.79560  0.43030  0.63560  1.0000 0.1089831377
H   H33       1.0  0.30710  0.69800  0.64680  1.0000 0.1195685001
H   H34       1.0  0.69290  0.19800  0.85320  1.0000 0.1195685001
H   H35       1.0  0.69290  0.30200  0.35320  1.0000 0.1195685001
H   H36       1.0  0.30710  0.80200  0.14680  1.0000 0.1195685001
H   H37       1.0  0.39760  0.77600  0.71690  1.0000 0.1195685001
H   H38       1.0  0.60240  0.27600  0.78310  1.0000 0.1195685001
H   H39       1.0  0.60240  0.22400  0.28310  1.0000 0.1195685001
H   H40       1.0  0.39760  0.72400  0.21690  1.0000 0.1195685001
H   H41       1.0  0.66667  0.83120  0.60680  1.0000 0.1195685001
H   H42       1.0  0.33333  0.33120  0.89320  1.0000 0.1195685001
H   H43       1.0  0.33333  0.16880  0.39320  1.0000 0.1195685001
H   H44       1.0  0.66667  0.66880  0.10680  1.0000 0.1195685001
H   H45       1.0  0.60840  0.74430  0.54750  1.0000 0.1347612972
H   H46       1.0  0.39160  0.24430  0.95250  1.0000 0.1347612972
H   H47       1.0  0.39160  0.25570  0.45250  1.0000 0.1347612972
H   H48       1.0  0.60840  0.75570  0.04750  1.0000 0.1347612972
H   H49       1.0  0.50320  0.87170  0.87810  1.0000 0.1405836826
H   H50       1.0  0.49680  0.37170  0.62190  1.0000 0.1405836826
H   H51       1.0  0.49680  0.12830  0.12190  1.0000 0.1405836826
H   H52       1.0  0.50320  0.62830  0.37810  1.0000 0.1405836826
H   H53       1.0  0.57620  0.94120  0.96250  1.0000 0.1195685001
H   H54       1.0  0.42380  0.44120  0.53750  1.0000 0.1195685001
H   H55       1.0  0.42380  0.05880  0.03750  1.0000 0.1195685001
H   H56       1.0  0.57620  0.55880  0.46250  1.0000 0.1195685001
H   H57       1.0  0.76660  0.04450  0.85480  1.0000 0.1089831377
H   H58       1.0  0.23340  0.54450  0.64520  1.0000 0.1089831377
H   H59       1.0  0.23340  0.95550  0.14520  1.0000 0.1089831377
H   H60       1.0  0.76660  0.45550  0.35480  1.0000 0.1089831377
H   H61       1.0  0.70240  0.97760  0.76890  1.0000 0.1490803893
H   H62       1.0  0.29760  0.47760  0.73110  1.0000 0.1490803893
H   H63       1.0  0.29760  0.02240  0.23110  1.0000 0.1490803893
H   H64       1.0  0.70240  0.52240  0.26890  1.0000 0.1490803893
H   H65       1.0  0.02980  0.22100  0.25980  1.0000 0.2762407447
H   H66       1.0  0.97020  0.72100  0.24020  1.0000 0.2762407447
H   H67       1.0  0.97020  0.77900  0.74020  1.0000 0.2762407447
H   H68       1.0  0.02980  0.27900  0.75980  1.0000 0.2762407447
H   H69       1.0  0.50760  0.84000  0.77710  1.0000 0.2762407447
H   H70       1.0  0.49240  0.34000  0.72290  1.0000 0.2762407447
H   H71       1.0  0.49240  0.16000  0.22290  1.0000 0.2762407447
H   H72       1.0  0.50760  0.66000  0.27710  1.0000 0.2762407447
C   C1        1.0  0.12640  0.44890  0.43440  1.0000 0.5546084578
C   C2        1.0  0.87360  0.94890  0.06560  1.0000 0.5546084578
C   C3        1.0  0.87360  0.55110  0.56560  1.0000 0.5546084578
C   C4        1.0  0.12640  0.05110  0.93440  1.0000 0.5546084578
C   C5        1.0  0.12880  0.40620  0.38010  1.0000 -0.0031352588
C   C6        1.0  0.87120  0.90620  0.11990  1.0000 -0.0031352588
C   C7        1.0  0.87120  0.59380  0.61990  1.0000 -0.0031352588
C   C8        1.0  0.12880  0.09380  0.88010  1.0000 -0.0031352588
C   C9        1.0  0.00870  0.36190  0.36220  1.0000 -0.1060458784
C   C10       1.0  0.99130  0.86190  0.13780  1.0000 -0.1060458784
C   C11       1.0  0.99130  0.63810  0.63780  1.0000 -0.1060458784
C   C12       1.0  0.00870  0.13810  0.86220  1.0000 -0.1060458784
C   C13       1.0  0.00260  0.32360  0.31030  1.0000 -0.1344322627
C   C14       1.0  0.99740  0.82360  0.18970  1.0000 -0.1344322627
C   C15       1.0  0.99740  0.67640  0.68970  1.0000 -0.1344322627
C   C16       1.0  0.00260  0.17640  0.81030  1.0000 -0.1344322627
C   C17       1.0  0.11970  0.32780  0.27840  1.0000 -0.0196884749
C   C18       1.0  0.88030  0.82780  0.22160  1.0000 -0.0196884749
C   C19       1.0  0.88030  0.67220  0.72160  1.0000 -0.0196884749
C   C20       1.0  0.11970  0.17220  0.77840  1.0000 -0.0196884749
C   C21       1.0  0.24250  0.37160  0.29580  1.0000 -0.1060458784
C   C22       1.0  0.75750  0.87160  0.20420  1.0000 -0.1060458784
C   C23       1.0  0.75750  0.62840  0.70420  1.0000 -0.1060458784
C   C24       1.0  0.24250  0.12840  0.79580  1.0000 -0.1060458784
C   C25       1.0  0.24840  0.41080  0.34770  1.0000 -0.0927997966
C   C26       1.0  0.75160  0.91080  0.15230  1.0000 -0.0927997966
C   C27       1.0  0.75160  0.58920  0.65230  1.0000 -0.0927997966
C   C28       1.0  0.24840  0.08920  0.84770  1.0000 -0.0927997966
C   C29       1.0  0.12010  0.28800  0.22210  1.0000 0.4761150117
C   C30       1.0  0.87990  0.78800  0.27790  1.0000 0.4761150117
C   C31       1.0  0.87990  0.71200  0.77790  1.0000 0.4761150117
C   C32       1.0  0.12010  0.21200  0.72210  1.0000 0.4761150117
C   C33       1.0  0.00290  0.15000  0.06930  1.0000 0.0978626023
C   C34       1.0  0.99710  0.65000  0.43070  1.0000 0.0978626023
C   C35       1.0  0.99710  0.85000  0.93070  1.0000 0.0978626023
C   C36       1.0  0.00290  0.35000  0.56930  1.0000 0.0978626023
C   C37       1.0  0.06070  0.19310  0.11670  1.0000 -0.237879713
C   C38       1.0  0.93930  0.69310  0.38330  1.0000 -0.237879713
C   C39       1.0  0.93930  0.80690  0.88330  1.0000 -0.237879713
C   C40       1.0  0.06070  0.30690  0.61670  1.0000 -0.237879713
C   C41       1.0  0.01120  0.19080  0.17380  1.0000 0.2721222575
C   C42       1.0  0.98880  0.69080  0.32620  1.0000 0.2721222575
C   C43       1.0  0.98880  0.80920  0.82620  1.0000 0.2721222575
C   C44       1.0  0.01120  0.30920  0.67380  1.0000 0.2721222575
C   C45       1.0  0.91360  0.14260  0.18020  1.0000 -0.2568899457
C   C46       1.0  0.08640  0.64260  0.31980  1.0000 -0.2568899457
C   C47       1.0  0.08640  0.85740  0.81980  1.0000 -0.2568899457
C   C48       1.0  0.91360  0.35740  0.68020  1.0000 -0.2568899457
C   C49       1.0  0.86140  0.10210  0.13000  1.0000 0.0837024535
C   C50       1.0  0.13860  0.60210  0.37000  1.0000 0.0837024535
C   C51       1.0  0.13860  0.89790  0.87000  1.0000 0.0837024535
C   C52       1.0  0.86140  0.39790  0.63000  1.0000 0.0837024535
C   C53       1.0  0.39950  0.65670  0.54760  1.0000 0.5438677008
C   C54       1.0  0.60050  0.15670  0.95240  1.0000 0.5438677008
C   C55       1.0  0.60050  0.34330  0.45240  1.0000 0.5438677008
C   C56       1.0  0.39950  0.84330  0.04760  1.0000 0.5438677008
C   C57       1.0  0.44520  0.71300  0.58880  1.0000 0.0132818856
C   C58       1.0  0.55480  0.21300  0.91120  1.0000 0.0132818856
C   C59       1.0  0.55480  0.28700  0.41120  1.0000 0.0132818856
C   C60       1.0  0.44520  0.78700  0.08880  1.0000 0.0132818856
C   C61       1.0  0.38660  0.72450  0.63900  1.0000 -0.1177219943
C   C62       1.0  0.61340  0.22450  0.86100  1.0000 -0.1177219943
C   C63       1.0  0.61340  0.27550  0.36100  1.0000 -0.1177219943
C   C64       1.0  0.38660  0.77550  0.13900  1.0000 -0.1177219943
C   C65       1.0  0.43500  0.77240  0.67940  1.0000 -0.1465616737
C   C66       1.0  0.56500  0.27240  0.82060  1.0000 -0.1465616737
C   C67       1.0  0.56500  0.22760  0.32060  1.0000 -0.1465616737
C   C68       1.0  0.43500  0.72760  0.17940  1.0000 -0.1465616737
C   C69       1.0  0.53400  0.81460  0.66770  1.0000 -0.0354121653
C   C70       1.0  0.46600  0.31460  0.83230  1.0000 -0.0354121653
C   C71       1.0  0.46600  0.18540  0.33230  1.0000 -0.0354121653
C   C72       1.0  0.53400  0.68540  0.16770  1.0000 -0.0354121653
C   C73       1.0  0.59480  0.80310  0.61720  1.0000 -0.1177219943
C   C74       1.0  0.40520  0.30310  0.88280  1.0000 -0.1177219943
C   C75       1.0  0.40520  0.19690  0.38280  1.0000 -0.1177219943
C   C76       1.0  0.59480  0.69690  0.11720  1.0000 -0.1177219943
C   C77       1.0  0.55540  0.75180  0.58000  1.0000 -0.1177219943
C   C78       1.0  0.44460  0.25180  0.92000  1.0000 -0.1177219943
C   C79       1.0  0.44460  0.24820  0.42000  1.0000 -0.1177219943
C   C80       1.0  0.55540  0.74820  0.08000  1.0000 -0.1177219943
C   C81       1.0  0.58800  0.86810  0.70730  1.0000 0.4648397873
C   C82       1.0  0.41200  0.36810  0.79270  1.0000 0.4648397873
C   C83       1.0  0.41200  0.13190  0.29270  1.0000 0.4648397873
C   C84       1.0  0.58800  0.63190  0.20730  1.0000 0.4648397873
C   C85       1.0  0.60130  0.91500  0.81530  1.0000 0.2721222575
C   C86       1.0  0.39870  0.41500  0.68470  1.0000 0.2721222575
C   C87       1.0  0.39870  0.08500  0.18470  1.0000 0.2721222575
C   C88       1.0  0.60130  0.58500  0.31530  1.0000 0.2721222575
C   C89       1.0  0.56020  0.90660  0.87290  1.0000 -0.2524919835
C   C90       1.0  0.43980  0.40660  0.62710  1.0000 -0.2524919835
C   C91       1.0  0.43980  0.09340  0.12710  1.0000 -0.2524919835
C   C92       1.0  0.56020  0.59340  0.37290  1.0000 -0.2524919835
C   C93       1.0  0.60130  0.94850  0.92270  1.0000 0.092310478
C   C94       1.0  0.39870  0.44850  0.57730  1.0000 0.092310478
C   C95       1.0  0.39870  0.05150  0.07730  1.0000 0.092310478
C   C96       1.0  0.60130  0.55150  0.42270  1.0000 0.092310478
C   C97       1.0  0.71300  0.00880  0.85960  1.0000 0.092310478
C   C98       1.0  0.28700  0.50880  0.64040  1.0000 0.092310478
C   C99       1.0  0.28700  0.99120  0.14040  1.0000 0.092310478
C   C100      1.0  0.71300  0.49120  0.35960  1.0000 0.092310478
C   C101      1.0  0.67690  0.96900  0.80830  1.0000 -0.2349758808
C   C102      1.0  0.32310  0.46900  0.69170  1.0000 -0.2349758808
C   C103      1.0  0.32310  0.03100  0.19170  1.0000 -0.2349758808
C   C104      1.0  0.67690  0.53100  0.30830  1.0000 -0.2349758808
N   N1        1.0  0.89880  0.10580  0.07260  1.0000 -0.237879713
N   N2        1.0  0.10120  0.60580  0.42740  1.0000 -0.237879713
N   N3        1.0  0.10120  0.89420  0.92740  1.0000 -0.237879713
N   N4        1.0  0.89880  0.39420  0.57260  1.0000 -0.237879713
N   N5        1.0  0.05260  0.23330  0.22420  1.0000 -0.3897357945
N   N6        1.0  0.94740  0.73330  0.27580  1.0000 -0.3897357945
N   N7        1.0  0.94740  0.76670  0.77580  1.0000 -0.3897357945
N   N8        1.0  0.05260  0.26670  0.72420  1.0000 -0.3897357945
N   N9        1.0  0.67750  0.00038  0.91610  1.0000 -0.2524919835
N   N10       1.0  0.32250  0.50038  0.58390  1.0000 -0.2524919835
N   N11       1.0  0.32250  0.99962  0.08390  1.0000 -0.2524919835
N   N12       1.0  0.67750  0.49962  0.41610  1.0000 -0.2524919835
N   N13       1.0  0.56030  0.87050  0.76770  1.0000 -0.3692802478
N   N14       1.0  0.43970  0.37050  0.73230  1.0000 -0.3692802478
N   N15       1.0  0.43970  0.12950  0.23230  1.0000 -0.3692802478
N   N16       1.0  0.56030  0.62950  0.26770  1.0000 -0.3692802478
O   O1        1.0  0.22637  0.49285  0.44197  1.0000 -0.5493818884
O   O2        1.0  0.77363  0.99285  0.05803  1.0000 -0.5493818884
O   O3        1.0  0.77363  0.50715  0.55803  1.0000 -0.5493818884
O   O4        1.0  0.22637  0.00715  0.94197  1.0000 -0.5493818884
O   O5        1.0  0.03129  0.43922  0.46709  1.0000 -0.5808891718
O   O6        1.0  0.96871  0.93922  0.03291  1.0000 -0.5808891718
O   O7        1.0  0.96871  0.56078  0.53291  1.0000 -0.5808891718
O   O8        1.0  0.03129  0.06078  0.96709  1.0000 -0.5808891718
O   O9        1.0  0.29445  0.62349  0.56305  1.0000 -0.5493818884
O   O10       1.0  0.70555  0.12349  0.93695  1.0000 -0.5493818884
O   O11       1.0  0.70555  0.37651  0.43695  1.0000 -0.5493818884
O   O12       1.0  0.29445  0.87651  0.06305  1.0000 -0.5493818884
O   O13       1.0  0.46230  0.64730  0.50420  1.0000 -0.5310461585
O   O14       1.0  0.53770  0.14730  0.99580  1.0000 -0.5310461585
O   O15       1.0  0.53770  0.35270  0.49580  1.0000 -0.5310461585
O   O16       1.0  0.46230  0.85270  0.00420  1.0000 -0.5310461585
O   O17       1.0  0.65180  0.90960  0.68730  1.0000 -0.4267778759
O   O18       1.0  0.34820  0.40960  0.81270  1.0000 -0.4267778759
O   O19       1.0  0.34820  0.09040  0.31270  1.0000 -0.4267778759
O   O20       1.0  0.65180  0.59040  0.18730  1.0000 -0.4267778759
O   O21       1.0  0.17310  0.30320  0.17820  1.0000 -0.4234343086
O   O22       1.0  0.82690  0.80320  0.32180  1.0000 -0.4234343086
O   O23       1.0  0.82690  0.69680  0.82180  1.0000 -0.4234343086
O   O24       1.0  0.17310  0.19680  0.67820  1.0000 -0.4234343086
