# DDEC6 charges by PACMAN v1.1 (https://github.com/mtap-research/PACMAN-charge/)
data_2015[Zn][nan]3[ASR]35
_chemical_formula_sum              "Zn16 H120 C192 N48 O52"
_cell_length_a       18.5178
_cell_length_b       18.5178
_cell_length_c       27.5327
_cell_angle_alpha    84.5005
_cell_angle_beta     95.4995
_cell_angle_gamma    89.3268

_symmetry_space_group_name_H-M    "P 1"
_symmetry_Int_Tables_number       1

loop_
  _symmetry_equiv_pos_as_xyz
  'x, y, z'

loop_
  _atom_site_type_symbol
  _atom_site_label
  _atom_site_symmetry_multiplicity
  _atom_site_fract_x
  _atom_site_fract_y
  _atom_site_fract_z
  _atom_site_occupancy
  _atom_site_charge
Zn  Zn1       1.0  0.52417  0.03871  0.66981  1.0000 0.9410828722
Zn  Zn2       1.0  0.96129  0.47583  0.16981  1.0000 0.9410828722
Zn  Zn3       1.0  0.38196  0.97314  0.70383  1.0000 0.9327566993
Zn  Zn4       1.0  0.02686  0.61804  0.20383  1.0000 0.9327566993
Zn  Zn5       1.0  0.49448  0.04000  0.78301  1.0000 1.001223616
Zn  Zn6       1.0  0.96000  0.50552  0.28301  1.0000 1.001223616
Zn  Zn7       1.0  0.39626  0.13918  0.69771  1.0000 0.9410828722
Zn  Zn8       1.0  0.86082  0.60374  0.19771  1.0000 0.9410828722
Zn  Zn9       1.0  0.03871  0.52417  0.83019  1.0000 0.9410828722
Zn  Zn10      1.0  0.47583  0.96129  0.33019  1.0000 0.9410828722
Zn  Zn11      1.0  0.97314  0.38196  0.79617  1.0000 0.9327566993
Zn  Zn12      1.0  0.61804  0.02686  0.29617  1.0000 0.9327566993
Zn  Zn13      1.0  0.04000  0.49448  0.71699  1.0000 1.001223616
Zn  Zn14      1.0  0.50552  0.96000  0.21699  1.0000 1.001223616
Zn  Zn15      1.0  0.13918  0.39626  0.80229  1.0000 0.9410828722
Zn  Zn16      1.0  0.60374  0.86082  0.30229  1.0000 0.9410828722
H   H1        1.0  0.56740  0.85800  0.58580  1.0000 0.1278363412
H   H2        1.0  0.14200  0.43260  0.08580  1.0000 0.1278363412
H   H3        1.0  0.59350  0.74650  0.55790  1.0000 0.1278363412
H   H4        1.0  0.25350  0.40650  0.05790  1.0000 0.1278363412
H   H5        1.0  0.45220  0.65160  0.64720  1.0000 0.1278363412
H   H6        1.0  0.34840  0.54780  0.14720  1.0000 0.1278363412
H   H7        1.0  0.42590  0.76470  0.67260  1.0000 0.1203429409
H   H8        1.0  0.23530  0.57410  0.17260  1.0000 0.1203429409
H   H9        1.0  0.02870  0.80510  0.10420  1.0000 0.1203429409
H   H10       1.0  0.19490  0.97130  0.60420  1.0000 0.1203429409
H   H11       1.0  0.01880  0.89260  0.03690  1.0000 0.1203429409
H   H12       1.0  0.10740  0.98120  0.53690  1.0000 0.1203429409
H   H13       1.0  0.79970  0.87830  0.02940  1.0000 0.1203429409
H   H14       1.0  0.12170  0.20030  0.52940  1.0000 0.1203429409
H   H15       1.0  0.81080  0.79080  0.09590  1.0000 0.1136085165
H   H16       1.0  0.20920  0.18920  0.59590  1.0000 0.1136085165
H   H17       1.0  0.46370  0.32430  0.61960  1.0000 0.1203429409
H   H18       1.0  0.67570  0.53630  0.11960  1.0000 0.1203429409
H   H19       1.0  0.50550  0.42390  0.57350  1.0000 0.1203429409
H   H20       1.0  0.57610  0.49450  0.07350  1.0000 0.1203429409
H   H21       1.0  0.62870  0.28850  0.50660  1.0000 0.1278363412
H   H22       1.0  0.71150  0.37130  0.00660  1.0000 0.1278363412
H   H23       1.0  0.58840  0.19100  0.55380  1.0000 0.1203429409
H   H24       1.0  0.80900  0.41160  0.05380  1.0000 0.1203429409
H   H25       1.0  0.21020  0.93240  0.78450  1.0000 0.1203429409
H   H26       1.0  0.06760  0.78980  0.28450  1.0000 0.1203429409
H   H27       1.0  0.11840  0.92200  0.83660  1.0000 0.1203429409
H   H28       1.0  0.07800  0.88160  0.33660  1.0000 0.1203429409
H   H29       1.0  0.25590  0.97410  0.94770  1.0000 0.1278363412
H   H30       1.0  0.02590  0.74410  0.44770  1.0000 0.1278363412
H   H31       1.0  0.34670  0.99310  0.89420  1.0000 0.1203429409
H   H32       1.0  0.00690  0.65330  0.39420  1.0000 0.1203429409
H   H33       1.0  0.69340  0.06320  0.82800  1.0000 0.1203429409
H   H34       1.0  0.93680  0.30660  0.32800  1.0000 0.1203429409
H   H35       1.0  0.81140  0.05440  0.86520  1.0000 0.1278363412
H   H36       1.0  0.94560  0.18860  0.36520  1.0000 0.1278363412
H   H37       1.0  0.88430  0.02790  0.73410  1.0000 0.1203429409
H   H38       1.0  0.97210  0.11570  0.23410  1.0000 0.1203429409
H   H39       1.0  0.76510  0.03710  0.69690  1.0000 0.1203429409
H   H40       1.0  0.96290  0.23490  0.19690  1.0000 0.1203429409
H   H41       1.0  0.74060  0.70880  0.30640  1.0000 0.1278363412
H   H42       1.0  0.29120  0.25940  0.80640  1.0000 0.1278363412
H   H43       1.0  0.68180  0.73200  0.37440  1.0000 0.1278363412
H   H44       1.0  0.26800  0.31820  0.87440  1.0000 0.1278363412
H   H45       1.0  0.74630  0.53270  0.44060  1.0000 0.1203429409
H   H46       1.0  0.46730  0.25370  0.94060  1.0000 0.1203429409
H   H47       1.0  0.80470  0.51110  0.37230  1.0000 0.1203429409
H   H48       1.0  0.48890  0.19530  0.87230  1.0000 0.1203429409
H   H49       1.0  0.51570  0.58370  0.60460  1.0000 0.2894725294
H   H50       1.0  0.41630  0.48430  0.10460  1.0000 0.2894725294
H   H51       1.0  0.85360  0.95680  0.97490  1.0000 0.2894725294
H   H52       1.0  0.04320  0.14640  0.47490  1.0000 0.2894725294
H   H53       1.0  0.62840  0.41060  0.48480  1.0000 0.2991828878
H   H54       1.0  0.58940  0.37160  0.98480  1.0000 0.2991828878
H   H55       1.0  0.14060  0.92380  0.96060  1.0000 0.2894725294
H   H56       1.0  0.07620  0.85940  0.46060  1.0000 0.2894725294
H   H57       1.0  0.96460  0.03780  0.80360  1.0000 0.2894725294
H   H58       1.0  0.96220  0.03540  0.30360  1.0000 0.2894725294
H   H59       1.0  0.67440  0.69820  0.46110  1.0000 0.2991828878
H   H60       1.0  0.30180  0.32560  0.96110  1.0000 0.2991828878
H   H61       1.0  0.85800  0.56740  0.91420  1.0000 0.1278363412
H   H62       1.0  0.43260  0.14200  0.41420  1.0000 0.1278363412
H   H63       1.0  0.74650  0.59350  0.94210  1.0000 0.1278363412
H   H64       1.0  0.40650  0.25350  0.44210  1.0000 0.1278363412
H   H65       1.0  0.65160  0.45220  0.85280  1.0000 0.1278363412
H   H66       1.0  0.54780  0.34840  0.35280  1.0000 0.1278363412
H   H67       1.0  0.76470  0.42590  0.82740  1.0000 0.1203429409
H   H68       1.0  0.57410  0.23530  0.32740  1.0000 0.1203429409
H   H69       1.0  0.80510  0.02870  0.39580  1.0000 0.1203429409
H   H70       1.0  0.97130  0.19490  0.89580  1.0000 0.1203429409
H   H71       1.0  0.89260  0.01880  0.46310  1.0000 0.1203429409
H   H72       1.0  0.98120  0.10740  0.96310  1.0000 0.1203429409
H   H73       1.0  0.87830  0.79970  0.47060  1.0000 0.1203429409
H   H74       1.0  0.20030  0.12170  0.97060  1.0000 0.1203429409
H   H75       1.0  0.79080  0.81080  0.40410  1.0000 0.1136085165
H   H76       1.0  0.18920  0.20920  0.90410  1.0000 0.1136085165
H   H77       1.0  0.32430  0.46370  0.88040  1.0000 0.1203429409
H   H78       1.0  0.53630  0.67570  0.38040  1.0000 0.1203429409
H   H79       1.0  0.42390  0.50550  0.92650  1.0000 0.1203429409
H   H80       1.0  0.49450  0.57610  0.42650  1.0000 0.1203429409
H   H81       1.0  0.28850  0.62870  0.99340  1.0000 0.1278363412
H   H82       1.0  0.37130  0.71150  0.49340  1.0000 0.1278363412
H   H83       1.0  0.19100  0.58840  0.94620  1.0000 0.1203429409
H   H84       1.0  0.41160  0.80900  0.44620  1.0000 0.1203429409
H   H85       1.0  0.93240  0.21020  0.71550  1.0000 0.1203429409
H   H86       1.0  0.78980  0.06760  0.21550  1.0000 0.1203429409
H   H87       1.0  0.92200  0.11840  0.66340  1.0000 0.1203429409
H   H88       1.0  0.88160  0.07800  0.16340  1.0000 0.1203429409
H   H89       1.0  0.97410  0.25590  0.55230  1.0000 0.1278363412
H   H90       1.0  0.74410  0.02590  0.05230  1.0000 0.1278363412
H   H91       1.0  0.99310  0.34670  0.60580  1.0000 0.1203429409
H   H92       1.0  0.65330  0.00690  0.10580  1.0000 0.1203429409
H   H93       1.0  0.06320  0.69340  0.67200  1.0000 0.1203429409
H   H94       1.0  0.30660  0.93680  0.17200  1.0000 0.1203429409
H   H95       1.0  0.05440  0.81140  0.63480  1.0000 0.1278363412
H   H96       1.0  0.18860  0.94560  0.13480  1.0000 0.1278363412
H   H97       1.0  0.02790  0.88430  0.76590  1.0000 0.1203429409
H   H98       1.0  0.11570  0.97210  0.26590  1.0000 0.1203429409
H   H99       1.0  0.03710  0.76510  0.80310  1.0000 0.1203429409
H   H100      1.0  0.23490  0.96290  0.30310  1.0000 0.1203429409
H   H101      1.0  0.70880  0.74060  0.19360  1.0000 0.1278363412
H   H102      1.0  0.25940  0.29120  0.69360  1.0000 0.1278363412
H   H103      1.0  0.73200  0.68180  0.12560  1.0000 0.1278363412
H   H104      1.0  0.31820  0.26800  0.62560  1.0000 0.1278363412
H   H105      1.0  0.53270  0.74630  0.05940  1.0000 0.1203429409
H   H106      1.0  0.25370  0.46730  0.55940  1.0000 0.1203429409
H   H107      1.0  0.51110  0.80470  0.12770  1.0000 0.1203429409
H   H108      1.0  0.19530  0.48890  0.62770  1.0000 0.1203429409
H   H109      1.0  0.58370  0.51570  0.89540  1.0000 0.2894725294
H   H110      1.0  0.48430  0.41630  0.39540  1.0000 0.2894725294
H   H111      1.0  0.95680  0.85360  0.52510  1.0000 0.2894725294
H   H112      1.0  0.14640  0.04320  0.02510  1.0000 0.2894725294
H   H113      1.0  0.41060  0.62840  0.01520  1.0000 0.2991828878
H   H114      1.0  0.37160  0.58940  0.51520  1.0000 0.2991828878
H   H115      1.0  0.92380  0.14060  0.53940  1.0000 0.2894725294
H   H116      1.0  0.85940  0.07620  0.03940  1.0000 0.2894725294
H   H117      1.0  0.03780  0.96460  0.69640  1.0000 0.2894725294
H   H118      1.0  0.03540  0.96220  0.19640  1.0000 0.2894725294
H   H119      1.0  0.69820  0.67440  0.03890  1.0000 0.2991828878
H   H120      1.0  0.32560  0.30180  0.53890  1.0000 0.2991828878
C   C1        1.0  0.47437  0.89303  0.64808  1.0000 0.5886793477
C   C2        1.0  0.10697  0.52563  0.14808  1.0000 0.5886793477
C   C3        1.0  0.49379  0.82183  0.63135  1.0000 -0.0631349214
C   C4        1.0  0.17817  0.50621  0.13135  1.0000 -0.0709986646
C   C5        1.0  0.54350  0.81590  0.59780  1.0000 -0.0709986646
C   C6        1.0  0.18410  0.45650  0.09780  1.0000 -0.0709986646
C   C7        1.0  0.55930  0.74970  0.58130  1.0000 -0.2011668862
C   C8        1.0  0.25030  0.44070  0.08130  1.0000 -0.2011668862
C   C9        1.0  0.52429  0.68749  0.59934  1.0000 0.2403061077
C   C10       1.0  0.31251  0.47571  0.09934  1.0000 0.2403061077
C   C11       1.0  0.47528  0.69348  0.63403  1.0000 -0.2362957054
C   C12       1.0  0.30652  0.52472  0.13403  1.0000 -0.2362957054
C   C13       1.0  0.46012  0.76078  0.64933  1.0000 -0.0709986646
C   C14       1.0  0.23922  0.53988  0.14933  1.0000 -0.0709986646
C   C15       1.0  0.57220  0.59400  0.54985  1.0000 0.526489604
C   C16       1.0  0.40600  0.42780  0.04985  1.0000 0.526489604
C   C17       1.0  0.92894  0.72406  0.14298  1.0000 0.5886793477
C   C18       1.0  0.27594  0.07106  0.64298  1.0000 0.5886793477
C   C19       1.0  0.92100  0.78680  0.10518  1.0000 -0.0631349214
C   C20       1.0  0.21320  0.07900  0.60518  1.0000 -0.0631349214
C   C21       1.0  0.98210  0.81890  0.08818  1.0000 -0.0797118673
C   C22       1.0  0.18110  0.01790  0.58818  1.0000 -0.0797118673
C   C23       1.0  0.97640  0.87100  0.04820  1.0000 -0.2011668862
C   C24       1.0  0.12900  0.02360  0.54820  1.0000 -0.2011668862
C   C25       1.0  0.90890  0.89110  0.02481  1.0000 0.2403061077
C   C26       1.0  0.10890  0.09110  0.52481  1.0000 0.2403061077
C   C27       1.0  0.84640  0.86220  0.04385  1.0000 -0.220693599
C   C28       1.0  0.13780  0.15360  0.54385  1.0000 -0.220693599
C   C29       1.0  0.85320  0.81060  0.08336  1.0000 -0.0797118673
C   C30       1.0  0.18940  0.14680  0.58336  1.0000 -0.0797118673
C   C31       1.0  0.49566  0.18526  0.62388  1.0000 0.5886793477
C   C32       1.0  0.81474  0.50434  0.12388  1.0000 0.5886793477
C   C33       1.0  0.52338  0.24758  0.59253  1.0000 -0.0502998562
C   C34       1.0  0.75242  0.47662  0.09253  1.0000 -0.0502998562
C   C35       1.0  0.49865  0.31725  0.59730  1.0000 -0.0887679516
C   C36       1.0  0.68275  0.50135  0.09730  1.0000 -0.0887679516
C   C37       1.0  0.52380  0.37660  0.57020  1.0000 -0.1925294887
C   C38       1.0  0.62340  0.47620  0.07020  1.0000 -0.1925294887
C   C39       1.0  0.57615  0.36715  0.53793  1.0000 0.2403061077
C   C40       1.0  0.63285  0.42385  0.03793  1.0000 0.2403061077
C   C41       1.0  0.59693  0.29631  0.53080  1.0000 -0.220693599
C   C42       1.0  0.70369  0.40307  0.03080  1.0000 -0.220693599
C   C43       1.0  0.57200  0.23862  0.55825  1.0000 -0.0797118673
C   C44       1.0  0.76138  0.42800  0.05825  1.0000 -0.0797118673
C   C45       1.0  0.60260  0.49640  0.51350  1.0000 0.526489604
C   C46       1.0  0.50360  0.39740  0.01350  1.0000 0.526489604
C   C47       1.0  0.34630  0.96870  0.80050  1.0000 0.5982420814
C   C48       1.0  0.03130  0.65370  0.30050  1.0000 0.5982420814
C   C49       1.0  0.28750  0.96030  0.83398  1.0000 -0.0435960641
C   C50       1.0  0.03970  0.71250  0.33398  1.0000 -0.0435960641
C   C51       1.0  0.22040  0.94160  0.81777  1.0000 -0.0797118673
C   C52       1.0  0.05840  0.77960  0.31777  1.0000 -0.0797118673
C   C53       1.0  0.16560  0.93540  0.84880  1.0000 -0.1925294887
C   C54       1.0  0.06460  0.83440  0.34880  1.0000 -0.1925294887
C   C55       1.0  0.17910  0.94830  0.89743  1.0000 0.2263546359
C   C56       1.0  0.05170  0.82090  0.39743  1.0000 0.2263546359
C   C57       1.0  0.24570  0.96690  0.91409  1.0000 -0.220693599
C   C58       1.0  0.03310  0.75430  0.41409  1.0000 -0.220693599
C   C59       1.0  0.30060  0.97620  0.88260  1.0000 -0.0797118673
C   C60       1.0  0.02380  0.69940  0.38260  1.0000 -0.0709986646
C   C61       1.0  0.64075  0.05255  0.73780  1.0000 0.5886793477
C   C62       1.0  0.94745  0.35925  0.23780  1.0000 0.5886793477
C   C63       1.0  0.71715  0.04905  0.75880  1.0000 -0.0709986646
C   C64       1.0  0.95095  0.28285  0.25880  1.0000 -0.0709986646
C   C65       1.0  0.73220  0.05500  0.80890  1.0000 -0.0709986646
C   C66       1.0  0.94500  0.26780  0.30890  1.0000 -0.0709986646
C   C67       1.0  0.80240  0.04900  0.83120  1.0000 -0.2011668862
C   C68       1.0  0.95100  0.19760  0.33120  1.0000 -0.2011668862
C   C69       1.0  0.86020  0.03500  0.80386  1.0000 0.2493760359
C   C70       1.0  0.96500  0.13980  0.30386  1.0000 0.2493760359
C   C71       1.0  0.84550  0.03330  0.75363  1.0000 -0.2346710342
C   C72       1.0  0.96670  0.15450  0.25363  1.0000 -0.2362957054
C   C73       1.0  0.77422  0.03958  0.73120  1.0000 -0.0709986646
C   C74       1.0  0.96042  0.22578  0.23120  1.0000 -0.0709986646
C   C75       1.0  0.95810  0.99890  0.87037  1.0000 0.5193640065
C   C76       1.0  0.00110  0.04190  0.37037  1.0000 0.5193640065
C   C77       1.0  0.94430  0.95570  0.94730  1.0000 0.526489604
C   C78       1.0  0.04430  0.05570  0.44730  1.0000 0.526489604
C   C79       1.0  0.05380  0.95560  0.92000  1.0000 0.5193640065
C   C80       1.0  0.04440  0.94620  0.42000  1.0000 0.5193640065
C   C81       1.0  0.81666  0.58934  0.28977  1.0000 0.5886793477
C   C82       1.0  0.41066  0.18334  0.78977  1.0000 0.5886793477
C   C83       1.0  0.77807  0.60645  0.33232  1.0000 -0.0502998562
C   C84       1.0  0.39355  0.22193  0.83232  1.0000 -0.0502998562
C   C85       1.0  0.74145  0.67297  0.33358  1.0000 -0.0709986646
C   C86       1.0  0.32703  0.25855  0.83358  1.0000 -0.0709986646
C   C87       1.0  0.70658  0.68688  0.37403  1.0000 -0.2146996486
C   C88       1.0  0.31312  0.29342  0.87403  1.0000 -0.220693599
C   C89       1.0  0.70771  0.63489  0.41418  1.0000 0.2493760359
C   C90       1.0  0.36511  0.29229  0.91418  1.0000 0.2493760359
C   C91       1.0  0.74488  0.56852  0.41343  1.0000 -0.2011668862
C   C92       1.0  0.43148  0.25512  0.91343  1.0000 -0.2011668862
C   C93       1.0  0.77934  0.55588  0.37261  1.0000 -0.0797118673
C   C94       1.0  0.44412  0.22066  0.87261  1.0000 -0.0797118673
C   C95       1.0  0.64050  0.60630  0.48723  1.0000 0.526489604
C   C96       1.0  0.39370  0.35950  0.98723  1.0000 0.526489604
C   C97       1.0  0.89303  0.47437  0.85192  1.0000 0.5886793477
C   C98       1.0  0.52563  0.10697  0.35192  1.0000 0.5886793477
C   C99       1.0  0.82183  0.49379  0.86865  1.0000 -0.0631349214
C   C100      1.0  0.50621  0.17817  0.36865  1.0000 -0.0709986646
C   C101      1.0  0.81590  0.54350  0.90220  1.0000 -0.0709986646
C   C102      1.0  0.45650  0.18410  0.40220  1.0000 -0.0709986646
C   C103      1.0  0.74970  0.55930  0.91870  1.0000 -0.2011668862
C   C104      1.0  0.44070  0.25030  0.41870  1.0000 -0.2011668862
C   C105      1.0  0.68749  0.52429  0.90066  1.0000 0.2403061077
C   C106      1.0  0.47571  0.31251  0.40066  1.0000 0.2403061077
C   C107      1.0  0.69348  0.47528  0.86597  1.0000 -0.2362957054
C   C108      1.0  0.52472  0.30652  0.36597  1.0000 -0.2362957054
C   C109      1.0  0.76078  0.46012  0.85067  1.0000 -0.0709986646
C   C110      1.0  0.53988  0.23922  0.35067  1.0000 -0.0709986646
C   C111      1.0  0.59400  0.57220  0.95015  1.0000 0.526489604
C   C112      1.0  0.42780  0.40600  0.45015  1.0000 0.526489604
C   C113      1.0  0.72406  0.92894  0.35702  1.0000 0.5886793477
C   C114      1.0  0.07106  0.27594  0.85702  1.0000 0.5886793477
C   C115      1.0  0.78680  0.92100  0.39482  1.0000 -0.0631349214
C   C116      1.0  0.07900  0.21320  0.89482  1.0000 -0.0631349214
C   C117      1.0  0.81890  0.98210  0.41182  1.0000 -0.0709986646
C   C118      1.0  0.01790  0.18110  0.91182  1.0000 -0.0709986646
C   C119      1.0  0.87100  0.97640  0.45180  1.0000 -0.2011668862
C   C120      1.0  0.02360  0.12900  0.95180  1.0000 -0.2011668862
C   C121      1.0  0.89110  0.90890  0.47519  1.0000 0.2403061077
C   C122      1.0  0.09110  0.10890  0.97519  1.0000 0.2403061077
C   C123      1.0  0.86220  0.84640  0.45615  1.0000 -0.220693599
C   C124      1.0  0.15360  0.13780  0.95615  1.0000 -0.220693599
C   C125      1.0  0.81060  0.85320  0.41664  1.0000 -0.0797118673
C   C126      1.0  0.14680  0.18940  0.91664  1.0000 -0.0797118673
C   C127      1.0  0.18526  0.49566  0.87612  1.0000 0.5886793477
C   C128      1.0  0.50434  0.81474  0.37612  1.0000 0.5886793477
C   C129      1.0  0.24758  0.52338  0.90747  1.0000 -0.0502998562
C   C130      1.0  0.47662  0.75242  0.40747  1.0000 -0.0502998562
C   C131      1.0  0.31725  0.49865  0.90270  1.0000 -0.0887679516
C   C132      1.0  0.50135  0.68275  0.40270  1.0000 -0.0887679516
C   C133      1.0  0.37660  0.52380  0.92980  1.0000 -0.1925294887
C   C134      1.0  0.47620  0.62340  0.42980  1.0000 -0.1925294887
C   C135      1.0  0.36715  0.57615  0.96207  1.0000 0.2403061077
C   C136      1.0  0.42385  0.63285  0.46207  1.0000 0.2403061077
C   C137      1.0  0.29631  0.59693  0.96920  1.0000 -0.220693599
C   C138      1.0  0.40307  0.70369  0.46920  1.0000 -0.220693599
C   C139      1.0  0.23862  0.57200  0.94175  1.0000 -0.0797118673
C   C140      1.0  0.42800  0.76138  0.44175  1.0000 -0.0797118673
C   C141      1.0  0.49640  0.60260  0.98650  1.0000 0.526489604
C   C142      1.0  0.39740  0.50360  0.48650  1.0000 0.526489604
C   C143      1.0  0.96870  0.34630  0.69950  1.0000 0.5982420814
C   C144      1.0  0.65370  0.03130  0.19950  1.0000 0.5982420814
C   C145      1.0  0.96030  0.28750  0.66602  1.0000 -0.0435960641
C   C146      1.0  0.71250  0.03970  0.16602  1.0000 -0.0435960641
C   C147      1.0  0.94160  0.22040  0.68223  1.0000 -0.0797118673
C   C148      1.0  0.77960  0.05840  0.18223  1.0000 -0.0797118673
C   C149      1.0  0.93540  0.16560  0.65120  1.0000 -0.1925294887
C   C150      1.0  0.83440  0.06460  0.15120  1.0000 -0.1925294887
C   C151      1.0  0.94830  0.17910  0.60257  1.0000 0.2263546359
C   C152      1.0  0.82090  0.05170  0.10257  1.0000 0.2263546359
C   C153      1.0  0.96690  0.24570  0.58591  1.0000 -0.220693599
C   C154      1.0  0.75430  0.03310  0.08591  1.0000 -0.220693599
C   C155      1.0  0.97620  0.30060  0.61740  1.0000 -0.0709986646
C   C156      1.0  0.69940  0.02380  0.11740  1.0000 -0.0709986646
C   C157      1.0  0.05255  0.64075  0.76220  1.0000 0.5886793477
C   C158      1.0  0.35925  0.94745  0.26220  1.0000 0.5886793477
C   C159      1.0  0.04905  0.71715  0.74120  1.0000 -0.0709986646
C   C160      1.0  0.28285  0.95095  0.24120  1.0000 -0.0709986646
C   C161      1.0  0.05500  0.73220  0.69110  1.0000 -0.0709986646
C   C162      1.0  0.26780  0.94500  0.19110  1.0000 -0.0709986646
C   C163      1.0  0.04900  0.80240  0.66880  1.0000 -0.2011668862
C   C164      1.0  0.19760  0.95100  0.16880  1.0000 -0.2011668862
C   C165      1.0  0.03500  0.86020  0.69614  1.0000 0.2493760359
C   C166      1.0  0.13980  0.96500  0.19614  1.0000 0.2493760359
C   C167      1.0  0.03330  0.84550  0.74637  1.0000 -0.2346710342
C   C168      1.0  0.15450  0.96670  0.24637  1.0000 -0.2362957054
C   C169      1.0  0.03958  0.77422  0.76880  1.0000 -0.0709986646
C   C170      1.0  0.22578  0.96042  0.26880  1.0000 -0.0709986646
C   C171      1.0  0.99890  0.95810  0.62963  1.0000 0.5193640065
C   C172      1.0  0.04190  0.00110  0.12963  1.0000 0.5193640065
C   C173      1.0  0.95570  0.94430  0.55270  1.0000 0.526489604
C   C174      1.0  0.05570  0.04430  0.05270  1.0000 0.526489604
C   C175      1.0  0.95560  0.05380  0.58000  1.0000 0.5193640065
C   C176      1.0  0.94620  0.04440  0.08000  1.0000 0.5193640065
C   C177      1.0  0.58934  0.81666  0.21023  1.0000 0.5886793477
C   C178      1.0  0.18334  0.41066  0.71023  1.0000 0.5886793477
C   C179      1.0  0.60645  0.77807  0.16768  1.0000 -0.0502998562
C   C180      1.0  0.22193  0.39355  0.66768  1.0000 -0.0502998562
C   C181      1.0  0.67297  0.74145  0.16642  1.0000 -0.0709986646
C   C182      1.0  0.25855  0.32703  0.66642  1.0000 -0.0709986646
C   C183      1.0  0.68688  0.70658  0.12597  1.0000 -0.220693599
C   C184      1.0  0.29342  0.31312  0.62597  1.0000 -0.220693599
C   C185      1.0  0.63489  0.70771  0.08582  1.0000 0.2493760359
C   C186      1.0  0.29229  0.36511  0.58582  1.0000 0.2493760359
C   C187      1.0  0.56852  0.74488  0.08657  1.0000 -0.2011668862
C   C188      1.0  0.25512  0.43148  0.58657  1.0000 -0.2011668862
C   C189      1.0  0.55588  0.77934  0.12739  1.0000 -0.0797118673
C   C190      1.0  0.22066  0.44412  0.62739  1.0000 -0.0797118673
C   C191      1.0  0.60630  0.64050  0.01277  1.0000 0.526489604
C   C192      1.0  0.35950  0.39370  0.51277  1.0000 0.526489604
N   N1        1.0  0.53553  0.61821  0.58632  1.0000 -0.3504571694
N   N2        1.0  0.38179  0.46447  0.08632  1.0000 -0.3504571694
N   N3        1.0  0.60840  0.63910  0.52170  1.0000 -0.5211376285
N   N4        1.0  0.36090  0.39160  0.02170  1.0000 -0.5211376285
N   N5        1.0  0.56687  0.52125  0.54836  1.0000 -0.529054489
N   N6        1.0  0.47875  0.43313  0.04836  1.0000 -0.529054489
N   N7        1.0  0.89740  0.93720  0.98123  1.0000 -0.3672388745
N   N8        1.0  0.06280  0.10260  0.48123  1.0000 -0.3672388745
N   N9        1.0  0.60522  0.42366  0.50907  1.0000 -0.3672388745
N   N10       1.0  0.57634  0.39478  0.00907  1.0000 -0.3616323846
N   N11       1.0  0.12590  0.94030  0.93019  1.0000 -0.3672388745
N   N12       1.0  0.05970  0.87410  0.43019  1.0000 -0.3672388745
N   N13       1.0  0.93166  0.02534  0.82369  1.0000 -0.3616323846
N   N14       1.0  0.97466  0.06834  0.32369  1.0000 -0.3616323846
N   N15       1.0  0.91223  0.98657  0.90452  1.0000 -0.5211376285
N   N16       1.0  0.01343  0.08777  0.40452  1.0000 -0.5211376285
N   N17       1.0  0.01440  0.93960  0.95787  1.0000 -0.5211376285
N   N18       1.0  0.06040  0.98560  0.45787  1.0000 -0.5211376285
N   N19       1.0  0.02859  0.98401  0.87452  1.0000 -0.529054489
N   N20       1.0  0.01599  0.97141  0.37452  1.0000 -0.5211376285
N   N21       1.0  0.67385  0.65235  0.45536  1.0000 -0.3616323846
N   N22       1.0  0.34765  0.32615  0.95536  1.0000 -0.3616323846
N   N23       1.0  0.63970  0.53558  0.48129  1.0000 -0.529054489
N   N24       1.0  0.46442  0.36030  0.98129  1.0000 -0.529054489
N   N25       1.0  0.61821  0.53553  0.91368  1.0000 -0.3504571694
N   N26       1.0  0.46447  0.38179  0.41368  1.0000 -0.3504571694
N   N27       1.0  0.63910  0.60840  0.97830  1.0000 -0.5211376285
N   N28       1.0  0.39160  0.36090  0.47830  1.0000 -0.5211376285
N   N29       1.0  0.52125  0.56687  0.95164  1.0000 -0.529054489
N   N30       1.0  0.43313  0.47875  0.45164  1.0000 -0.529054489
N   N31       1.0  0.93720  0.89740  0.51877  1.0000 -0.3672388745
N   N32       1.0  0.10260  0.06280  0.01877  1.0000 -0.3672388745
N   N33       1.0  0.42366  0.60522  0.99093  1.0000 -0.3672388745
N   N34       1.0  0.39478  0.57634  0.49093  1.0000 -0.3672388745
N   N35       1.0  0.94030  0.12590  0.56981  1.0000 -0.3672388745
N   N36       1.0  0.87410  0.05970  0.06981  1.0000 -0.3672388745
N   N37       1.0  0.02534  0.93166  0.67631  1.0000 -0.3616323846
N   N38       1.0  0.06834  0.97466  0.17631  1.0000 -0.3616323846
N   N39       1.0  0.98657  0.91223  0.59548  1.0000 -0.5211376285
N   N40       1.0  0.08777  0.01343  0.09548  1.0000 -0.5211376285
N   N41       1.0  0.93960  0.01440  0.54213  1.0000 -0.5211376285
N   N42       1.0  0.98560  0.06040  0.04213  1.0000 -0.5211376285
N   N43       1.0  0.98401  0.02859  0.62548  1.0000 -0.5211376285
N   N44       1.0  0.97141  0.01599  0.12548  1.0000 -0.5211376285
N   N45       1.0  0.65235  0.67385  0.04464  1.0000 -0.3672388745
N   N46       1.0  0.32615  0.34765  0.54464  1.0000 -0.3616323846
N   N47       1.0  0.53558  0.63970  0.01871  1.0000 -0.529054489
N   N48       1.0  0.36030  0.46442  0.51871  1.0000 -0.529054489
O   O1        1.0  0.51225  0.94797  0.63624  1.0000 -0.5396991395
O   O2        1.0  0.05203  0.48775  0.13624  1.0000 -0.5396991395
O   O3        1.0  0.42328  0.89304  0.67451  1.0000 -0.5211376285
O   O4        1.0  0.10696  0.57672  0.17451  1.0000 -0.5211376285
O   O5        1.0  0.99353  0.70025  0.15657  1.0000 -0.5478958267
O   O6        1.0  0.29975  0.00647  0.65657  1.0000 -0.5478958267
O   O7        1.0  0.87319  0.69759  0.15957  1.0000 -0.5396991395
O   O8        1.0  0.30241  0.12681  0.65957  1.0000 -0.5396991395
O   O9        1.0  0.45306  0.20098  0.65422  1.0000 -0.5396991395
O   O10       1.0  0.79902  0.54694  0.15422  1.0000 -0.5396991395
O   O11       1.0  0.51888  0.12262  0.61908  1.0000 -0.5211376285
O   O12       1.0  0.87738  0.48112  0.11908  1.0000 -0.5211376285
O   O13       1.0  0.33505  0.93977  0.76061  1.0000 -0.5396991395
O   O14       1.0  0.06023  0.66495  0.26061  1.0000 -0.5396991395
O   O15       1.0  0.39956  0.00636  0.81232  1.0000 -0.5694770294
O   O16       1.0  0.99364  0.60044  0.31232  1.0000 -0.5694770294
O   O17       1.0  0.62606  0.03458  0.69460  1.0000 -0.5396991395
O   O18       1.0  0.96542  0.37394  0.19460  1.0000 -0.5396991395
O   O19       1.0  0.59410  0.07586  0.76228  1.0000 -0.5614090937
O   O20       1.0  0.92414  0.40590  0.26228  1.0000 -0.5614090937
O   O21       1.0  0.80873  0.63355  0.25094  1.0000 -0.5396991395
O   O22       1.0  0.36645  0.19127  0.75094  1.0000 -0.5396991395
O   O23       1.0  0.85199  0.53089  0.29306  1.0000 -0.5478958267
O   O24       1.0  0.46911  0.14801  0.79306  1.0000 -0.5478958267
O   O25       1.0  0.44923  0.04895  0.71252  1.0000 -1.0210157114
O   O26       1.0  0.95105  0.55077  0.21252  1.0000 -1.0210157114
O   O27       1.0  0.94797  0.51225  0.86376  1.0000 -0.5396991395
O   O28       1.0  0.48775  0.05203  0.36376  1.0000 -0.5396991395
O   O29       1.0  0.89304  0.42328  0.82549  1.0000 -0.529054489
O   O30       1.0  0.57672  0.10696  0.32549  1.0000 -0.529054489
O   O31       1.0  0.70025  0.99353  0.34343  1.0000 -0.5478958267
O   O32       1.0  0.00647  0.29975  0.84343  1.0000 -0.5478958267
O   O33       1.0  0.69759  0.87319  0.34043  1.0000 -0.5396991395
O   O34       1.0  0.12681  0.30241  0.84043  1.0000 -0.5396991395
O   O35       1.0  0.20098  0.45306  0.84578  1.0000 -0.5396991395
O   O36       1.0  0.54694  0.79902  0.34578  1.0000 -0.5396991395
O   O37       1.0  0.12262  0.51888  0.88092  1.0000 -0.5211376285
O   O38       1.0  0.48112  0.87738  0.38092  1.0000 -0.5211376285
O   O39       1.0  0.93977  0.33505  0.73939  1.0000 -0.5396991395
O   O40       1.0  0.66495  0.06023  0.23939  1.0000 -0.5396991395
O   O41       1.0  0.00636  0.39956  0.68768  1.0000 -0.5694770294
O   O42       1.0  0.60044  0.99364  0.18768  1.0000 -0.5694770294
O   O43       1.0  0.03458  0.62606  0.80540  1.0000 -0.529054489
O   O44       1.0  0.37394  0.96542  0.30540  1.0000 -0.529054489
O   O45       1.0  0.07586  0.59410  0.73772  1.0000 -0.5614090937
O   O46       1.0  0.40590  0.92414  0.23772  1.0000 -0.5614090937
O   O47       1.0  0.63355  0.80873  0.24906  1.0000 -0.5396991395
O   O48       1.0  0.19127  0.36645  0.74906  1.0000 -0.5396991395
O   O49       1.0  0.53089  0.85199  0.20694  1.0000 -0.5478958267
O   O50       1.0  0.14801  0.46911  0.70694  1.0000 -0.5478958267
O   O51       1.0  0.04895  0.44923  0.78748  1.0000 -1.0210157114
O   O52       1.0  0.55077  0.95105  0.28748  1.0000 -1.0210157114
