# DDEC6 charges by PACMAN v1.1 (https://github.com/mtap-research/PACMAN-charge/)
data_2015[Cd][scu]3[ASR]1
_chemical_formula_sum              "Cd6 H8 C40 O32"
_cell_length_a       14.1463
_cell_length_b       14.1463
_cell_length_c       14.1463
_cell_angle_alpha    145.773
_cell_angle_beta     104.386
_cell_angle_gamma    85.6838

_symmetry_space_group_name_H-M    "P 1"
_symmetry_Int_Tables_number       1

loop_
  _symmetry_equiv_pos_as_xyz
  'x, y, z'

loop_
  _atom_site_type_symbol
  _atom_site_label
  _atom_site_symmetry_multiplicity
  _atom_site_fract_x
  _atom_site_fract_y
  _atom_site_fract_z
  _atom_site_occupancy
  _atom_site_charge
Cd  Cd1       1.0  0.25000  0.50000  0.75000  1.0000 1.0074572258
Cd  Cd2       1.0  0.75000  0.50000  0.25000  1.0000 1.0074572258
Cd  Cd3       1.0  0.95250  0.70250  0.25000  1.0000 1.0954140119
Cd  Cd4       1.0  0.54750  0.29750  0.25000  1.0000 1.0954140119
Cd  Cd5       1.0  0.04750  0.29750  0.75000  1.0000 1.0954140119
Cd  Cd6       1.0  0.45250  0.70250  0.75000  1.0000 1.0954140119
H   H1        1.0  0.93990  0.49290  0.55300  1.0000 0.1472653218
H   H2        1.0  0.06010  0.50710  0.44700  1.0000 0.1472653218
H   H3        1.0  0.56010  0.61310  0.05300  1.0000 0.1472653218
H   H4        1.0  0.43990  0.38690  0.94700  1.0000 0.1472653218
H   H5        1.0  0.76280  0.65090  0.88810  1.0000 0.1472653218
H   H6        1.0  0.23720  0.34910  0.11190  1.0000 0.1472653218
H   H7        1.0  0.73720  0.12530  0.38810  1.0000 0.1472653218
H   H8        1.0  0.26280  0.87470  0.61190  1.0000 0.1472653218
C   C1        1.0  0.05100  0.51220  0.74140  1.0000 0.5852312736
C   C2        1.0  0.22920  0.48780  0.53880  1.0000 0.5852312736
C   C3        1.0  0.44900  0.69040  0.96120  1.0000 0.5852312736
C   C4        1.0  0.27080  0.30960  0.75860  1.0000 0.5852312736
C   C5        1.0  0.94900  0.48780  0.25860  1.0000 0.5852312736
C   C6        1.0  0.77080  0.51220  0.46120  1.0000 0.5852312736
C   C7        1.0  0.55100  0.30960  0.03880  1.0000 0.5852312736
C   C8        1.0  0.72920  0.69040  0.24140  1.0000 0.5852312736
C   C9        1.0  0.90320  0.52030  0.61710  1.0000 -0.1186475016
C   C10       1.0  0.09680  0.47970  0.38290  1.0000 -0.1186475016
C   C11       1.0  0.59680  0.71390  0.11710  1.0000 -0.1186475016
C   C12       1.0  0.40320  0.28610  0.88290  1.0000 -0.1186475016
C   C13       1.0  0.94669  0.54029  0.73400  1.0000 0.0067189575
C   C14       1.0  0.19371  0.45971  0.40640  1.0000 0.0067189575
C   C15       1.0  0.55331  0.78731  0.09360  1.0000 0.0067189575
C   C16       1.0  0.30629  0.21269  0.76600  1.0000 0.0067189575
C   C17       1.0  0.05331  0.45971  0.26600  1.0000 0.0067189575
C   C18       1.0  0.80629  0.54029  0.59360  1.0000 0.0067189575
C   C19       1.0  0.44669  0.21269  0.90640  1.0000 0.0067189575
C   C20       1.0  0.69371  0.78731  0.23400  1.0000 0.0067189575
C   C21       1.0  0.89286  0.58766  0.83560  1.0000 -0.0341365084
C   C22       1.0  0.24794  0.41234  0.30520  1.0000 -0.0341365084
C   C23       1.0  0.60714  0.94274  0.19480  1.0000 -0.0341365084
C   C24       1.0  0.25206  0.05726  0.66440  1.0000 -0.0341365084
C   C25       1.0  0.10714  0.41234  0.16440  1.0000 -0.0341365084
C   C26       1.0  0.75206  0.58766  0.69480  1.0000 -0.0341365084
C   C27       1.0  0.39286  0.05726  0.80520  1.0000 -0.0341365084
C   C28       1.0  0.74794  0.94274  0.33560  1.0000 -0.0341365084
C   C29       1.0  0.79740  0.61430  0.81690  1.0000 -0.0699192553
C   C30       1.0  0.20260  0.38570  0.18310  1.0000 -0.0699192553
C   C31       1.0  0.70260  0.01950  0.31690  1.0000 -0.0699192553
C   C32       1.0  0.29740  0.98050  0.68310  1.0000 -0.0699192553
C   C33       1.0  0.93984  0.61764  0.96860  1.0000 0.5983203642
C   C34       1.0  0.35096  0.38236  0.32220  1.0000 0.5983203642
C   C35       1.0  0.56016  0.02876  0.17780  1.0000 0.5983203642
C   C36       1.0  0.14904  0.97124  0.53140  1.0000 0.5983203642
C   C37       1.0  0.06016  0.38236  0.03140  1.0000 0.5983203642
C   C38       1.0  0.64904  0.61764  0.67780  1.0000 0.5983203642
C   C39       1.0  0.43984  0.97124  0.82220  1.0000 0.5983203642
C   C40       1.0  0.85096  0.02876  0.46860  1.0000 0.5983203642
O   O1        1.0  0.12181  0.63574  0.83747  1.0000 -0.4667104192
O   O2        1.0  0.20173  0.36426  0.48607  1.0000 -0.4667104192
O   O3        1.0  0.37819  0.71566  0.01393  1.0000 -0.4667104192
O   O4        1.0  0.29827  0.28434  0.66253  1.0000 -0.4667104192
O   O5        1.0  0.87819  0.36426  0.16253  1.0000 -0.4667104192
O   O6        1.0  0.79827  0.63574  0.51393  1.0000 -0.4667104192
O   O7        1.0  0.62181  0.28434  0.98607  1.0000 -0.4667104192
O   O8        1.0  0.70173  0.71566  0.33747  1.0000 -0.4667104192
O   O9        1.0  0.06213  0.36203  0.63850  1.0000 -0.5140838929
O   O10       1.0  0.27647  0.63797  0.70010  1.0000 -0.5140838929
O   O11       1.0  0.43787  0.57637  0.79990  1.0000 -0.5140838929
O   O12       1.0  0.22353  0.42363  0.86150  1.0000 -0.5140838929
O   O13       1.0  0.93787  0.63797  0.36150  1.0000 -0.5140838929
O   O14       1.0  0.72353  0.36203  0.29990  1.0000 -0.5140838929
O   O15       1.0  0.56213  0.42363  0.20010  1.0000 -0.5140838929
O   O16       1.0  0.77647  0.57637  0.13850  1.0000 -0.5140838929
O   O17       1.0  0.02062  0.57523  0.96859  1.0000 -0.5268014975
O   O18       1.0  0.39336  0.42477  0.44539  1.0000 -0.5268014975
O   O19       1.0  0.47938  0.94797  0.05461  1.0000 -0.5268014975
O   O20       1.0  0.10664  0.05203  0.53141  1.0000 -0.5268014975
O   O21       1.0  0.97938  0.42477  0.03141  1.0000 -0.5268014975
O   O22       1.0  0.60664  0.57523  0.55461  1.0000 -0.5268014975
O   O23       1.0  0.52062  0.05203  0.94539  1.0000 -0.5268014975
O   O24       1.0  0.89336  0.94797  0.46859  1.0000 -0.5268014975
O   O25       1.0  0.89660  0.68976  0.07744  1.0000 -0.5010915331
O   O26       1.0  0.38768  0.31024  0.20684  1.0000 -0.5010915331
O   O27       1.0  0.60340  0.18084  0.29316  1.0000 -0.5010915331
O   O28       1.0  0.11232  0.81916  0.42256  1.0000 -0.5010915331
O   O29       1.0  0.10340  0.31024  0.92256  1.0000 -0.5010915331
O   O30       1.0  0.61232  0.68976  0.79316  1.0000 -0.5010915331
O   O31       1.0  0.39660  0.81916  0.70684  1.0000 -0.5010915331
O   O32       1.0  0.88768  0.18084  0.57744  1.0000 -0.5010915331
