# DDEC6 charges by PACMAN v1.1 (https://github.com/mtap-research/PACMAN-charge/)
data_2016[Bi][nan]3[ASR]1
_chemical_formula_sum              "Bi8 C28 O56"
_cell_length_a       13.4913
_cell_length_b       11.482
_cell_length_c       15.2321
_cell_angle_alpha    90
_cell_angle_beta     114.52
_cell_angle_gamma    90

_symmetry_space_group_name_H-M    "P 1"
_symmetry_Int_Tables_number       1

loop_
  _symmetry_equiv_pos_as_xyz
  'x, y, z'

loop_
  _atom_site_type_symbol
  _atom_site_label
  _atom_site_symmetry_multiplicity
  _atom_site_fract_x
  _atom_site_fract_y
  _atom_site_fract_z
  _atom_site_occupancy
  _atom_site_charge
Bi  Bi1       1.0  0.16826  0.50051  0.00502  1.0000 1.5399722916
Bi  Bi2       1.0  0.33174  0.00051  0.99498  1.0000 1.5222345056
Bi  Bi3       1.0  0.83174  0.49949  0.99498  1.0000 1.5399722916
Bi  Bi4       1.0  0.66826  0.99949  0.00502  1.0000 1.5399722916
Bi  Bi5       1.0  0.17426  0.47021  0.42426  1.0000 1.6007812382
Bi  Bi6       1.0  0.32574  0.97021  0.57574  1.0000 1.6007812382
Bi  Bi7       1.0  0.82574  0.52979  0.57574  1.0000 1.6007812382
Bi  Bi8       1.0  0.67426  0.02979  0.42426  1.0000 1.6007812382
C   C1        1.0  0.19100  0.22470  0.99280  1.0000 0.5004430163
C   C2        1.0  0.30900  0.72470  0.00720  1.0000 0.5004430163
C   C3        1.0  0.80900  0.77530  0.00720  1.0000 0.5081750017
C   C4        1.0  0.69100  0.27530  0.99280  1.0000 0.5081750017
C   C5        1.0  0.30470  0.27580  0.01100  1.0000 0.5004430163
C   C6        1.0  0.19530  0.77580  0.98900  1.0000 0.5004430163
C   C7        1.0  0.69530  0.72420  0.98900  1.0000 0.5004430163
C   C8        1.0  0.80470  0.22420  0.01100  1.0000 0.5004430163
C   C9        1.0  0.10400  0.49480  0.18800  1.0000 0.5004430163
C   C10       1.0  0.39600  0.99480  0.81200  1.0000 0.5004430163
C   C11       1.0  0.89600  0.50520  0.81200  1.0000 0.5004430163
C   C12       1.0  0.60400  0.00520  0.18800  1.0000 0.5004430163
C   C13       1.0  0.22720  0.52760  0.22800  1.0000 0.5004430163
C   C14       1.0  0.27280  0.02760  0.77200  1.0000 0.5004430163
C   C15       1.0  0.77280  0.47240  0.77200  1.0000 0.5004430163
C   C16       1.0  0.72720  0.97240  0.22800  1.0000 0.5004430163
C   C17       1.0  0.31180  0.69580  0.51020  1.0000 0.5004430163
C   C18       1.0  0.18820  0.19580  0.48980  1.0000 0.5004430163
C   C19       1.0  0.68820  0.30420  0.48980  1.0000 0.5004430163
C   C20       1.0  0.81180  0.80420  0.51020  1.0000 0.5004430163
C   C21       1.0  0.19710  0.74110  0.44720  1.0000 0.5004430163
C   C22       1.0  0.30290  0.24110  0.55280  1.0000 0.5004430163
C   C23       1.0  0.80290  0.25890  0.55280  1.0000 0.5004430163
C   C24       1.0  0.69710  0.75890  0.44720  1.0000 0.5004430163
C   C25       1.0  0.04510  0.50930  0.55050  1.0000 0.5081750017
C   C26       1.0  0.45490  0.00930  0.44950  1.0000 0.5081750017
C   C27       1.0  0.95490  0.49070  0.44950  1.0000 0.5081750017
C   C28       1.0  0.54510  0.99070  0.55050  1.0000 0.5081750017
O   O1        1.0  0.12090  0.29340  0.99470  1.0000 -0.489902615
O   O2        1.0  0.37910  0.79340  0.00530  1.0000 -0.489902615
O   O3        1.0  0.87910  0.70660  0.00530  1.0000 -0.489902615
O   O4        1.0  0.62090  0.20660  0.99470  1.0000 -0.489902615
O   O5        1.0  0.17980  0.11760  0.98070  1.0000 -0.441183094
O   O6        1.0  0.32020  0.61760  0.01930  1.0000 -0.441183094
O   O7        1.0  0.82020  0.88240  0.01930  1.0000 -0.441183094
O   O8        1.0  0.67980  0.38240  0.98070  1.0000 -0.441183094
O   O9        1.0  0.31890  0.38180  0.02940  1.0000 -0.4515482796
O   O10       1.0  0.18110  0.88180  0.97060  1.0000 -0.4515482796
O   O11       1.0  0.68110  0.61820  0.97060  1.0000 -0.4515482796
O   O12       1.0  0.81890  0.11820  0.02940  1.0000 -0.4515482796
O   O13       1.0  0.37390  0.20850  0.00500  1.0000 -0.489902615
O   O14       1.0  0.12610  0.70850  0.99500  1.0000 -0.489902615
O   O15       1.0  0.62610  0.79150  0.99500  1.0000 -0.489902615
O   O16       1.0  0.87390  0.29150  0.00500  1.0000 -0.489902615
O   O17       1.0  0.05490  0.48860  0.09660  1.0000 -0.5337669788
O   O18       1.0  0.44510  0.98860  0.90340  1.0000 -0.5337669788
O   O19       1.0  0.94510  0.51140  0.90340  1.0000 -0.5337669788
O   O20       1.0  0.55490  0.01140  0.09660  1.0000 -0.5337669788
O   O21       1.0  0.06350  0.48220  0.24620  1.0000 -0.4718787535
O   O22       1.0  0.43650  0.98220  0.75380  1.0000 -0.4718787535
O   O23       1.0  0.93650  0.51780  0.75380  1.0000 -0.4718787535
O   O24       1.0  0.56350  0.01780  0.24620  1.0000 -0.4718787535
O   O25       1.0  0.27220  0.52410  0.16880  1.0000 -0.489902615
O   O26       1.0  0.22780  0.02410  0.83120  1.0000 -0.489902615
O   O27       1.0  0.72780  0.47590  0.83120  1.0000 -0.489902615
O   O28       1.0  0.77220  0.97590  0.16880  1.0000 -0.489902615
O   O29       1.0  0.27440  0.55100  0.31440  1.0000 -0.4806828139
O   O30       1.0  0.22560  0.05100  0.68560  1.0000 -0.4806828139
O   O31       1.0  0.72560  0.44900  0.68560  1.0000 -0.4806828139
O   O32       1.0  0.77440  0.94900  0.31440  1.0000 -0.4806828139
O   O33       1.0  0.32300  0.58810  0.52220  1.0000 -0.441183094
O   O34       1.0  0.17700  0.08810  0.47780  1.0000 -0.441183094
O   O35       1.0  0.67700  0.41190  0.47780  1.0000 -0.441183094
O   O36       1.0  0.82300  0.91190  0.52220  1.0000 -0.441183094
O   O37       1.0  0.38490  0.76930  0.54290  1.0000 -0.4977505146
O   O38       1.0  0.11510  0.26930  0.45710  1.0000 -0.4977505146
O   O39       1.0  0.61510  0.23070  0.45710  1.0000 -0.4977505146
O   O40       1.0  0.88490  0.73070  0.54290  1.0000 -0.4977505146
O   O41       1.0  0.12320  0.66590  0.40240  1.0000 -0.489902615
O   O42       1.0  0.37680  0.16590  0.59760  1.0000 -0.489902615
O   O43       1.0  0.87680  0.33410  0.59760  1.0000 -0.489902615
O   O44       1.0  0.62320  0.83410  0.40240  1.0000 -0.489902615
O   O45       1.0  0.18300  0.84760  0.43970  1.0000 -0.4515482796
O   O46       1.0  0.31700  0.34760  0.56030  1.0000 -0.4515482796
O   O47       1.0  0.81700  0.15240  0.56030  1.0000 -0.4515482796
O   O48       1.0  0.68300  0.65240  0.43970  1.0000 -0.4515482796
O   O49       1.0  0.14170  0.50590  0.55990  1.0000 -0.4806828139
O   O50       1.0  0.35830  0.00590  0.44010  1.0000 -0.4806828139
O   O51       1.0  0.85830  0.49410  0.44010  1.0000 -0.4806828139
O   O52       1.0  0.64170  0.99410  0.55990  1.0000 -0.4806828139
O   O53       1.0  0.01660  0.52710  0.61820  1.0000 -0.441183094
O   O54       1.0  0.48340  0.02710  0.38180  1.0000 -0.441183094
O   O55       1.0  0.98340  0.47290  0.38180  1.0000 -0.441183094
O   O56       1.0  0.51660  0.97290  0.61820  1.0000 -0.441183094
