# DDEC6 charges by PACMAN v1.1 (https://github.com/mtap-research/PACMAN-charge/)
data_2016[Cd][nan]3[ASR]36
_chemical_formula_sum              "Cd4 H36 C56 Br4 N12 O16"
_cell_length_a       15.466
_cell_length_b       8.0557
_cell_length_c       18.445
_cell_angle_alpha    90
_cell_angle_beta     123.605
_cell_angle_gamma    90

_symmetry_space_group_name_H-M    "P 1"
_symmetry_Int_Tables_number       1

loop_
  _symmetry_equiv_pos_as_xyz
  'x, y, z'

loop_
  _atom_site_type_symbol
  _atom_site_label
  _atom_site_symmetry_multiplicity
  _atom_site_fract_x
  _atom_site_fract_y
  _atom_site_fract_z
  _atom_site_occupancy
  _atom_site_charge
Cd  Cd1       1.0  0.97428  0.38995  0.13416  1.0000 0.9613135324
Cd  Cd2       1.0  0.02572  0.88995  0.36584  1.0000 0.9613135324
Cd  Cd3       1.0  0.02572  0.61005  0.86584  1.0000 0.9613135324
Cd  Cd4       1.0  0.97428  0.11005  0.63416  1.0000 0.9613135324
H   H1        1.0  0.04060  0.89890  0.10880  1.0000 0.1291670816
H   H2        1.0  0.95940  0.39890  0.39120  1.0000 0.1291670816
H   H3        1.0  0.95940  0.10110  0.89120  1.0000 0.1291670816
H   H4        1.0  0.04060  0.60110  0.60880  1.0000 0.1291670816
H   H5        1.0  0.28530  0.97300  0.09270  1.0000 0.1206139436
H   H6        1.0  0.71470  0.47300  0.40730  1.0000 0.1206139436
H   H7        1.0  0.71470  0.02700  0.90730  1.0000 0.1206139436
H   H8        1.0  0.28530  0.52700  0.59270  1.0000 0.1206139436
H   H9        1.0  0.36780  0.11860  0.22140  1.0000 0.1291670816
H   H10       1.0  0.63220  0.61860  0.27860  1.0000 0.1291670816
H   H11       1.0  0.63220  0.88140  0.77860  1.0000 0.1291670816
H   H12       1.0  0.36780  0.38140  0.72140  1.0000 0.1291670816
H   H13       1.0  0.15360  0.62780  0.30390  1.0000 0.136902447
H   H14       1.0  0.84640  0.12780  0.19610  1.0000 0.136902447
H   H15       1.0  0.84640  0.37220  0.69610  1.0000 0.136902447
H   H16       1.0  0.15360  0.87220  0.80390  1.0000 0.136902447
H   H17       1.0  0.18820  0.44920  0.12730  1.0000 0.1206139436
H   H18       1.0  0.81180  0.94920  0.37270  1.0000 0.1206139436
H   H19       1.0  0.81180  0.55080  0.87270  1.0000 0.1206139436
H   H20       1.0  0.18820  0.05080  0.62730  1.0000 0.1206139436
H   H21       1.0  0.39270  0.80760  0.35160  1.0000 0.1291670816
H   H22       1.0  0.60730  0.30760  0.14840  1.0000 0.1291670816
H   H23       1.0  0.60730  0.19240  0.64840  1.0000 0.1291670816
H   H24       1.0  0.39270  0.69240  0.85160  1.0000 0.1291670816
H   H25       1.0  0.32480  0.80400  0.39080  1.0000 0.136902447
H   H26       1.0  0.67520  0.30400  0.10920  1.0000 0.136902447
H   H27       1.0  0.67520  0.19600  0.60920  1.0000 0.136902447
H   H28       1.0  0.32480  0.69600  0.89080  1.0000 0.136902447
H   H29       1.0  0.53510  0.60790  0.40400  1.0000 0.1291670816
H   H30       1.0  0.46490  0.10790  0.09600  1.0000 0.1291670816
H   H31       1.0  0.46490  0.39210  0.59600  1.0000 0.1291670816
H   H32       1.0  0.53510  0.89210  0.90400  1.0000 0.1291670816
H   H33       1.0  0.35510  0.58480  0.49440  1.0000 0.136902447
H   H34       1.0  0.64490  0.08480  0.00560  1.0000 0.136902447
H   H35       1.0  0.64490  0.41520  0.50560  1.0000 0.136902447
H   H36       1.0  0.35510  0.91520  0.99440  1.0000 0.136902447
C   C1        1.0  0.15517  0.03130  0.20973  1.0000 -0.088817225
C   C2        1.0  0.84483  0.53130  0.29027  1.0000 -0.088817225
C   C3        1.0  0.84483  0.96870  0.79027  1.0000 -0.088817225
C   C4        1.0  0.15517  0.46870  0.70973  1.0000 -0.088817225
C   C5        1.0  0.10670  0.94210  0.13185  1.0000 -0.1022279246
C   C6        1.0  0.89330  0.44210  0.36815  1.0000 -0.1022279246
C   C7        1.0  0.89330  0.05790  0.86815  1.0000 -0.1022279246
C   C8        1.0  0.10670  0.55790  0.63185  1.0000 -0.1022279246
C   C9        1.0  0.15520  0.91670  0.08837  1.0000 -0.0148143431
C   C10       1.0  0.84480  0.41670  0.41163  1.0000 -0.0148143431
C   C11       1.0  0.84480  0.08330  0.91163  1.0000 -0.0148143431
C   C12       1.0  0.15520  0.58330  0.58837  1.0000 -0.0148143431
C   C13       1.0  0.25300  0.98610  0.12244  1.0000 -0.088817225
C   C14       1.0  0.74700  0.48610  0.37756  1.0000 -0.088817225
C   C15       1.0  0.74700  0.01390  0.87756  1.0000 -0.088817225
C   C16       1.0  0.25300  0.51390  0.62244  1.0000 -0.088817225
C   C17       1.0  0.30230  0.07360  0.19910  1.0000 -0.1645245833
C   C18       1.0  0.69770  0.57360  0.30090  1.0000 -0.1653961821
C   C19       1.0  0.69770  0.92640  0.80090  1.0000 -0.1653961821
C   C20       1.0  0.30230  0.42640  0.69910  1.0000 -0.1653961821
C   C21       1.0  0.25360  0.09420  0.24287  1.0000 0.0584842728
C   C22       1.0  0.74640  0.59420  0.25713  1.0000 0.0584842728
C   C23       1.0  0.74640  0.90580  0.75713  1.0000 0.0584842728
C   C24       1.0  0.25360  0.40580  0.74287  1.0000 0.0584842728
C   C25       1.0  0.09930  0.05110  0.25595  1.0000 0.5846249329
C   C26       1.0  0.90070  0.55110  0.24405  1.0000 0.5846249329
C   C27       1.0  0.90070  0.94890  0.74405  1.0000 0.5846249329
C   C28       1.0  0.09930  0.44890  0.75595  1.0000 0.5846249329
C   C29       1.0  0.10540  0.81130  0.00763  1.0000 0.5428037809
C   C30       1.0  0.89460  0.31130  0.49237  1.0000 0.5428037809
C   C31       1.0  0.89460  0.18870  0.99237  1.0000 0.5428037809
C   C32       1.0  0.10540  0.68870  0.50763  1.0000 0.5428037809
C   C33       1.0  0.18050  0.60030  0.27110  1.0000 0.1005614379
C   C34       1.0  0.81950  0.10030  0.22890  1.0000 0.1005614379
C   C35       1.0  0.81950  0.39970  0.72890  1.0000 0.1005614379
C   C36       1.0  0.18050  0.89970  0.77110  1.0000 0.1005614379
C   C37       1.0  0.20120  0.50470  0.17663  1.0000 0.1500100584
C   C38       1.0  0.79880  0.00470  0.32337  1.0000 0.1500100584
C   C39       1.0  0.79880  0.49530  0.82337  1.0000 0.1500100584
C   C40       1.0  0.20120  0.99530  0.67663  1.0000 0.1500100584
C   C41       1.0  0.35600  0.73540  0.36790  1.0000 -0.1921697242
C   C42       1.0  0.64400  0.23540  0.13210  1.0000 -0.1921697242
C   C43       1.0  0.64400  0.26460  0.63210  1.0000 -0.1921697242
C   C44       1.0  0.35600  0.76460  0.86790  1.0000 -0.1921697242
C   C45       1.0  0.43200  0.61470  0.43770  1.0000 0.0908947566
C   C46       1.0  0.56800  0.11470  0.06230  1.0000 0.0908947566
C   C47       1.0  0.56800  0.38530  0.56230  1.0000 0.0908947566
C   C48       1.0  0.43200  0.88530  0.93770  1.0000 0.0908947566
C   C49       1.0  0.52010  0.56430  0.44250  1.0000 -0.1401100664
C   C50       1.0  0.47990  0.06430  0.05750  1.0000 -0.1401100664
C   C51       1.0  0.47990  0.43570  0.55750  1.0000 -0.1401100664
C   C52       1.0  0.52010  0.93570  0.94250  1.0000 -0.1401100664
C   C53       1.0  0.41350  0.55060  0.49590  1.0000 -0.1475449262
C   C54       1.0  0.58650  0.05060  0.00410  1.0000 -0.1475449262
C   C55       1.0  0.58650  0.44940  0.50410  1.0000 -0.1475449262
C   C56       1.0  0.41350  0.94940  0.99590  1.0000 -0.1475449262
Br  Br1       1.0  0.32600  0.20611  0.35179  1.0000 -0.0577293376
Br  Br2       1.0  0.67400  0.70611  0.14821  1.0000 -0.0577293376
Br  Br3       1.0  0.67400  0.79389  0.64821  1.0000 -0.0577293376
Br  Br4       1.0  0.32600  0.29389  0.85179  1.0000 -0.0577293376
N   N1        1.0  0.13163  0.51120  0.19859  1.0000 -0.3496289535
N   N2        1.0  0.86837  0.01120  0.30141  1.0000 -0.3496289535
N   N3        1.0  0.86837  0.48880  0.80141  1.0000 -0.3496289535
N   N4        1.0  0.13163  0.98880  0.69859  1.0000 -0.3496289535
N   N5        1.0  0.28910  0.58260  0.23012  1.0000 -0.2632714046
N   N6        1.0  0.71090  0.08260  0.26988  1.0000 -0.2632714046
N   N7        1.0  0.71090  0.41740  0.76988  1.0000 -0.2632714046
N   N8        1.0  0.28910  0.91740  0.73012  1.0000 -0.2632714046
N   N9        1.0  0.27340  0.64430  0.29004  1.0000 0.1735101657
N   N10       1.0  0.72660  0.14430  0.20996  1.0000 0.1735101657
N   N11       1.0  0.72660  0.35570  0.70996  1.0000 0.1735101657
N   N12       1.0  0.27340  0.85570  0.79004  1.0000 0.1735101657
O   O1        1.0  0.03758  0.16730  0.23636  1.0000 -0.5539116545
O   O2        1.0  0.96242  0.66730  0.26364  1.0000 -0.5539116545
O   O3        1.0  0.96242  0.83270  0.76364  1.0000 -0.5539116545
O   O4        1.0  0.03758  0.33270  0.73636  1.0000 -0.5539116545
O   O5        1.0  0.12061  0.94210  0.31231  1.0000 -0.541846676
O   O6        1.0  0.87939  0.44210  0.18769  1.0000 -0.541846676
O   O7        1.0  0.87939  0.05790  0.68769  1.0000 -0.541846676
O   O8        1.0  0.12061  0.55790  0.81231  1.0000 -0.541846676
O   O9        1.0  0.02372  0.73210  0.98349  1.0000 -0.5623693747
O   O10       1.0  0.97628  0.23210  0.51651  1.0000 -0.5623693747
O   O11       1.0  0.97628  0.26790  0.01651  1.0000 -0.5623693747
O   O12       1.0  0.02372  0.76790  0.48349  1.0000 -0.5623693747
O   O13       1.0  0.14716  0.80610  0.96462  1.0000 -0.5623693747
O   O14       1.0  0.85284  0.30610  0.53538  1.0000 -0.5623693747
O   O15       1.0  0.85284  0.19390  0.03538  1.0000 -0.5623693747
O   O16       1.0  0.14716  0.69390  0.46462  1.0000 -0.5623693747
