# DDEC6 charges by PACMAN v1.1 (https://github.com/mtap-research/PACMAN-charge/)
data_2016[Ag][nan]3[ASR]10
_chemical_formula_sum              "Ag64 H256 C384 N64 O128"
_cell_length_a       14.2327
_cell_length_b       23.828
_cell_length_c       30.749
_cell_angle_alpha    90
_cell_angle_beta     90
_cell_angle_gamma    90

_symmetry_space_group_name_H-M    "P 1"
_symmetry_Int_Tables_number       1

loop_
  _symmetry_equiv_pos_as_xyz
  'x, y, z'

loop_
  _atom_site_type_symbol
  _atom_site_label
  _atom_site_symmetry_multiplicity
  _atom_site_fract_x
  _atom_site_fract_y
  _atom_site_fract_z
  _atom_site_occupancy
  _atom_site_charge
Ag  Ag1       1.0  0.30040  0.93458  0.01933  1.0000 0.4256465718
Ag  Ag2       1.0  0.19960  0.56542  0.01933  1.0000 0.4256465718
Ag  Ag3       1.0  0.80040  0.06542  0.48067  1.0000 0.4256465718
Ag  Ag4       1.0  0.69960  0.43458  0.48067  1.0000 0.4256465718
Ag  Ag5       1.0  0.69960  0.06542  0.98067  1.0000 0.4256465718
Ag  Ag6       1.0  0.80040  0.43458  0.98067  1.0000 0.4256465718
Ag  Ag7       1.0  0.19960  0.93458  0.51933  1.0000 0.4256465718
Ag  Ag8       1.0  0.30040  0.56542  0.51933  1.0000 0.4256465718
Ag  Ag9       1.0  0.14867  0.76627  0.21115  1.0000 0.376454581
Ag  Ag10      1.0  0.35133  0.73373  0.21115  1.0000 0.376454581
Ag  Ag11      1.0  0.64867  0.23373  0.28885  1.0000 0.376454581
Ag  Ag12      1.0  0.85133  0.26627  0.28885  1.0000 0.376454581
Ag  Ag13      1.0  0.85133  0.23373  0.78885  1.0000 0.376454581
Ag  Ag14      1.0  0.64867  0.26627  0.78885  1.0000 0.376454581
Ag  Ag15      1.0  0.35133  0.76627  0.71115  1.0000 0.376454581
Ag  Ag16      1.0  0.14867  0.73373  0.71115  1.0000 0.376454581
Ag  Ag17      1.0  0.08686  0.72192  0.28924  1.0000 0.3634405718
Ag  Ag18      1.0  0.41314  0.77808  0.28924  1.0000 0.3634405718
Ag  Ag19      1.0  0.58686  0.27808  0.21076  1.0000 0.3634405718
Ag  Ag20      1.0  0.91314  0.22192  0.21076  1.0000 0.3634405718
Ag  Ag21      1.0  0.91314  0.27808  0.71076  1.0000 0.3634405718
Ag  Ag22      1.0  0.58686  0.22192  0.71076  1.0000 0.3634405718
Ag  Ag23      1.0  0.41314  0.72192  0.78924  1.0000 0.3634405718
Ag  Ag24      1.0  0.08686  0.77808  0.78924  1.0000 0.3634405718
Ag  Ag25      1.0  0.97728  0.55544  0.48556  1.0000 0.3915072777
Ag  Ag26      1.0  0.52272  0.94456  0.48556  1.0000 0.3915072777
Ag  Ag27      1.0  0.47728  0.44456  0.01444  1.0000 0.3915072777
Ag  Ag28      1.0  0.02272  0.05544  0.01444  1.0000 0.3915072777
Ag  Ag29      1.0  0.02272  0.44456  0.51444  1.0000 0.3915072777
Ag  Ag30      1.0  0.47728  0.05544  0.51444  1.0000 0.3915072777
Ag  Ag31      1.0  0.52272  0.55544  0.98556  1.0000 0.3915072777
Ag  Ag32      1.0  0.97728  0.94456  0.98556  1.0000 0.3915072777
Ag  Ag33      1.0  0.99913  0.43976  0.02926  1.0000 0.4583647498
Ag  Ag34      1.0  0.50087  0.06024  0.02926  1.0000 0.4583647498
Ag  Ag35      1.0  0.49913  0.56024  0.47074  1.0000 0.4583647498
Ag  Ag36      1.0  0.00087  0.93976  0.47074  1.0000 0.4583647498
Ag  Ag37      1.0  0.00087  0.56024  0.97074  1.0000 0.4583647498
Ag  Ag38      1.0  0.49913  0.93976  0.97074  1.0000 0.4583647498
Ag  Ag39      1.0  0.50087  0.43976  0.52926  1.0000 0.4583647498
Ag  Ag40      1.0  0.99913  0.06024  0.52926  1.0000 0.4583647498
Ag  Ag41      1.0  0.25171  0.04849  0.49359  1.0000 0.4154857979
Ag  Ag42      1.0  0.24829  0.45151  0.49359  1.0000 0.4149681613
Ag  Ag43      1.0  0.75171  0.95151  0.00641  1.0000 0.4154857979
Ag  Ag44      1.0  0.74829  0.54849  0.00641  1.0000 0.4149681613
Ag  Ag45      1.0  0.74829  0.95151  0.50641  1.0000 0.4154857979
Ag  Ag46      1.0  0.75171  0.54849  0.50641  1.0000 0.4154857979
Ag  Ag47      1.0  0.24829  0.04849  0.99359  1.0000 0.4149681613
Ag  Ag48      1.0  0.25171  0.45151  0.99359  1.0000 0.4149681613
Ag  Ag49      1.0  0.88801  0.73915  0.78330  1.0000 0.376454581
Ag  Ag50      1.0  0.61199  0.76085  0.78330  1.0000 0.376454581
Ag  Ag51      1.0  0.38801  0.26085  0.71670  1.0000 0.376454581
Ag  Ag52      1.0  0.11199  0.23915  0.71670  1.0000 0.376454581
Ag  Ag53      1.0  0.11199  0.26085  0.21670  1.0000 0.376454581
Ag  Ag54      1.0  0.38801  0.23915  0.21670  1.0000 0.376454581
Ag  Ag55      1.0  0.61199  0.73915  0.28330  1.0000 0.376454581
Ag  Ag56      1.0  0.88801  0.76085  0.28330  1.0000 0.376454581
Ag  Ag57      1.0  0.84152  0.77754  0.70019  1.0000 0.3486339436
Ag  Ag58      1.0  0.65848  0.72246  0.70019  1.0000 0.3486339436
Ag  Ag59      1.0  0.34152  0.22246  0.79981  1.0000 0.3486339436
Ag  Ag60      1.0  0.15848  0.27754  0.79981  1.0000 0.3486339436
Ag  Ag61      1.0  0.15848  0.22246  0.29981  1.0000 0.3486339436
Ag  Ag62      1.0  0.34152  0.27754  0.29981  1.0000 0.3486339436
Ag  Ag63      1.0  0.65848  0.77754  0.20019  1.0000 0.3486339436
Ag  Ag64      1.0  0.84152  0.72246  0.20019  1.0000 0.3486339436
H   H1        1.0  0.30750  0.91950  0.11590  1.0000 0.1122425053
H   H2        1.0  0.19250  0.58050  0.11590  1.0000 0.1122425053
H   H3        1.0  0.80750  0.08050  0.38410  1.0000 0.1122425053
H   H4        1.0  0.69250  0.41950  0.38410  1.0000 0.1122425053
H   H5        1.0  0.69250  0.08050  0.88410  1.0000 0.1122425053
H   H6        1.0  0.80750  0.41950  0.88410  1.0000 0.1122425053
H   H7        1.0  0.19250  0.91950  0.61590  1.0000 0.1122425053
H   H8        1.0  0.30750  0.58050  0.61590  1.0000 0.1122425053
H   H9        1.0  0.17740  0.81270  0.04110  1.0000 0.119490346
H   H10       1.0  0.32260  0.68730  0.04110  1.0000 0.119490346
H   H11       1.0  0.67740  0.18730  0.45890  1.0000 0.119490346
H   H12       1.0  0.82260  0.31270  0.45890  1.0000 0.119490346
H   H13       1.0  0.82260  0.18730  0.95890  1.0000 0.1122425053
H   H14       1.0  0.67740  0.31270  0.95890  1.0000 0.119490346
H   H15       1.0  0.32260  0.81270  0.54110  1.0000 0.119490346
H   H16       1.0  0.17740  0.68730  0.54110  1.0000 0.119490346
H   H17       1.0  0.26070  0.87010  0.17680  1.0000 0.119490346
H   H18       1.0  0.23930  0.62990  0.17680  1.0000 0.119490346
H   H19       1.0  0.76070  0.12990  0.32320  1.0000 0.119490346
H   H20       1.0  0.73930  0.37010  0.32320  1.0000 0.119490346
H   H21       1.0  0.73930  0.12990  0.82320  1.0000 0.119490346
H   H22       1.0  0.76070  0.37010  0.82320  1.0000 0.119490346
H   H23       1.0  0.23930  0.87010  0.67680  1.0000 0.119490346
H   H24       1.0  0.26070  0.62990  0.67680  1.0000 0.119490346
H   H25       1.0  0.12840  0.76380  0.10040  1.0000 0.119490346
H   H26       1.0  0.37160  0.73620  0.10040  1.0000 0.119490346
H   H27       1.0  0.62840  0.23620  0.39960  1.0000 0.119490346
H   H28       1.0  0.87160  0.26380  0.39960  1.0000 0.119490346
H   H29       1.0  0.87160  0.23620  0.89960  1.0000 0.119490346
H   H30       1.0  0.62840  0.26380  0.89960  1.0000 0.119490346
H   H31       1.0  0.37160  0.76380  0.60040  1.0000 0.119490346
H   H32       1.0  0.12840  0.73620  0.60040  1.0000 0.119490346
H   H33       1.0  0.91720  0.57180  0.23040  1.0000 0.119490346
H   H34       1.0  0.58280  0.92820  0.23040  1.0000 0.119490346
H   H35       1.0  0.41720  0.42820  0.26960  1.0000 0.119490346
H   H36       1.0  0.08280  0.07180  0.26960  1.0000 0.119490346
H   H37       1.0  0.08280  0.42820  0.76960  1.0000 0.119490346
H   H38       1.0  0.41720  0.07180  0.76960  1.0000 0.119490346
H   H39       1.0  0.58280  0.57180  0.73040  1.0000 0.119490346
H   H40       1.0  0.91720  0.92820  0.73040  1.0000 0.119490346
H   H41       1.0  0.03200  0.63840  0.12020  1.0000 0.119490346
H   H42       1.0  0.46800  0.86160  0.12020  1.0000 0.119490346
H   H43       1.0  0.53200  0.36160  0.37980  1.0000 0.119490346
H   H44       1.0  0.96800  0.13840  0.37980  1.0000 0.119490346
H   H45       1.0  0.96800  0.36160  0.87980  1.0000 0.119490346
H   H46       1.0  0.53200  0.13840  0.87980  1.0000 0.119490346
H   H47       1.0  0.46800  0.63840  0.62020  1.0000 0.119490346
H   H48       1.0  0.03200  0.86160  0.62020  1.0000 0.119490346
H   H49       1.0  0.32050  0.90820  0.26330  1.0000 0.1258385713
H   H50       1.0  0.17950  0.59180  0.26330  1.0000 0.1258385713
H   H51       1.0  0.82050  0.09180  0.23670  1.0000 0.1258385713
H   H52       1.0  0.67950  0.40820  0.23670  1.0000 0.1258385713
H   H53       1.0  0.67950  0.09180  0.73670  1.0000 0.1258385713
H   H54       1.0  0.82050  0.40820  0.73670  1.0000 0.1258385713
H   H55       1.0  0.17950  0.90820  0.76330  1.0000 0.1258385713
H   H56       1.0  0.32050  0.59180  0.76330  1.0000 0.1258385713
H   H57       1.0  0.20240  0.86140  0.37610  1.0000 0.1122425053
H   H58       1.0  0.29760  0.63860  0.37610  1.0000 0.1122425053
H   H59       1.0  0.70240  0.13860  0.12390  1.0000 0.1122425053
H   H60       1.0  0.79760  0.36140  0.12390  1.0000 0.1122425053
H   H61       1.0  0.79760  0.13860  0.62390  1.0000 0.1122425053
H   H62       1.0  0.70240  0.36140  0.62390  1.0000 0.1122425053
H   H63       1.0  0.29760  0.86140  0.87610  1.0000 0.1122425053
H   H64       1.0  0.20240  0.63860  0.87610  1.0000 0.1122425053
H   H65       1.0  0.84810  0.50250  0.18710  1.0000 0.1122425053
H   H66       1.0  0.65190  0.99750  0.18710  1.0000 0.1122425053
H   H67       1.0  0.34810  0.49750  0.31290  1.0000 0.1122425053
H   H68       1.0  0.15190  0.00250  0.31290  1.0000 0.1122425053
H   H69       1.0  0.15190  0.49750  0.81290  1.0000 0.1122425053
H   H70       1.0  0.34810  0.00250  0.81290  1.0000 0.1122425053
H   H71       1.0  0.65190  0.50250  0.68710  1.0000 0.1122425053
H   H72       1.0  0.84810  0.99750  0.68710  1.0000 0.1122425053
H   H73       1.0  0.40450  0.98110  0.29760  1.0000 0.1122425053
H   H74       1.0  0.09550  0.51890  0.29760  1.0000 0.1122425053
H   H75       1.0  0.90450  0.01890  0.20240  1.0000 0.1122425053
H   H76       1.0  0.59550  0.48110  0.20240  1.0000 0.1122425053
H   H77       1.0  0.59550  0.01890  0.70240  1.0000 0.1122425053
H   H78       1.0  0.90450  0.48110  0.70240  1.0000 0.1122425053
H   H79       1.0  0.09550  0.98110  0.79760  1.0000 0.1122425053
H   H80       1.0  0.40450  0.51890  0.79760  1.0000 0.1122425053
H   H81       1.0  0.96210  0.62690  0.32990  1.0000 0.119490346
H   H82       1.0  0.53790  0.87310  0.32990  1.0000 0.119490346
H   H83       1.0  0.46210  0.37310  0.17010  1.0000 0.119490346
H   H84       1.0  0.03790  0.12690  0.17010  1.0000 0.119490346
H   H85       1.0  0.03790  0.37310  0.67010  1.0000 0.119490346
H   H86       1.0  0.46210  0.12690  0.67010  1.0000 0.119490346
H   H87       1.0  0.53790  0.62690  0.82990  1.0000 0.119490346
H   H88       1.0  0.96210  0.87310  0.82990  1.0000 0.119490346
H   H89       1.0  0.12520  0.72930  0.39730  1.0000 0.1258385713
H   H90       1.0  0.37480  0.77070  0.39730  1.0000 0.1258385713
H   H91       1.0  0.62520  0.27070  0.10270  1.0000 0.1258385713
H   H92       1.0  0.87480  0.22930  0.10270  1.0000 0.1258385713
H   H93       1.0  0.87480  0.27070  0.60270  1.0000 0.1258385713
H   H94       1.0  0.62520  0.22930  0.60270  1.0000 0.1258385713
H   H95       1.0  0.37480  0.72930  0.89730  1.0000 0.1258385713
H   H96       1.0  0.12520  0.77070  0.89730  1.0000 0.1258385713
H   H97       1.0  0.86440  0.50170  0.11310  1.0000 0.1122425053
H   H98       1.0  0.63560  0.99830  0.11310  1.0000 0.1122425053
H   H99       1.0  0.36440  0.49830  0.38690  1.0000 0.1122425053
H   H100      1.0  0.13560  0.00170  0.38690  1.0000 0.1122425053
H   H101      1.0  0.13560  0.49830  0.88690  1.0000 0.1122425053
H   H102      1.0  0.36440  0.00170  0.88690  1.0000 0.1122425053
H   H103      1.0  0.63560  0.50170  0.61310  1.0000 0.1122425053
H   H104      1.0  0.86440  0.99830  0.61310  1.0000 0.1122425053
H   H105      1.0  0.38110  0.99460  0.37390  1.0000 0.1122425053
H   H106      1.0  0.11890  0.50540  0.37390  1.0000 0.1122425053
H   H107      1.0  0.88110  0.00540  0.12610  1.0000 0.1122425053
H   H108      1.0  0.61890  0.49460  0.12610  1.0000 0.1122425053
H   H109      1.0  0.61890  0.00540  0.62610  1.0000 0.1122425053
H   H110      1.0  0.88110  0.49460  0.62610  1.0000 0.1122425053
H   H111      1.0  0.11890  0.99460  0.87390  1.0000 0.1122425053
H   H112      1.0  0.38110  0.50540  0.87390  1.0000 0.1122425053
H   H113      1.0  0.91420  0.58350  0.39370  1.0000 0.119490346
H   H114      1.0  0.58580  0.91650  0.39370  1.0000 0.119490346
H   H115      1.0  0.41420  0.41650  0.10630  1.0000 0.119490346
H   H116      1.0  0.08580  0.08350  0.10630  1.0000 0.119490346
H   H117      1.0  0.08580  0.41650  0.60630  1.0000 0.119490346
H   H118      1.0  0.41420  0.08350  0.60630  1.0000 0.119490346
H   H119      1.0  0.58580  0.58350  0.89370  1.0000 0.119490346
H   H120      1.0  0.91420  0.91650  0.89370  1.0000 0.119490346
H   H121      1.0  0.08730  0.68130  0.45990  1.0000 0.1122425053
H   H122      1.0  0.41270  0.81870  0.45990  1.0000 0.1122425053
H   H123      1.0  0.58730  0.31870  0.04010  1.0000 0.1122425053
H   H124      1.0  0.91270  0.18130  0.04010  1.0000 0.1122425053
H   H125      1.0  0.91270  0.31870  0.54010  1.0000 0.1122425053
H   H126      1.0  0.58730  0.18130  0.54010  1.0000 0.1122425053
H   H127      1.0  0.41270  0.68130  0.95990  1.0000 0.1122425053
H   H128      1.0  0.08730  0.81870  0.95990  1.0000 0.1122425053
H   H129      1.0  0.13230  0.49750  0.63890  1.0000 0.1122425053
H   H130      1.0  0.36770  0.00250  0.63890  1.0000 0.1122425053
H   H131      1.0  0.63230  0.50250  0.86110  1.0000 0.1122425053
H   H132      1.0  0.86770  0.99750  0.86110  1.0000 0.1122425053
H   H133      1.0  0.86770  0.50250  0.36110  1.0000 0.1122425053
H   H134      1.0  0.63230  0.99750  0.36110  1.0000 0.1122425053
H   H135      1.0  0.36770  0.49750  0.13890  1.0000 0.1122425053
H   H136      1.0  0.13230  0.00250  0.13890  1.0000 0.1122425053
H   H137      1.0  0.96790  0.63330  0.62450  1.0000 0.119490346
H   H138      1.0  0.53210  0.86670  0.62450  1.0000 0.119490346
H   H139      1.0  0.46790  0.36670  0.87550  1.0000 0.119490346
H   H140      1.0  0.03210  0.13330  0.87550  1.0000 0.119490346
H   H141      1.0  0.03210  0.36670  0.37550  1.0000 0.119490346
H   H142      1.0  0.46790  0.13330  0.37550  1.0000 0.119490346
H   H143      1.0  0.53210  0.63330  0.12450  1.0000 0.119490346
H   H144      1.0  0.96790  0.86670  0.12450  1.0000 0.119490346
H   H145      1.0  0.91990  0.68580  0.95360  1.0000 0.119490346
H   H146      1.0  0.58010  0.81420  0.95360  1.0000 0.119490346
H   H147      1.0  0.41990  0.31420  0.54640  1.0000 0.119490346
H   H148      1.0  0.08010  0.18580  0.54640  1.0000 0.119490346
H   H149      1.0  0.08010  0.31420  0.04640  1.0000 0.119490346
H   H150      1.0  0.41990  0.18580  0.04640  1.0000 0.119490346
H   H151      1.0  0.58010  0.68580  0.45360  1.0000 0.119490346
H   H152      1.0  0.91990  0.81420  0.45360  1.0000 0.119490346
H   H153      1.0  0.03780  0.57860  0.87460  1.0000 0.1122425053
H   H154      1.0  0.46220  0.92140  0.87460  1.0000 0.1122425053
H   H155      1.0  0.53780  0.42140  0.62540  1.0000 0.1122425053
H   H156      1.0  0.96220  0.07860  0.62540  1.0000 0.1122425053
H   H157      1.0  0.96220  0.42140  0.12540  1.0000 0.1122425053
H   H158      1.0  0.53780  0.07860  0.12540  1.0000 0.1122425053
H   H159      1.0  0.46220  0.57860  0.37460  1.0000 0.1122425053
H   H160      1.0  0.03780  0.92140  0.37460  1.0000 0.1122425053
H   H161      1.0  0.14090  0.51240  0.71310  1.0000 0.1122425053
H   H162      1.0  0.35910  0.98760  0.71310  1.0000 0.119490346
H   H163      1.0  0.64090  0.48760  0.78690  1.0000 0.1122425053
H   H164      1.0  0.85910  0.01240  0.78690  1.0000 0.1122425053
H   H165      1.0  0.85910  0.48760  0.28690  1.0000 0.1122425053
H   H166      1.0  0.64090  0.01240  0.28690  1.0000 0.1122425053
H   H167      1.0  0.35910  0.51240  0.21310  1.0000 0.1122425053
H   H168      1.0  0.14090  0.98760  0.21310  1.0000 0.119490346
H   H169      1.0  0.86650  0.73790  0.89400  1.0000 0.119490346
H   H170      1.0  0.63350  0.76210  0.89400  1.0000 0.119490346
H   H171      1.0  0.36650  0.26210  0.60600  1.0000 0.119490346
H   H172      1.0  0.13350  0.23790  0.60600  1.0000 0.119490346
H   H173      1.0  0.13350  0.26210  0.10600  1.0000 0.119490346
H   H174      1.0  0.36650  0.23790  0.10600  1.0000 0.119490346
H   H175      1.0  0.63350  0.73790  0.39400  1.0000 0.119490346
H   H176      1.0  0.86650  0.76210  0.39400  1.0000 0.119490346
H   H177      1.0  0.00670  0.63710  0.81620  1.0000 0.119490346
H   H178      1.0  0.49330  0.86290  0.81620  1.0000 0.119490346
H   H179      1.0  0.50670  0.36290  0.68380  1.0000 0.119490346
H   H180      1.0  0.99330  0.13710  0.68380  1.0000 0.119490346
H   H181      1.0  0.99330  0.36290  0.18380  1.0000 0.119490346
H   H182      1.0  0.50670  0.13710  0.18380  1.0000 0.119490346
H   H183      1.0  0.49330  0.63710  0.31620  1.0000 0.119490346
H   H184      1.0  0.00670  0.86290  0.31620  1.0000 0.119490346
H   H185      1.0  0.06500  0.58830  0.74410  1.0000 0.119490346
H   H186      1.0  0.43500  0.91170  0.74410  1.0000 0.119490346
H   H187      1.0  0.56500  0.41170  0.75590  1.0000 0.119490346
H   H188      1.0  0.93500  0.08830  0.75590  1.0000 0.119490346
H   H189      1.0  0.93500  0.41170  0.25590  1.0000 0.119490346
H   H190      1.0  0.56500  0.08830  0.25590  1.0000 0.119490346
H   H191      1.0  0.43500  0.58830  0.24410  1.0000 0.119490346
H   H192      1.0  0.06500  0.91170  0.24410  1.0000 0.119490346
H   H193      1.0  0.86150  0.76660  0.59060  1.0000 0.119490346
H   H194      1.0  0.63850  0.73340  0.59060  1.0000 0.119490346
H   H195      1.0  0.36150  0.23340  0.90940  1.0000 0.119490346
H   H196      1.0  0.13850  0.26660  0.90940  1.0000 0.119490346
H   H197      1.0  0.13850  0.23340  0.40940  1.0000 0.119490346
H   H198      1.0  0.36150  0.26660  0.40940  1.0000 0.119490346
H   H199      1.0  0.63850  0.76660  0.09060  1.0000 0.119490346
H   H200      1.0  0.86150  0.73340  0.09060  1.0000 0.119490346
H   H201      1.0  0.71680  0.87640  0.66090  1.0000 0.1258385713
H   H202      1.0  0.78320  0.62360  0.66090  1.0000 0.1258385713
H   H203      1.0  0.21680  0.12360  0.83910  1.0000 0.1258385713
H   H204      1.0  0.28320  0.37640  0.83910  1.0000 0.1258385713
H   H205      1.0  0.28320  0.12360  0.33910  1.0000 0.1258385713
H   H206      1.0  0.21680  0.37640  0.33910  1.0000 0.1258385713
H   H207      1.0  0.78320  0.87640  0.16090  1.0000 0.1258385713
H   H208      1.0  0.71680  0.62360  0.16090  1.0000 0.1258385713
H   H209      1.0  0.83640  0.81900  0.52970  1.0000 0.1122425053
H   H210      1.0  0.66360  0.68100  0.52970  1.0000 0.1122425053
H   H211      1.0  0.33640  0.18100  0.97030  1.0000 0.1122425053
H   H212      1.0  0.16360  0.31900  0.97030  1.0000 0.1122425053
H   H213      1.0  0.16360  0.18100  0.47030  1.0000 0.1122425053
H   H214      1.0  0.33640  0.31900  0.47030  1.0000 0.1122425053
H   H215      1.0  0.66360  0.81900  0.02970  1.0000 0.1122425053
H   H216      1.0  0.83640  0.68100  0.02970  1.0000 0.1122425053
H   H217      1.0  0.68670  0.92490  0.59830  1.0000 0.119490346
H   H218      1.0  0.81330  0.57510  0.59830  1.0000 0.119490346
H   H219      1.0  0.18670  0.07510  0.90170  1.0000 0.119490346
H   H220      1.0  0.31330  0.42490  0.90170  1.0000 0.119490346
H   H221      1.0  0.31330  0.07510  0.40170  1.0000 0.119490346
H   H222      1.0  0.18670  0.42490  0.40170  1.0000 0.119490346
H   H223      1.0  0.81330  0.92490  0.09830  1.0000 0.119490346
H   H224      1.0  0.68670  0.57510  0.09830  1.0000 0.119490346
H   H225      1.0  0.76980  0.87630  0.86210  1.0000 0.119490346
H   H226      1.0  0.73020  0.62370  0.86210  1.0000 0.119490346
H   H227      1.0  0.26980  0.12370  0.63790  1.0000 0.119490346
H   H228      1.0  0.23020  0.37630  0.63790  1.0000 0.119490346
H   H229      1.0  0.23020  0.12370  0.13790  1.0000 0.119490346
H   H230      1.0  0.26980  0.37630  0.13790  1.0000 0.119490346
H   H231      1.0  0.73020  0.87630  0.36210  1.0000 0.119490346
H   H232      1.0  0.76980  0.62370  0.36210  1.0000 0.119490346
H   H233      1.0  0.67510  0.93030  0.74660  1.0000 0.119490346
H   H234      1.0  0.82490  0.56970  0.74660  1.0000 0.119490346
H   H235      1.0  0.17510  0.06970  0.75340  1.0000 0.119490346
H   H236      1.0  0.32490  0.43030  0.75340  1.0000 0.119490346
H   H237      1.0  0.32490  0.06970  0.25340  1.0000 0.119490346
H   H238      1.0  0.17510  0.43030  0.25340  1.0000 0.119490346
H   H239      1.0  0.82490  0.93030  0.24660  1.0000 0.119490346
H   H240      1.0  0.67510  0.56970  0.24660  1.0000 0.119490346
H   H241      1.0  0.59180  0.00370  0.78140  1.0000 0.1122425053
H   H242      1.0  0.90820  0.49630  0.78140  1.0000 0.1122425053
H   H243      1.0  0.09180  0.99630  0.71860  1.0000 0.1122425053
H   H244      1.0  0.40820  0.50370  0.71860  1.0000 0.1122425053
H   H245      1.0  0.40820  0.99630  0.21860  1.0000 0.1122425053
H   H246      1.0  0.09180  0.50370  0.21860  1.0000 0.1122425053
H   H247      1.0  0.90820  0.00370  0.28140  1.0000 0.1122425053
H   H248      1.0  0.59180  0.49630  0.28140  1.0000 0.1122425053
H   H249      1.0  0.60310  0.01390  0.85550  1.0000 0.1122425053
H   H250      1.0  0.89690  0.48610  0.85550  1.0000 0.1122425053
H   H251      1.0  0.10310  0.98610  0.64450  1.0000 0.1122425053
H   H252      1.0  0.39690  0.51390  0.64450  1.0000 0.1122425053
H   H253      1.0  0.39690  0.98610  0.14450  1.0000 0.1122425053
H   H254      1.0  0.10310  0.51390  0.14450  1.0000 0.1122425053
H   H255      1.0  0.89690  0.01390  0.35550  1.0000 0.1122425053
H   H256      1.0  0.60310  0.48610  0.35550  1.0000 0.1122425053
C   C1        1.0  0.26870  0.88740  0.11220  1.0000 0.0219499276
C   C2        1.0  0.23130  0.61260  0.11220  1.0000 0.0219499276
C   C3        1.0  0.76870  0.11260  0.38780  1.0000 0.0219499276
C   C4        1.0  0.73130  0.38740  0.38780  1.0000 0.0219499276
C   C5        1.0  0.73130  0.11260  0.88780  1.0000 0.0219499276
C   C6        1.0  0.76870  0.38740  0.88780  1.0000 0.0219499276
C   C7        1.0  0.23130  0.88740  0.61220  1.0000 0.0219499276
C   C8        1.0  0.26870  0.61260  0.61220  1.0000 0.0219499276
C   C9        1.0  0.19390  0.82630  0.06910  1.0000 0.0043950283
C   C10       1.0  0.30610  0.67370  0.06910  1.0000 0.0043950283
C   C11       1.0  0.69390  0.17370  0.43090  1.0000 0.0043950283
C   C12       1.0  0.80610  0.32630  0.43090  1.0000 0.0043950283
C   C13       1.0  0.80610  0.17370  0.93090  1.0000 0.0043950283
C   C14       1.0  0.69390  0.32630  0.93090  1.0000 0.0043950283
C   C15       1.0  0.30610  0.82630  0.56910  1.0000 0.0043950283
C   C16       1.0  0.19390  0.67370  0.56910  1.0000 0.0043950283
C   C17       1.0  0.24230  0.85750  0.14880  1.0000 0.0219499276
C   C18       1.0  0.25770  0.64250  0.14880  1.0000 0.0219499276
C   C19       1.0  0.74230  0.14250  0.35120  1.0000 0.0219499276
C   C20       1.0  0.75770  0.35750  0.35120  1.0000 0.0219499276
C   C21       1.0  0.75770  0.14250  0.85120  1.0000 0.0219499276
C   C22       1.0  0.74230  0.35750  0.85120  1.0000 0.0219499276
C   C23       1.0  0.25770  0.85750  0.64880  1.0000 0.0219499276
C   C24       1.0  0.24230  0.64250  0.64880  1.0000 0.0219499276
C   C25       1.0  0.16630  0.79620  0.10470  1.0000 0.0387134887
C   C26       1.0  0.33370  0.70380  0.10470  1.0000 0.0387134887
C   C27       1.0  0.66630  0.20380  0.39530  1.0000 0.0387134887
C   C28       1.0  0.83370  0.29620  0.39530  1.0000 0.0387134887
C   C29       1.0  0.83370  0.20380  0.89530  1.0000 0.0387134887
C   C30       1.0  0.66630  0.29620  0.89530  1.0000 0.0387134887
C   C31       1.0  0.33370  0.79620  0.60470  1.0000 0.0387134887
C   C32       1.0  0.16630  0.70380  0.60470  1.0000 0.0387134887
C   C33       1.0  0.02830  0.65860  0.20550  1.0000 0.5299477861
C   C34       1.0  0.47170  0.84140  0.20550  1.0000 0.5299477861
C   C35       1.0  0.52830  0.34140  0.29450  1.0000 0.5299477861
C   C36       1.0  0.97170  0.15860  0.29450  1.0000 0.5299477861
C   C37       1.0  0.97170  0.34140  0.79450  1.0000 0.5299477861
C   C38       1.0  0.52830  0.15860  0.79450  1.0000 0.5299477861
C   C39       1.0  0.47170  0.65860  0.70550  1.0000 0.5299477861
C   C40       1.0  0.02830  0.84140  0.70550  1.0000 0.5299477861
C   C41       1.0  0.20830  0.82970  0.29350  1.0000 0.5458156601
C   C42       1.0  0.29170  0.67030  0.29350  1.0000 0.5458156601
C   C43       1.0  0.70830  0.17030  0.20650  1.0000 0.5458156601
C   C44       1.0  0.79170  0.32970  0.20650  1.0000 0.5458156601
C   C45       1.0  0.79170  0.17030  0.70650  1.0000 0.5458156601
C   C46       1.0  0.70830  0.32970  0.70650  1.0000 0.5458156601
C   C47       1.0  0.29170  0.82970  0.79350  1.0000 0.5458156601
C   C48       1.0  0.20830  0.67030  0.79350  1.0000 0.5458156601
C   C49       1.0  0.98560  0.61270  0.17940  1.0000 -0.0373921348
C   C50       1.0  0.51440  0.88730  0.17940  1.0000 -0.0373921348
C   C51       1.0  0.48560  0.38730  0.32060  1.0000 -0.0373921348
C   C52       1.0  0.01440  0.11270  0.32060  1.0000 -0.0373921348
C   C53       1.0  0.01440  0.38730  0.82060  1.0000 -0.0373921348
C   C54       1.0  0.48560  0.11270  0.82060  1.0000 -0.0373921348
C   C55       1.0  0.51440  0.61270  0.67940  1.0000 -0.0373921348
C   C56       1.0  0.98560  0.88730  0.67940  1.0000 -0.0373921348
C   C57       1.0  0.25940  0.87910  0.31660  1.0000 -0.0268418724
C   C58       1.0  0.24060  0.62090  0.31660  1.0000 -0.0268418724
C   C59       1.0  0.75940  0.12090  0.18340  1.0000 -0.0268418724
C   C60       1.0  0.74060  0.37910  0.18340  1.0000 -0.0268418724
C   C61       1.0  0.74060  0.12090  0.68340  1.0000 -0.0268418724
C   C62       1.0  0.75940  0.37910  0.68340  1.0000 -0.0268418724
C   C63       1.0  0.24060  0.87910  0.81660  1.0000 -0.0268418724
C   C64       1.0  0.25940  0.62090  0.81660  1.0000 -0.0268418724
C   C65       1.0  0.92720  0.57140  0.19980  1.0000 -0.0994010461
C   C66       1.0  0.57280  0.92860  0.19980  1.0000 -0.0994010461
C   C67       1.0  0.42720  0.42860  0.30020  1.0000 -0.0994010461
C   C68       1.0  0.07280  0.07140  0.30020  1.0000 -0.0994010461
C   C69       1.0  0.07280  0.42860  0.80020  1.0000 -0.0994010461
C   C70       1.0  0.42720  0.07140  0.80020  1.0000 -0.0994010461
C   C71       1.0  0.57280  0.57140  0.69980  1.0000 -0.0994010461
C   C72       1.0  0.92720  0.92860  0.69980  1.0000 -0.0994010461
C   C73       1.0  0.99530  0.61070  0.13450  1.0000 -0.1184479047
C   C74       1.0  0.50470  0.88930  0.13450  1.0000 -0.1184479047
C   C75       1.0  0.49530  0.38930  0.36550  1.0000 -0.1184479047
C   C76       1.0  0.00470  0.11070  0.36550  1.0000 -0.1184479047
C   C77       1.0  0.00470  0.38930  0.86550  1.0000 -0.1184479047
C   C78       1.0  0.49530  0.11070  0.86550  1.0000 -0.1184479047
C   C79       1.0  0.50470  0.61070  0.63450  1.0000 -0.1184479047
C   C80       1.0  0.99530  0.88930  0.63450  1.0000 -0.1184479047
C   C81       1.0  0.31450  0.91360  0.29380  1.0000 -0.0994010461
C   C82       1.0  0.18550  0.58640  0.29380  1.0000 -0.0994010461
C   C83       1.0  0.81450  0.08640  0.20620  1.0000 -0.0994010461
C   C84       1.0  0.68550  0.41360  0.20620  1.0000 -0.0994010461
C   C85       1.0  0.68550  0.08640  0.70620  1.0000 -0.0994010461
C   C86       1.0  0.81450  0.41360  0.70620  1.0000 -0.0994010461
C   C87       1.0  0.18550  0.91360  0.79380  1.0000 -0.0994010461
C   C88       1.0  0.31450  0.58640  0.79380  1.0000 -0.0994010461
C   C89       1.0  0.24310  0.88600  0.36080  1.0000 -0.1393458057
C   C90       1.0  0.25690  0.61400  0.36080  1.0000 -0.1393458057
C   C91       1.0  0.74310  0.11400  0.13920  1.0000 -0.1393458057
C   C92       1.0  0.75690  0.38600  0.13920  1.0000 -0.1393458057
C   C93       1.0  0.75690  0.11400  0.63920  1.0000 -0.1393458057
C   C94       1.0  0.74310  0.38600  0.63920  1.0000 -0.1393458057
C   C95       1.0  0.25690  0.88600  0.86080  1.0000 -0.1393458057
C   C96       1.0  0.24310  0.61400  0.86080  1.0000 -0.1393458057
C   C97       1.0  0.88540  0.53060  0.17360  1.0000 -0.1084162584
C   C98       1.0  0.61460  0.96940  0.17360  1.0000 -0.1084162584
C   C99       1.0  0.38540  0.46940  0.32640  1.0000 -0.1084162584
C   C100      1.0  0.11460  0.03060  0.32640  1.0000 -0.1084162584
C   C101      1.0  0.11460  0.46940  0.82640  1.0000 -0.1084162584
C   C102      1.0  0.38540  0.03060  0.82640  1.0000 -0.1084162584
C   C103      1.0  0.61460  0.53060  0.67360  1.0000 -0.1084162584
C   C104      1.0  0.88540  0.96940  0.67360  1.0000 -0.1084162584
C   C105      1.0  0.95310  0.56940  0.11030  1.0000 -0.0373921348
C   C106      1.0  0.54690  0.93060  0.11030  1.0000 -0.0373921348
C   C107      1.0  0.45310  0.43060  0.38970  1.0000 -0.0373921348
C   C108      1.0  0.04690  0.06940  0.38970  1.0000 -0.0373921348
C   C109      1.0  0.04690  0.43060  0.88970  1.0000 -0.0373921348
C   C110      1.0  0.45310  0.06940  0.88970  1.0000 -0.0373921348
C   C111      1.0  0.54690  0.56940  0.61030  1.0000 -0.0373921348
C   C112      1.0  0.95310  0.93060  0.61030  1.0000 -0.0373921348
C   C113      1.0  0.36340  0.95750  0.31360  1.0000 -0.1084162584
C   C114      1.0  0.13660  0.54250  0.31360  1.0000 -0.1084162584
C   C115      1.0  0.86340  0.04250  0.18640  1.0000 -0.1084162584
C   C116      1.0  0.63660  0.45750  0.18640  1.0000 -0.1084162584
C   C117      1.0  0.63660  0.04250  0.68640  1.0000 -0.1084162584
C   C118      1.0  0.86340  0.45750  0.68640  1.0000 -0.1084162584
C   C119      1.0  0.13660  0.95750  0.81360  1.0000 -0.1084162584
C   C120      1.0  0.36340  0.54250  0.81360  1.0000 -0.1084162584
C   C121      1.0  0.28880  0.93080  0.38220  1.0000 -0.0268418724
C   C122      1.0  0.21120  0.56920  0.38220  1.0000 -0.0268418724
C   C123      1.0  0.78880  0.06920  0.11780  1.0000 -0.0268418724
C   C124      1.0  0.71120  0.43080  0.11780  1.0000 -0.0268418724
C   C125      1.0  0.71120  0.06920  0.61780  1.0000 -0.0268418724
C   C126      1.0  0.78880  0.43080  0.61780  1.0000 -0.0268418724
C   C127      1.0  0.21120  0.93080  0.88220  1.0000 -0.0268418724
C   C128      1.0  0.28880  0.56920  0.88220  1.0000 -0.0268418724
C   C129      1.0  0.98730  0.63970  0.35670  1.0000 0.0529165132
C   C130      1.0  0.51270  0.86030  0.35670  1.0000 0.0529165132
C   C131      1.0  0.48730  0.36030  0.14330  1.0000 0.0529165132
C   C132      1.0  0.01270  0.13970  0.14330  1.0000 0.0529165132
C   C133      1.0  0.01270  0.36030  0.64330  1.0000 0.0529165132
C   C134      1.0  0.48730  0.13970  0.64330  1.0000 0.0529165132
C   C135      1.0  0.51270  0.63970  0.85670  1.0000 0.0529165132
C   C136      1.0  0.98730  0.86030  0.85670  1.0000 0.0529165132
C   C137      1.0  0.08320  0.69840  0.39580  1.0000 -0.0033803688
C   C138      1.0  0.41680  0.80160  0.39580  1.0000 -0.0033803688
C   C139      1.0  0.58320  0.30160  0.10420  1.0000 -0.0033803688
C   C140      1.0  0.91680  0.19840  0.10420  1.0000 -0.0033803688
C   C141      1.0  0.91680  0.30160  0.60420  1.0000 -0.0033803688
C   C142      1.0  0.58320  0.19840  0.60420  1.0000 -0.0033803688
C   C143      1.0  0.41680  0.69840  0.89580  1.0000 -0.0033803688
C   C144      1.0  0.08320  0.80160  0.89580  1.0000 -0.0033803688
C   C145      1.0  0.89560  0.52930  0.13010  1.0000 -0.1184479047
C   C146      1.0  0.60440  0.97070  0.13010  1.0000 -0.1184479047
C   C147      1.0  0.39560  0.47070  0.36990  1.0000 -0.1184479047
C   C148      1.0  0.10440  0.02930  0.36990  1.0000 -0.1184479047
C   C149      1.0  0.10440  0.47070  0.86990  1.0000 -0.1184479047
C   C150      1.0  0.39560  0.02930  0.86990  1.0000 -0.1184479047
C   C151      1.0  0.60440  0.52930  0.63010  1.0000 -0.1184479047
C   C152      1.0  0.89560  0.97070  0.63010  1.0000 -0.1184479047
C   C153      1.0  0.96890  0.56630  0.06280  1.0000 0.5683461711
C   C154      1.0  0.53110  0.93370  0.06280  1.0000 0.5683461711
C   C155      1.0  0.46890  0.43370  0.43720  1.0000 0.5683461711
C   C156      1.0  0.03110  0.06630  0.43720  1.0000 0.5683461711
C   C157      1.0  0.03110  0.43370  0.93720  1.0000 0.5683461711
C   C158      1.0  0.46890  0.06630  0.93720  1.0000 0.5683461711
C   C159      1.0  0.53110  0.56630  0.56280  1.0000 0.5683461711
C   C160      1.0  0.96890  0.93370  0.56280  1.0000 0.5683461711
C   C161      1.0  0.34890  0.96520  0.35920  1.0000 -0.1084162584
C   C162      1.0  0.15110  0.53480  0.35920  1.0000 -0.1084162584
C   C163      1.0  0.84890  0.03480  0.14080  1.0000 -0.1084162584
C   C164      1.0  0.65110  0.46520  0.14080  1.0000 -0.1084162584
C   C165      1.0  0.65110  0.03480  0.64080  1.0000 -0.1084162584
C   C166      1.0  0.84890  0.46520  0.64080  1.0000 -0.1084162584
C   C167      1.0  0.15110  0.96520  0.85920  1.0000 -0.1084162584
C   C168      1.0  0.34890  0.53480  0.85920  1.0000 -0.1084162584
C   C169      1.0  0.27200  0.94140  0.42980  1.0000 0.5458156601
C   C170      1.0  0.22800  0.55860  0.42980  1.0000 0.5458156601
C   C171      1.0  0.77200  0.05860  0.07020  1.0000 0.5458156601
C   C172      1.0  0.72800  0.44140  0.07020  1.0000 0.5458156601
C   C173      1.0  0.72800  0.05860  0.57020  1.0000 0.5458156601
C   C174      1.0  0.77200  0.44140  0.57020  1.0000 0.5458156601
C   C175      1.0  0.22800  0.94140  0.92980  1.0000 0.5458156601
C   C176      1.0  0.27200  0.55860  0.92980  1.0000 0.5458156601
C   C177      1.0  0.96100  0.61190  0.39460  1.0000 0.0387134887
C   C178      1.0  0.53900  0.88810  0.39460  1.0000 0.0387134887
C   C179      1.0  0.46100  0.38810  0.10540  1.0000 0.0387134887
C   C180      1.0  0.03900  0.11190  0.10540  1.0000 0.0387134887
C   C181      1.0  0.03900  0.38810  0.60540  1.0000 0.0387134887
C   C182      1.0  0.46100  0.11190  0.60540  1.0000 0.0387134887
C   C183      1.0  0.53900  0.61190  0.89460  1.0000 0.0387134887
C   C184      1.0  0.96100  0.88810  0.89460  1.0000 0.0387134887
C   C185      1.0  0.06080  0.66970  0.43300  1.0000 0.030203054
C   C186      1.0  0.43920  0.83030  0.43300  1.0000 0.030203054
C   C187      1.0  0.56080  0.33030  0.06700  1.0000 0.030203054
C   C188      1.0  0.93920  0.16970  0.06700  1.0000 0.030203054
C   C189      1.0  0.93920  0.33030  0.56700  1.0000 0.030203054
C   C190      1.0  0.56080  0.16970  0.56700  1.0000 0.030203054
C   C191      1.0  0.43920  0.66970  0.93300  1.0000 0.030203054
C   C192      1.0  0.06080  0.83030  0.93300  1.0000 0.030203054
C   C193      1.0  0.03950  0.55100  0.57680  1.0000 0.5573915527
C   C194      1.0  0.46050  0.94900  0.57680  1.0000 0.5573915527
C   C195      1.0  0.53950  0.44900  0.92320  1.0000 0.5573915527
C   C196      1.0  0.96050  0.05100  0.92320  1.0000 0.5573915527
C   C197      1.0  0.96050  0.44900  0.42320  1.0000 0.5573915527
C   C198      1.0  0.53950  0.05100  0.42320  1.0000 0.5573915527
C   C199      1.0  0.46050  0.55100  0.07680  1.0000 0.5573915527
C   C200      1.0  0.03950  0.94900  0.07680  1.0000 0.5573915527
C   C201      1.0  0.04730  0.56350  0.62500  1.0000 -0.0268418724
C   C202      1.0  0.45270  0.93650  0.62500  1.0000 -0.0268418724
C   C203      1.0  0.54730  0.43650  0.87500  1.0000 -0.0268418724
C   C204      1.0  0.95270  0.06350  0.87500  1.0000 -0.0268418724
C   C205      1.0  0.95270  0.43650  0.37500  1.0000 -0.0209483084
C   C206      1.0  0.54730  0.06350  0.37500  1.0000 -0.0209483084
C   C207      1.0  0.45270  0.56350  0.12500  1.0000 -0.0209483084
C   C208      1.0  0.04730  0.93650  0.12500  1.0000 -0.0268418724
C   C209      1.0  0.09980  0.52830  0.65140  1.0000 -0.1184479047
C   C210      1.0  0.40020  0.97170  0.65140  1.0000 -0.1184479047
C   C211      1.0  0.59980  0.47170  0.84860  1.0000 -0.1184479047
C   C212      1.0  0.90020  0.02830  0.84860  1.0000 -0.1184479047
C   C213      1.0  0.90020  0.47170  0.34860  1.0000 -0.1184479047
C   C214      1.0  0.59980  0.02830  0.34860  1.0000 -0.1184479047
C   C215      1.0  0.40020  0.52830  0.15140  1.0000 -0.1184479047
C   C216      1.0  0.09980  0.97170  0.15140  1.0000 -0.1184479047
C   C217      1.0  0.00250  0.60860  0.64280  1.0000 -0.1337004244
C   C218      1.0  0.49750  0.89140  0.64280  1.0000 -0.1337004244
C   C219      1.0  0.50250  0.39140  0.85720  1.0000 -0.1337004244
C   C220      1.0  0.99750  0.10860  0.85720  1.0000 -0.1337004244
C   C221      1.0  0.99750  0.39140  0.35720  1.0000 -0.1337004244
C   C222      1.0  0.50250  0.10860  0.35720  1.0000 -0.1337004244
C   C223      1.0  0.49750  0.60860  0.14280  1.0000 -0.1337004244
C   C224      1.0  0.00250  0.89140  0.14280  1.0000 -0.1337004244
C   C225      1.0  0.93540  0.67400  0.92500  1.0000 0.0219499276
C   C226      1.0  0.56460  0.82600  0.92500  1.0000 0.0219499276
C   C227      1.0  0.43540  0.32600  0.57500  1.0000 0.0219499276
C   C228      1.0  0.06460  0.17400  0.57500  1.0000 0.0219499276
C   C229      1.0  0.06460  0.32600  0.07500  1.0000 0.0219499276
C   C230      1.0  0.43540  0.17400  0.07500  1.0000 0.0219499276
C   C231      1.0  0.56460  0.67400  0.42500  1.0000 0.0219499276
C   C232      1.0  0.93540  0.82600  0.42500  1.0000 0.0219499276
C   C233      1.0  0.00620  0.61310  0.87960  1.0000 0.030203054
C   C234      1.0  0.49380  0.88690  0.87960  1.0000 0.030203054
C   C235      1.0  0.50620  0.38690  0.62040  1.0000 0.030203054
C   C236      1.0  0.99380  0.11310  0.62040  1.0000 0.030203054
C   C237      1.0  0.99380  0.38690  0.12040  1.0000 0.030203054
C   C238      1.0  0.50620  0.11310  0.12040  1.0000 0.030203054
C   C239      1.0  0.49380  0.61310  0.37960  1.0000 0.030203054
C   C240      1.0  0.00620  0.88690  0.37960  1.0000 0.030203054
C   C241      1.0  0.10550  0.53730  0.69540  1.0000 -0.0994010461
C   C242      1.0  0.39450  0.96270  0.69540  1.0000 -0.0994010461
C   C243      1.0  0.60550  0.46270  0.80460  1.0000 -0.0994010461
C   C244      1.0  0.89450  0.03730  0.80460  1.0000 -0.0994010461
C   C245      1.0  0.89450  0.46270  0.30460  1.0000 -0.0994010461
C   C246      1.0  0.60550  0.03730  0.30460  1.0000 -0.0994010461
C   C247      1.0  0.39450  0.53730  0.19540  1.0000 -0.0994010461
C   C248      1.0  0.10550  0.96270  0.19540  1.0000 -0.0994010461
C   C249      1.0  0.00670  0.61890  0.68710  1.0000 -0.0209483084
C   C250      1.0  0.49330  0.88110  0.68710  1.0000 -0.0209483084
C   C251      1.0  0.50670  0.38110  0.81290  1.0000 -0.0209483084
C   C252      1.0  0.99330  0.11890  0.81290  1.0000 -0.0209483084
C   C253      1.0  0.99330  0.38110  0.31290  1.0000 -0.0209483084
C   C254      1.0  0.50670  0.11890  0.31290  1.0000 -0.0209483084
C   C255      1.0  0.49330  0.61890  0.18710  1.0000 -0.0209483084
C   C256      1.0  0.00670  0.88110  0.18710  1.0000 -0.0209483084
C   C257      1.0  0.90650  0.70660  0.88950  1.0000 0.0094303265
C   C258      1.0  0.59350  0.79340  0.88950  1.0000 0.0094303265
C   C259      1.0  0.40650  0.29340  0.61050  1.0000 0.0094303265
C   C260      1.0  0.09350  0.20660  0.61050  1.0000 0.0094303265
C   C261      1.0  0.09350  0.29340  0.11050  1.0000 0.0094303265
C   C262      1.0  0.40650  0.20660  0.11050  1.0000 0.0094303265
C   C263      1.0  0.59350  0.70660  0.38950  1.0000 0.0094303265
C   C264      1.0  0.90650  0.79340  0.38950  1.0000 0.0094303265
C   C265      1.0  0.98470  0.64750  0.84430  1.0000 0.0762764993
C   C266      1.0  0.51530  0.85250  0.84430  1.0000 0.0762764993
C   C267      1.0  0.48470  0.35250  0.65570  1.0000 0.0762764993
C   C268      1.0  0.01530  0.14750  0.65570  1.0000 0.0762764993
C   C269      1.0  0.01530  0.35250  0.15570  1.0000 0.0762764993
C   C270      1.0  0.48470  0.14750  0.15570  1.0000 0.0762764993
C   C271      1.0  0.51530  0.64750  0.34430  1.0000 0.0762764993
C   C272      1.0  0.98470  0.85250  0.34430  1.0000 0.0762764993
C   C273      1.0  0.06050  0.58190  0.71360  1.0000 -0.1084162584
C   C274      1.0  0.43950  0.91810  0.71360  1.0000 -0.1084162584
C   C275      1.0  0.56050  0.41810  0.78640  1.0000 -0.1084162584
C   C276      1.0  0.93950  0.08190  0.78640  1.0000 -0.1084162584
C   C277      1.0  0.93950  0.41810  0.28640  1.0000 -0.1084162584
C   C278      1.0  0.56050  0.08190  0.28640  1.0000 -0.1084162584
C   C279      1.0  0.43950  0.58190  0.21360  1.0000 -0.1084162584
C   C280      1.0  0.06050  0.91810  0.21360  1.0000 -0.1084162584
C   C281      1.0  0.95680  0.66920  0.70590  1.0000 0.5393109232
C   C282      1.0  0.54320  0.83080  0.70590  1.0000 0.5393109232
C   C283      1.0  0.45680  0.33080  0.79410  1.0000 0.5393109232
C   C284      1.0  0.04320  0.16920  0.79410  1.0000 0.5393109232
C   C285      1.0  0.04320  0.33080  0.29410  1.0000 0.5393109232
C   C286      1.0  0.45680  0.16920  0.29410  1.0000 0.5393109232
C   C287      1.0  0.54320  0.66920  0.20590  1.0000 0.5393109232
C   C288      1.0  0.95680  0.83080  0.20590  1.0000 0.5393109232
C   C289      1.0  0.77400  0.84660  0.78000  1.0000 0.5458156601
C   C290      1.0  0.72600  0.65340  0.78000  1.0000 0.5458156601
C   C291      1.0  0.27400  0.15340  0.72000  1.0000 0.5458156601
C   C292      1.0  0.22600  0.34660  0.72000  1.0000 0.5458156601
C   C293      1.0  0.22600  0.15340  0.22000  1.0000 0.5458156601
C   C294      1.0  0.27400  0.34660  0.22000  1.0000 0.5458156601
C   C295      1.0  0.72600  0.84660  0.28000  1.0000 0.5458156601
C   C296      1.0  0.77400  0.65340  0.28000  1.0000 0.5458156601
C   C297      1.0  0.82690  0.80050  0.59310  1.0000 0.030203054
C   C298      1.0  0.67310  0.69950  0.59310  1.0000 0.030203054
C   C299      1.0  0.32690  0.19950  0.90690  1.0000 0.030203054
C   C300      1.0  0.17310  0.30050  0.90690  1.0000 0.030203054
C   C301      1.0  0.17310  0.19950  0.40690  1.0000 0.030203054
C   C302      1.0  0.32690  0.30050  0.40690  1.0000 0.030203054
C   C303      1.0  0.67310  0.80050  0.09310  1.0000 0.030203054
C   C304      1.0  0.82690  0.69950  0.09310  1.0000 0.030203054
C   C305      1.0  0.74210  0.86370  0.63410  1.0000 0.0219499276
C   C306      1.0  0.75790  0.63630  0.63410  1.0000 0.0219499276
C   C307      1.0  0.24210  0.13630  0.86590  1.0000 0.0219499276
C   C308      1.0  0.25790  0.36370  0.86590  1.0000 0.0219499276
C   C309      1.0  0.25790  0.13630  0.36590  1.0000 0.0219499276
C   C310      1.0  0.24210  0.36370  0.36590  1.0000 0.0219499276
C   C311      1.0  0.75790  0.86370  0.13410  1.0000 0.0219499276
C   C312      1.0  0.74210  0.63630  0.13410  1.0000 0.0219499276
C   C313      1.0  0.72590  0.89690  0.80160  1.0000 -0.0209483084
C   C314      1.0  0.77410  0.60310  0.80160  1.0000 -0.0209483084
C   C315      1.0  0.22590  0.10310  0.69840  1.0000 -0.0209483084
C   C316      1.0  0.27410  0.39690  0.69840  1.0000 -0.0209483084
C   C317      1.0  0.27410  0.10310  0.19840  1.0000 -0.0209483084
C   C318      1.0  0.22590  0.39690  0.19840  1.0000 -0.0209483084
C   C319      1.0  0.77410  0.89690  0.30160  1.0000 -0.0209483084
C   C320      1.0  0.72590  0.60310  0.30160  1.0000 -0.0209483084
C   C321      1.0  0.81040  0.83090  0.55660  1.0000 0.0094303265
C   C322      1.0  0.68960  0.66910  0.55660  1.0000 0.0094303265
C   C323      1.0  0.31040  0.16910  0.94340  1.0000 0.0094303265
C   C324      1.0  0.18960  0.33090  0.94340  1.0000 0.0094303265
C   C325      1.0  0.18960  0.16910  0.44340  1.0000 0.0094303265
C   C326      1.0  0.31040  0.33090  0.44340  1.0000 0.0094303265
C   C327      1.0  0.68960  0.83090  0.05660  1.0000 0.0094303265
C   C328      1.0  0.81040  0.66910  0.05660  1.0000 0.0094303265
C   C329      1.0  0.72480  0.89230  0.59670  1.0000 0.030203054
C   C330      1.0  0.77520  0.60770  0.59670  1.0000 0.030203054
C   C331      1.0  0.22480  0.10770  0.90330  1.0000 0.030203054
C   C332      1.0  0.27520  0.39230  0.90330  1.0000 0.030203054
C   C333      1.0  0.27520  0.10770  0.40330  1.0000 0.030203054
C   C334      1.0  0.22480  0.39230  0.40330  1.0000 0.030203054
C   C335      1.0  0.77520  0.89230  0.09670  1.0000 0.030203054
C   C336      1.0  0.72480  0.60770  0.09670  1.0000 0.030203054
C   C337      1.0  0.73390  0.90260  0.84580  1.0000 -0.1393458057
C   C338      1.0  0.76610  0.59740  0.84580  1.0000 -0.1393458057
C   C339      1.0  0.23390  0.09740  0.65420  1.0000 -0.1393458057
C   C340      1.0  0.26610  0.40260  0.65420  1.0000 -0.1393458057
C   C341      1.0  0.26610  0.09740  0.15420  1.0000 -0.1393458057
C   C342      1.0  0.23390  0.40260  0.15420  1.0000 -0.1393458057
C   C343      1.0  0.76610  0.90260  0.34580  1.0000 -0.1393458057
C   C344      1.0  0.73390  0.59740  0.34580  1.0000 -0.1393458057
C   C345      1.0  0.67700  0.93400  0.77740  1.0000 -0.0994010461
C   C346      1.0  0.82300  0.56600  0.77740  1.0000 -0.0994010461
C   C347      1.0  0.17700  0.06600  0.72260  1.0000 -0.0994010461
C   C348      1.0  0.32300  0.43400  0.72260  1.0000 -0.0994010461
C   C349      1.0  0.32300  0.06600  0.22260  1.0000 -0.0994010461
C   C350      1.0  0.17700  0.43400  0.22260  1.0000 -0.0994010461
C   C351      1.0  0.82300  0.93400  0.27740  1.0000 -0.0994010461
C   C352      1.0  0.67700  0.56600  0.27740  1.0000 -0.0994010461
C   C353      1.0  0.68930  0.94710  0.86710  1.0000 -0.0268418724
C   C354      1.0  0.81070  0.55290  0.86710  1.0000 -0.0268418724
C   C355      1.0  0.18930  0.05290  0.63290  1.0000 -0.0268418724
C   C356      1.0  0.31070  0.44710  0.63290  1.0000 -0.0268418724
C   C357      1.0  0.31070  0.05290  0.13290  1.0000 -0.0268418724
C   C358      1.0  0.18930  0.44710  0.13290  1.0000 -0.0268418724
C   C359      1.0  0.81070  0.94710  0.36710  1.0000 -0.0268418724
C   C360      1.0  0.68930  0.55290  0.36710  1.0000 -0.0268418724
C   C361      1.0  0.62860  0.97830  0.79790  1.0000 -0.1084162584
C   C362      1.0  0.87140  0.52170  0.79790  1.0000 -0.1084162584
C   C363      1.0  0.12860  0.02170  0.70210  1.0000 -0.1084162584
C   C364      1.0  0.37140  0.47830  0.70210  1.0000 -0.1084162584
C   C365      1.0  0.37140  0.02170  0.20210  1.0000 -0.1084162584
C   C366      1.0  0.12860  0.47830  0.20210  1.0000 -0.1084162584
C   C367      1.0  0.87140  0.97830  0.29790  1.0000 -0.1084162584
C   C368      1.0  0.62860  0.52170  0.29790  1.0000 -0.1084162584
C   C369      1.0  0.69940  0.95690  0.91520  1.0000 0.5393109232
C   C370      1.0  0.80060  0.54310  0.91520  1.0000 0.5393109232
C   C371      1.0  0.19940  0.04310  0.58480  1.0000 0.5393109232
C   C372      1.0  0.30060  0.45690  0.58480  1.0000 0.5393109232
C   C373      1.0  0.30060  0.04310  0.08480  1.0000 0.5393109232
C   C374      1.0  0.19940  0.45690  0.08480  1.0000 0.5393109232
C   C375      1.0  0.80060  0.95690  0.41520  1.0000 0.5393109232
C   C376      1.0  0.69940  0.54310  0.41520  1.0000 0.5393109232
C   C377      1.0  0.63560  0.98400  0.84170  1.0000 -0.1084162584
C   C378      1.0  0.86440  0.51600  0.84170  1.0000 -0.1084162584
C   C379      1.0  0.13560  0.01600  0.65830  1.0000 -0.1084162584
C   C380      1.0  0.36440  0.48400  0.65830  1.0000 -0.1084162584
C   C381      1.0  0.36440  0.01600  0.15830  1.0000 -0.1084162584
C   C382      1.0  0.13560  0.48400  0.15830  1.0000 -0.1084162584
C   C383      1.0  0.86440  0.98400  0.34170  1.0000 -0.1084162584
C   C384      1.0  0.63560  0.51600  0.34170  1.0000 -0.1084162584
N   N1        1.0  0.24220  0.87310  0.07180  1.0000 -0.1393458057
N   N2        1.0  0.25780  0.62690  0.07180  1.0000 -0.1393458057
N   N3        1.0  0.74220  0.12690  0.42820  1.0000 -0.1393458057
N   N4        1.0  0.75780  0.37310  0.42820  1.0000 -0.1393458057
N   N5        1.0  0.75780  0.12690  0.92820  1.0000 -0.1393458057
N   N6        1.0  0.74220  0.37310  0.92820  1.0000 -0.1393458057
N   N7        1.0  0.25780  0.87310  0.57180  1.0000 -0.1393458057
N   N8        1.0  0.24220  0.62690  0.57180  1.0000 -0.1393458057
N   N9        1.0  0.18960  0.80990  0.14440  1.0000 -0.166611049
N   N10       1.0  0.31040  0.69010  0.14440  1.0000 -0.166611049
N   N11       1.0  0.68960  0.19010  0.35560  1.0000 -0.166611049
N   N12       1.0  0.81040  0.30990  0.35560  1.0000 -0.166611049
N   N13       1.0  0.81040  0.19010  0.85560  1.0000 -0.166611049
N   N14       1.0  0.68960  0.30990  0.85560  1.0000 -0.166611049
N   N15       1.0  0.31040  0.80990  0.64440  1.0000 -0.166611049
N   N16       1.0  0.18960  0.69010  0.64440  1.0000 -0.166611049
N   N17       1.0  0.04570  0.68310  0.35610  1.0000 -0.1624737744
N   N18       1.0  0.45430  0.81690  0.35610  1.0000 -0.1624737744
N   N19       1.0  0.54570  0.31690  0.14390  1.0000 -0.1624737744
N   N20       1.0  0.95430  0.18310  0.14390  1.0000 -0.1624737744
N   N21       1.0  0.95430  0.31690  0.64390  1.0000 -0.1624737744
N   N22       1.0  0.54570  0.18310  0.64390  1.0000 -0.1624737744
N   N23       1.0  0.45430  0.68310  0.85610  1.0000 -0.1624737744
N   N24       1.0  0.04570  0.81690  0.85610  1.0000 -0.1624737744
N   N25       1.0  0.00220  0.62570  0.43220  1.0000 -0.1504741847
N   N26       1.0  0.49780  0.87430  0.43220  1.0000 -0.1504741847
N   N27       1.0  0.50220  0.37430  0.06780  1.0000 -0.1504741847
N   N28       1.0  0.99780  0.12570  0.06780  1.0000 -0.1504741847
N   N29       1.0  0.99780  0.37430  0.56780  1.0000 -0.1504741847
N   N30       1.0  0.50220  0.12570  0.56780  1.0000 -0.1504741847
N   N31       1.0  0.49780  0.62570  0.93220  1.0000 -0.1504741847
N   N32       1.0  0.00220  0.87430  0.93220  1.0000 -0.1504741847
N   N33       1.0  0.98410  0.62680  0.91950  1.0000 -0.1504741847
N   N34       1.0  0.51590  0.87320  0.91950  1.0000 -0.1504741847
N   N35       1.0  0.48410  0.37320  0.58050  1.0000 -0.1504741847
N   N36       1.0  0.01590  0.12680  0.58050  1.0000 -0.1504741847
N   N37       1.0  0.01590  0.37320  0.08050  1.0000 -0.1504741847
N   N38       1.0  0.48410  0.12680  0.08050  1.0000 -0.1504741847
N   N39       1.0  0.51590  0.62680  0.41950  1.0000 -0.1504741847
N   N40       1.0  0.98410  0.87320  0.41950  1.0000 -0.1504741847
N   N41       1.0  0.93580  0.69330  0.84850  1.0000 -0.166611049
N   N42       1.0  0.56420  0.80670  0.84850  1.0000 -0.166611049
N   N43       1.0  0.43580  0.30670  0.65150  1.0000 -0.166611049
N   N44       1.0  0.06420  0.19330  0.65150  1.0000 -0.166611049
N   N45       1.0  0.06420  0.30670  0.15150  1.0000 -0.166611049
N   N46       1.0  0.43580  0.19330  0.15150  1.0000 -0.1624737744
N   N47       1.0  0.56420  0.69330  0.34850  1.0000 -0.166611049
N   N48       1.0  0.93580  0.80670  0.34850  1.0000 -0.166611049
N   N49       1.0  0.79700  0.81600  0.63240  1.0000 -0.1504741847
N   N50       1.0  0.70300  0.68400  0.63240  1.0000 -0.1504741847
N   N51       1.0  0.29700  0.18400  0.86760  1.0000 -0.1504741847
N   N52       1.0  0.20300  0.31600  0.86760  1.0000 -0.1504741847
N   N53       1.0  0.20300  0.18400  0.36760  1.0000 -0.1504741847
N   N54       1.0  0.29700  0.31600  0.36760  1.0000 -0.1504741847
N   N55       1.0  0.70300  0.81600  0.13240  1.0000 -0.1504741847
N   N56       1.0  0.79700  0.68400  0.13240  1.0000 -0.1504741847
N   N57       1.0  0.75800  0.87730  0.55790  1.0000 -0.1504741847
N   N58       1.0  0.74200  0.62270  0.55790  1.0000 -0.1504741847
N   N59       1.0  0.25800  0.12270  0.94210  1.0000 -0.1504741847
N   N60       1.0  0.24200  0.37730  0.94210  1.0000 -0.1504741847
N   N61       1.0  0.24200  0.12270  0.44210  1.0000 -0.1504741847
N   N62       1.0  0.25800  0.37730  0.44210  1.0000 -0.1504741847
N   N63       1.0  0.74200  0.87730  0.05790  1.0000 -0.1504741847
N   N64       1.0  0.75800  0.62270  0.05790  1.0000 -0.1504741847
O   O1        1.0  0.28240  0.90950  0.94970  1.0000 -0.5384187117
O   O2        1.0  0.21760  0.59050  0.94970  1.0000 -0.5384187117
O   O3        1.0  0.78240  0.09050  0.55030  1.0000 -0.5384187117
O   O4        1.0  0.71760  0.40950  0.55030  1.0000 -0.5384187117
O   O5        1.0  0.71760  0.09050  0.05030  1.0000 -0.5384187117
O   O6        1.0  0.78240  0.40950  0.05030  1.0000 -0.5384187117
O   O7        1.0  0.21760  0.90950  0.44970  1.0000 -0.5384187117
O   O8        1.0  0.28240  0.59050  0.44970  1.0000 -0.5384187117
O   O9        1.0  0.34720  0.00420  0.06840  1.0000 -0.5384187117
O   O10       1.0  0.15280  0.49580  0.06840  1.0000 -0.5384187117
O   O11       1.0  0.84720  0.99580  0.43160  1.0000 -0.5384187117
O   O12       1.0  0.65280  0.50420  0.43160  1.0000 -0.5384187117
O   O13       1.0  0.65280  0.99580  0.93160  1.0000 -0.5384187117
O   O14       1.0  0.84720  0.50420  0.93160  1.0000 -0.5384187117
O   O15       1.0  0.15280  0.00420  0.56840  1.0000 -0.5384187117
O   O16       1.0  0.34720  0.49580  0.56840  1.0000 -0.5384187117
O   O17       1.0  0.07020  0.69530  0.18380  1.0000 -0.5104470435
O   O18       1.0  0.42980  0.80470  0.18380  1.0000 -0.5104470435
O   O19       1.0  0.57020  0.30470  0.31620  1.0000 -0.5104470435
O   O20       1.0  0.92980  0.19530  0.31620  1.0000 -0.5104470435
O   O21       1.0  0.92980  0.30470  0.81620  1.0000 -0.5104470435
O   O22       1.0  0.57020  0.19530  0.81620  1.0000 -0.5104470435
O   O23       1.0  0.42980  0.69530  0.68380  1.0000 -0.5104470435
O   O24       1.0  0.07020  0.80470  0.68380  1.0000 -0.5104470435
O   O25       1.0  0.22410  0.82660  0.25340  1.0000 -0.5190967832
O   O26       1.0  0.27590  0.67340  0.25340  1.0000 -0.5190967832
O   O27       1.0  0.72410  0.17340  0.24660  1.0000 -0.5190967832
O   O28       1.0  0.77590  0.32660  0.24660  1.0000 -0.5190967832
O   O29       1.0  0.77590  0.17340  0.74660  1.0000 -0.5190967832
O   O30       1.0  0.72410  0.32660  0.74660  1.0000 -0.5190967832
O   O31       1.0  0.27590  0.82660  0.75340  1.0000 -0.5190967832
O   O32       1.0  0.22410  0.67340  0.75340  1.0000 -0.5190967832
O   O33       1.0  0.01900  0.65810  0.24580  1.0000 -0.5104470435
O   O34       1.0  0.48100  0.84190  0.24580  1.0000 -0.5104470435
O   O35       1.0  0.51900  0.34190  0.25420  1.0000 -0.5104470435
O   O36       1.0  0.98100  0.15810  0.25420  1.0000 -0.5104470435
O   O37       1.0  0.98100  0.34190  0.75420  1.0000 -0.5104470435
O   O38       1.0  0.51900  0.15810  0.75420  1.0000 -0.5104470435
O   O39       1.0  0.48100  0.65810  0.74580  1.0000 -0.5104470435
O   O40       1.0  0.01900  0.84190  0.74580  1.0000 -0.5104470435
O   O41       1.0  0.15930  0.79710  0.31620  1.0000 -0.5104470435
O   O42       1.0  0.34070  0.70290  0.31620  1.0000 -0.5104470435
O   O43       1.0  0.65930  0.20290  0.18380  1.0000 -0.5104470435
O   O44       1.0  0.84070  0.29710  0.18380  1.0000 -0.5104470435
O   O45       1.0  0.84070  0.20290  0.68380  1.0000 -0.5104470435
O   O46       1.0  0.65930  0.29710  0.68380  1.0000 -0.5104470435
O   O47       1.0  0.34070  0.79710  0.81620  1.0000 -0.5104470435
O   O48       1.0  0.15930  0.70290  0.81620  1.0000 -0.5104470435
O   O49       1.0  0.99140  0.58400  0.55280  1.0000 -0.5104470435
O   O50       1.0  0.50860  0.91600  0.55280  1.0000 -0.5104470435
O   O51       1.0  0.49140  0.41600  0.94720  1.0000 -0.5104470435
O   O52       1.0  0.00860  0.08400  0.94720  1.0000 -0.5104470435
O   O53       1.0  0.00860  0.41600  0.44720  1.0000 -0.5104470435
O   O54       1.0  0.49140  0.08400  0.44720  1.0000 -0.5104470435
O   O55       1.0  0.50860  0.58400  0.05280  1.0000 -0.5104470435
O   O56       1.0  0.99140  0.91600  0.05280  1.0000 -0.5104470435
O   O57       1.0  0.92840  0.52930  0.03930  1.0000 -0.559386754
O   O58       1.0  0.57160  0.97070  0.03930  1.0000 -0.559386754
O   O59       1.0  0.42840  0.47070  0.46070  1.0000 -0.559386754
O   O60       1.0  0.07160  0.02930  0.46070  1.0000 -0.559386754
O   O61       1.0  0.07160  0.47070  0.96070  1.0000 -0.559386754
O   O62       1.0  0.42840  0.02930  0.96070  1.0000 -0.559386754
O   O63       1.0  0.57160  0.52930  0.53930  1.0000 -0.559386754
O   O64       1.0  0.92840  0.97070  0.53930  1.0000 -0.559386754
O   O65       1.0  0.02570  0.60280  0.04420  1.0000 -0.5830385476
O   O66       1.0  0.47430  0.89720  0.04420  1.0000 -0.5830385476
O   O67       1.0  0.52570  0.39720  0.45580  1.0000 -0.5830385476
O   O68       1.0  0.97430  0.10280  0.45580  1.0000 -0.5830385476
O   O69       1.0  0.97430  0.39720  0.95580  1.0000 -0.5830385476
O   O70       1.0  0.52570  0.10280  0.95580  1.0000 -0.5830385476
O   O71       1.0  0.47430  0.60280  0.54420  1.0000 -0.5830385476
O   O72       1.0  0.02570  0.89720  0.54420  1.0000 -0.5830385476
O   O73       1.0  0.31630  0.98350  0.44580  1.0000 -0.5669524684
O   O74       1.0  0.18370  0.51650  0.44580  1.0000 -0.5669524684
O   O75       1.0  0.81630  0.01650  0.05420  1.0000 -0.5669524684
O   O76       1.0  0.68370  0.48350  0.05420  1.0000 -0.5669524684
O   O77       1.0  0.68370  0.01650  0.55420  1.0000 -0.5669524684
O   O78       1.0  0.81630  0.48350  0.55420  1.0000 -0.5669524684
O   O79       1.0  0.18370  0.98350  0.94580  1.0000 -0.5669524684
O   O80       1.0  0.31630  0.51650  0.94580  1.0000 -0.5669524684
O   O81       1.0  0.07420  0.50630  0.56230  1.0000 -0.5190967832
O   O82       1.0  0.42580  0.99370  0.56230  1.0000 -0.5190967832
O   O83       1.0  0.57420  0.49370  0.93770  1.0000 -0.5190967832
O   O84       1.0  0.92580  0.00630  0.93770  1.0000 -0.5190967832
O   O85       1.0  0.92580  0.49370  0.43770  1.0000 -0.5190967832
O   O86       1.0  0.57420  0.00630  0.43770  1.0000 -0.5190967832
O   O87       1.0  0.42580  0.50630  0.06230  1.0000 -0.5190967832
O   O88       1.0  0.07420  0.99370  0.06230  1.0000 -0.5190967832
O   O89       1.0  0.91530  0.70030  0.67990  1.0000 -0.4873109176
O   O90       1.0  0.58470  0.79970  0.67990  1.0000 -0.4873109176
O   O91       1.0  0.41530  0.29970  0.82010  1.0000 -0.4873109176
O   O92       1.0  0.08470  0.20030  0.82010  1.0000 -0.4873109176
O   O93       1.0  0.08470  0.29970  0.32010  1.0000 -0.4873109176
O   O94       1.0  0.41530  0.20030  0.32010  1.0000 -0.4873109176
O   O95       1.0  0.58470  0.70030  0.17990  1.0000 -0.4873109176
O   O96       1.0  0.91530  0.79970  0.17990  1.0000 -0.4873109176
O   O97       1.0  0.96520  0.67650  0.74700  1.0000 -0.5311205364
O   O98       1.0  0.53480  0.82350  0.74700  1.0000 -0.5311205364
O   O99       1.0  0.46520  0.32350  0.75300  1.0000 -0.5311205364
O   O100      1.0  0.03480  0.17650  0.75300  1.0000 -0.5311205364
O   O101      1.0  0.03480  0.32350  0.25300  1.0000 -0.5311205364
O   O102      1.0  0.46520  0.17650  0.25300  1.0000 -0.5311205364
O   O103      1.0  0.53480  0.67650  0.24700  1.0000 -0.5311205364
O   O104      1.0  0.96520  0.82350  0.24700  1.0000 -0.5311205364
O   O105      1.0  0.81390  0.81150  0.80550  1.0000 -0.5190967832
O   O106      1.0  0.68610  0.68850  0.80550  1.0000 -0.5190967832
O   O107      1.0  0.31390  0.18850  0.69450  1.0000 -0.5190967832
O   O108      1.0  0.18610  0.31150  0.69450  1.0000 -0.5190967832
O   O109      1.0  0.18610  0.18850  0.19450  1.0000 -0.5190967832
O   O110      1.0  0.31390  0.31150  0.19450  1.0000 -0.5190967832
O   O111      1.0  0.68610  0.81150  0.30550  1.0000 -0.5190967832
O   O112      1.0  0.81390  0.68850  0.30550  1.0000 -0.5190967832
O   O113      1.0  0.77310  0.84450  0.73930  1.0000 -0.5030678823
O   O114      1.0  0.72690  0.65550  0.73930  1.0000 -0.5030678823
O   O115      1.0  0.27310  0.15550  0.76070  1.0000 -0.5030678823
O   O116      1.0  0.22690  0.34450  0.76070  1.0000 -0.5030678823
O   O117      1.0  0.22690  0.15550  0.26070  1.0000 -0.5030678823
O   O118      1.0  0.27310  0.34450  0.26070  1.0000 -0.5030678823
O   O119      1.0  0.72690  0.84450  0.23930  1.0000 -0.5030678823
O   O120      1.0  0.77310  0.65550  0.23930  1.0000 -0.5030678823
O   O121      1.0  0.75490  0.92010  0.43670  1.0000 -0.5311205364
O   O122      1.0  0.74510  0.57990  0.43670  1.0000 -0.5311205364
O   O123      1.0  0.25490  0.07990  0.06330  1.0000 -0.5311205364
O   O124      1.0  0.24510  0.42010  0.06330  1.0000 -0.5311205364
O   O125      1.0  0.24510  0.07990  0.56330  1.0000 -0.5311205364
O   O126      1.0  0.25490  0.42010  0.56330  1.0000 -0.5311205364
O   O127      1.0  0.74510  0.92010  0.93670  1.0000 -0.5311205364
O   O128      1.0  0.75490  0.57990  0.93670  1.0000 -0.5311205364
