# DDEC6 charges by PACMAN v1.1 (https://github.com/mtap-research/PACMAN-charge/)
data_2016[Cd][fsc]3[ASR]1
_chemical_formula_sum              "Cd8 H72 C128 N8 O32"
_cell_length_a       10.819
_cell_length_b       24.514
_cell_length_c       16.607
_cell_angle_alpha    90
_cell_angle_beta     91.681
_cell_angle_gamma    90

_symmetry_space_group_name_H-M    "P 1"
_symmetry_Int_Tables_number       1

loop_
  _symmetry_equiv_pos_as_xyz
  'x, y, z'

loop_
  _atom_site_type_symbol
  _atom_site_label
  _atom_site_symmetry_multiplicity
  _atom_site_fract_x
  _atom_site_fract_y
  _atom_site_fract_z
  _atom_site_occupancy
  _atom_site_charge
Cd  Cd1       1.0  0.00005  0.80202  0.03587  1.0000 0.9183379864
Cd  Cd2       1.0  0.99995  0.30202  0.46413  1.0000 0.9183379864
Cd  Cd3       1.0  0.99995  0.19798  0.96413  1.0000 0.9183379864
Cd  Cd4       1.0  0.00005  0.69798  0.53587  1.0000 0.9183379864
Cd  Cd5       1.0  0.28485  0.13216  0.99260  1.0000 0.9432763761
Cd  Cd6       1.0  0.71515  0.63216  0.50740  1.0000 0.9432763761
Cd  Cd7       1.0  0.71515  0.86784  0.00740  1.0000 0.9432763761
Cd  Cd8       1.0  0.28485  0.36784  0.49260  1.0000 0.9432763761
H   H1        1.0  0.83750  0.67050  0.84170  1.0000 0.1191775278
H   H2        1.0  0.16250  0.17050  0.65830  1.0000 0.1191775278
H   H3        1.0  0.16250  0.32950  0.15830  1.0000 0.1191775278
H   H4        1.0  0.83750  0.82950  0.34170  1.0000 0.1191775278
H   H5        1.0  0.84120  0.59750  0.75310  1.0000 0.1191775278
H   H6        1.0  0.15880  0.09750  0.74690  1.0000 0.1191775278
H   H7        1.0  0.15880  0.40250  0.24690  1.0000 0.1191775278
H   H8        1.0  0.84120  0.90250  0.25310  1.0000 0.1191775278
H   H9        1.0  0.18400  0.56090  0.83680  1.0000 0.1191775278
H   H10       1.0  0.81600  0.06090  0.66320  1.0000 0.1191775278
H   H11       1.0  0.81600  0.43910  0.16320  1.0000 0.1191775278
H   H12       1.0  0.18400  0.93910  0.33680  1.0000 0.1191775278
H   H13       1.0  0.18270  0.63570  0.91960  1.0000 0.1191775278
H   H14       1.0  0.81730  0.13570  0.58040  1.0000 0.1191775278
H   H15       1.0  0.81730  0.36430  0.08040  1.0000 0.1191775278
H   H16       1.0  0.18270  0.86430  0.41960  1.0000 0.1191775278
H   H17       1.0  0.93800  0.47490  0.55600  1.0000 0.1297614257
H   H18       1.0  0.06200  0.97490  0.94400  1.0000 0.1297614257
H   H19       1.0  0.06200  0.52510  0.44400  1.0000 0.1297614257
H   H20       1.0  0.93800  0.02510  0.05600  1.0000 0.1297614257
H   H21       1.0  0.09320  0.47400  0.81650  1.0000 0.1103205743
H   H22       1.0  0.90680  0.97400  0.68350  1.0000 0.1103205743
H   H23       1.0  0.90680  0.52600  0.18350  1.0000 0.1103205743
H   H24       1.0  0.09320  0.02600  0.31650  1.0000 0.1103205743
H   H25       1.0  0.99140  0.32160  0.72000  1.0000 0.1191775278
H   H26       1.0  0.00860  0.82160  0.78000  1.0000 0.1191775278
H   H27       1.0  0.00860  0.67840  0.28000  1.0000 0.1191775278
H   H28       1.0  0.99140  0.17840  0.22000  1.0000 0.1191775278
H   H29       1.0  0.06980  0.24780  0.79160  1.0000 0.1103205743
H   H30       1.0  0.93020  0.74780  0.70840  1.0000 0.1103205743
H   H31       1.0  0.93020  0.75220  0.20840  1.0000 0.1103205743
H   H32       1.0  0.06980  0.25220  0.29160  1.0000 0.1103205743
H   H33       1.0  0.34170  0.34050  0.88420  1.0000 0.1191775278
H   H34       1.0  0.65830  0.84050  0.61580  1.0000 0.1191775278
H   H35       1.0  0.65830  0.65950  0.11580  1.0000 0.1191775278
H   H36       1.0  0.34170  0.15950  0.38420  1.0000 0.1191775278
H   H37       1.0  0.26110  0.41520  0.81810  1.0000 0.1103205743
H   H38       1.0  0.73890  0.91520  0.68190  1.0000 0.1103205743
H   H39       1.0  0.73890  0.58480  0.18190  1.0000 0.1103205743
H   H40       1.0  0.26110  0.08480  0.31810  1.0000 0.1103205743
H   H41       1.0  0.25590  0.73790  0.05630  1.0000 0.1103205743
H   H42       1.0  0.74410  0.23790  0.44370  1.0000 0.1103205743
H   H43       1.0  0.74410  0.26210  0.94370  1.0000 0.1103205743
H   H44       1.0  0.25590  0.76210  0.55630  1.0000 0.1103205743
H   H45       1.0  0.40360  0.70810  0.14750  1.0000 0.1382410234
H   H46       1.0  0.59640  0.20810  0.35250  1.0000 0.1382410234
H   H47       1.0  0.59640  0.29190  0.85250  1.0000 0.1382410234
H   H48       1.0  0.40360  0.79190  0.64750  1.0000 0.1382410234
H   H49       1.0  0.22270  0.78780  0.31860  1.0000 0.1297614257
H   H50       1.0  0.77730  0.28780  0.18140  1.0000 0.1297614257
H   H51       1.0  0.77730  0.21220  0.68140  1.0000 0.1297614257
H   H52       1.0  0.22270  0.71220  0.81860  1.0000 0.1297614257
H   H53       1.0  0.09150  0.82250  0.22010  1.0000 0.0986786714
H   H54       1.0  0.90850  0.32250  0.27990  1.0000 0.0986786714
H   H55       1.0  0.90850  0.17750  0.77990  1.0000 0.0986786714
H   H56       1.0  0.09150  0.67750  0.72010  1.0000 0.0986786714
H   H57       1.0  0.57130  0.72620  0.24210  1.0000 0.1297614257
H   H58       1.0  0.42870  0.22620  0.25790  1.0000 0.1297614257
H   H59       1.0  0.42870  0.27380  0.75790  1.0000 0.1297614257
H   H60       1.0  0.57130  0.77380  0.74210  1.0000 0.1297614257
H   H61       1.0  0.70340  0.69040  0.33710  1.0000 0.1103205743
H   H62       1.0  0.29660  0.19040  0.16290  1.0000 0.1103205743
H   H63       1.0  0.29660  0.30960  0.66290  1.0000 0.1103205743
H   H64       1.0  0.70340  0.80960  0.83710  1.0000 0.1103205743
H   H65       1.0  0.43750  0.67670  0.48940  1.0000 0.1103205743
H   H66       1.0  0.56250  0.17670  0.01060  1.0000 0.1103205743
H   H67       1.0  0.56250  0.32330  0.51060  1.0000 0.1103205743
H   H68       1.0  0.43750  0.82330  0.98940  1.0000 0.1103205743
H   H69       1.0  0.29800  0.71090  0.39680  1.0000 0.1510283059
H   H70       1.0  0.70200  0.21090  0.10320  1.0000 0.1510283059
H   H71       1.0  0.70200  0.28910  0.60320  1.0000 0.1510283059
H   H72       1.0  0.29800  0.78910  0.89680  1.0000 0.1510283059
C   C1        1.0  0.01200  0.71060  0.94210  1.0000 0.5357579893
C   C2        1.0  0.98800  0.21060  0.55790  1.0000 0.5357579893
C   C3        1.0  0.98800  0.28940  0.05790  1.0000 0.5357579893
C   C4        1.0  0.01200  0.78940  0.44210  1.0000 0.5357579893
C   C5        1.0  0.01100  0.66145  0.88920  1.0000 -0.0300143081
C   C6        1.0  0.98900  0.16145  0.61080  1.0000 -0.0300143081
C   C7        1.0  0.98900  0.33855  0.11080  1.0000 -0.0300143081
C   C8        1.0  0.01100  0.83855  0.38920  1.0000 -0.0300143081
C   C9        1.0  0.90800  0.64890  0.83940  1.0000 -0.1030116113
C   C10       1.0  0.09200  0.14890  0.66060  1.0000 -0.1030116113
C   C11       1.0  0.09200  0.35110  0.16060  1.0000 -0.1030116113
C   C12       1.0  0.90800  0.85110  0.33940  1.0000 -0.1030116113
C   C13       1.0  0.90940  0.60480  0.78670  1.0000 -0.1363920067
C   C14       1.0  0.09060  0.10480  0.71330  1.0000 -0.1363920067
C   C15       1.0  0.09060  0.39520  0.21330  1.0000 -0.1363920067
C   C16       1.0  0.90940  0.89520  0.28670  1.0000 -0.1363920067
C   C17       1.0  0.01390  0.57172  0.78470  1.0000 0.0704809256
C   C18       1.0  0.98610  0.07172  0.71530  1.0000 0.0704809256
C   C19       1.0  0.98610  0.42828  0.21530  1.0000 0.0704809256
C   C20       1.0  0.01390  0.92828  0.28470  1.0000 0.0704809256
C   C21       1.0  0.11500  0.58350  0.83650  1.0000 -0.1475041312
C   C22       1.0  0.88500  0.08350  0.66350  1.0000 -0.1475041312
C   C23       1.0  0.88500  0.41650  0.16350  1.0000 -0.1475041312
C   C24       1.0  0.11500  0.91650  0.33650  1.0000 -0.1475041312
C   C25       1.0  0.11370  0.62804  0.88680  1.0000 -0.1136783113
C   C26       1.0  0.88630  0.12804  0.61320  1.0000 -0.1136783113
C   C27       1.0  0.88630  0.37196  0.11320  1.0000 -0.1136783113
C   C28       1.0  0.11370  0.87196  0.38680  1.0000 -0.1136783113
C   C29       1.0  0.01750  0.52352  0.73110  1.0000 0.054327455
C   C30       1.0  0.98250  0.02352  0.76890  1.0000 0.054327455
C   C31       1.0  0.98250  0.47648  0.26890  1.0000 0.054327455
C   C32       1.0  0.01750  0.97648  0.23110  1.0000 0.054327455
C   C33       1.0  0.97160  0.52341  0.65180  1.0000 -0.0603152945
C   C34       1.0  0.02840  0.02341  0.84820  1.0000 -0.0603152945
C   C35       1.0  0.02840  0.47659  0.34820  1.0000 -0.0603152945
C   C36       1.0  0.97160  0.97659  0.15180  1.0000 -0.0603152945
C   C37       1.0  0.92510  0.57463  0.60880  1.0000 0.5930903411
C   C38       1.0  0.07490  0.07463  0.89120  1.0000 0.5930903411
C   C39       1.0  0.07490  0.42537  0.39120  1.0000 0.5930903411
C   C40       1.0  0.92510  0.92537  0.10880  1.0000 0.5930903411
C   C41       1.0  0.97120  0.47505  0.60830  1.0000 -0.1184695357
C   C42       1.0  0.02880  0.97505  0.89170  1.0000 -0.1184695357
C   C43       1.0  0.02880  0.52495  0.39170  1.0000 -0.1184695357
C   C44       1.0  0.97120  0.02495  0.10830  1.0000 -0.1184695357
C   C45       1.0  0.01920  0.42654  0.64060  1.0000 -0.0603152945
C   C46       1.0  0.98080  0.92654  0.85940  1.0000 -0.0603152945
C   C47       1.0  0.98080  0.57346  0.35940  1.0000 -0.0603152945
C   C48       1.0  0.01920  0.07346  0.14060  1.0000 -0.0603152945
C   C49       1.0  0.06740  0.42616  0.71920  1.0000 0.0561296648
C   C50       1.0  0.93260  0.92616  0.78080  1.0000 0.0561296648
C   C51       1.0  0.93260  0.57384  0.28080  1.0000 0.0561296648
C   C52       1.0  0.06740  0.07384  0.21920  1.0000 0.0561296648
C   C53       1.0  0.06370  0.47435  0.76330  1.0000 -0.19763039
C   C54       1.0  0.93630  0.97435  0.73670  1.0000 -0.19763039
C   C55       1.0  0.93630  0.52565  0.23670  1.0000 -0.19763039
C   C56       1.0  0.06370  0.02565  0.26330  1.0000 -0.19763039
C   C57       1.0  0.11750  0.37696  0.76050  1.0000 0.0704809256
C   C58       1.0  0.88250  0.87696  0.73950  1.0000 0.0704809256
C   C59       1.0  0.88250  0.62304  0.23950  1.0000 0.0704809256
C   C60       1.0  0.11750  0.12304  0.26050  1.0000 0.0704809256
C   C61       1.0  0.06120  0.32597  0.75350  1.0000 -0.1363920067
C   C62       1.0  0.93880  0.82597  0.74650  1.0000 -0.1363920067
C   C63       1.0  0.93880  0.67403  0.24650  1.0000 -0.1363920067
C   C64       1.0  0.06120  0.17403  0.25350  1.0000 -0.1363920067
C   C65       1.0  0.10880  0.28154  0.79620  1.0000 -0.1184695357
C   C66       1.0  0.89120  0.78154  0.70380  1.0000 -0.1184695357
C   C67       1.0  0.89120  0.71846  0.20380  1.0000 -0.1184695357
C   C68       1.0  0.10880  0.21846  0.29620  1.0000 -0.1184695357
C   C69       1.0  0.21420  0.28695  0.84590  1.0000 -0.0300143081
C   C70       1.0  0.78580  0.78695  0.65410  1.0000 -0.0300143081
C   C71       1.0  0.78580  0.71305  0.15410  1.0000 -0.0300143081
C   C72       1.0  0.21420  0.21305  0.34590  1.0000 -0.0300143081
C   C73       1.0  0.27030  0.33670  0.85210  1.0000 -0.1030116113
C   C74       1.0  0.72970  0.83670  0.64790  1.0000 -0.1030116113
C   C75       1.0  0.72970  0.66330  0.14790  1.0000 -0.1030116113
C   C76       1.0  0.27030  0.16330  0.35210  1.0000 -0.1030116113
C   C77       1.0  0.22280  0.38147  0.81160  1.0000 -0.1475041312
C   C78       1.0  0.77720  0.88147  0.68840  1.0000 -0.1363920067
C   C79       1.0  0.77720  0.61853  0.18840  1.0000 -0.1475041312
C   C80       1.0  0.22280  0.11853  0.31160  1.0000 -0.1475041312
C   C81       1.0  0.01680  0.37829  0.58500  1.0000 0.5696564174
C   C82       1.0  0.98320  0.87829  0.91500  1.0000 0.5696564174
C   C83       1.0  0.98320  0.62171  0.41500  1.0000 0.5696564174
C   C84       1.0  0.01680  0.12171  0.08500  1.0000 0.5696564174
C   C85       1.0  0.25050  0.74880  0.10970  1.0000 0.0903730082
C   C86       1.0  0.74950  0.24880  0.39030  1.0000 0.0903730082
C   C87       1.0  0.74950  0.25120  0.89030  1.0000 0.0903730082
C   C88       1.0  0.25050  0.75120  0.60970  1.0000 0.0903730082
C   C89       1.0  0.33860  0.72970  0.16450  1.0000 -0.1746222818
C   C90       1.0  0.66140  0.22970  0.33550  1.0000 -0.1746222818
C   C91       1.0  0.66140  0.27030  0.83550  1.0000 -0.1746222818
C   C92       1.0  0.33860  0.77030  0.66450  1.0000 -0.1746222818
C   C93       1.0  0.32910  0.74292  0.24470  1.0000 0.1103205743
C   C94       1.0  0.67090  0.24292  0.25530  1.0000 0.1103205743
C   C95       1.0  0.67090  0.25708  0.75530  1.0000 0.1103205743
C   C96       1.0  0.32910  0.75708  0.74470  1.0000 0.1103205743
C   C97       1.0  0.23260  0.77780  0.26510  1.0000 -0.176927936
C   C98       1.0  0.76740  0.27780  0.23490  1.0000 -0.176927936
C   C99       1.0  0.76740  0.22220  0.73490  1.0000 -0.176927936
C   C100      1.0  0.23260  0.72220  0.76510  1.0000 -0.176927936
C   C101      1.0  0.15190  0.79754  0.20590  1.0000 0.0903730082
C   C102      1.0  0.84810  0.29754  0.29410  1.0000 0.0903730082
C   C103      1.0  0.84810  0.20246  0.79410  1.0000 0.0903730082
C   C104      1.0  0.15190  0.70246  0.70590  1.0000 0.0903730082
C   C105      1.0  0.41670  0.72228  0.30770  1.0000 0.1191775278
C   C106      1.0  0.58330  0.22228  0.19230  1.0000 0.1191775278
C   C107      1.0  0.58330  0.27772  0.69230  1.0000 0.1191775278
C   C108      1.0  0.41670  0.77772  0.80770  1.0000 0.1191775278
C   C109      1.0  0.54170  0.71600  0.29190  1.0000 -0.176927936
C   C110      1.0  0.45830  0.21600  0.20810  1.0000 -0.176927936
C   C111      1.0  0.45830  0.28400  0.70810  1.0000 -0.176927936
C   C112      1.0  0.54170  0.78400  0.79190  1.0000 -0.176927936
C   C113      1.0  0.62070  0.69480  0.34940  1.0000 0.0903730082
C   C114      1.0  0.37930  0.19480  0.15060  1.0000 0.0903730082
C   C115      1.0  0.37930  0.30520  0.65060  1.0000 0.0903730082
C   C116      1.0  0.62070  0.80520  0.84940  1.0000 0.0903730082
C   C117      1.0  0.46460  0.68660  0.43870  1.0000 0.0796864784
C   C118      1.0  0.53540  0.18660  0.06130  1.0000 0.0796864784
C   C119      1.0  0.53540  0.31340  0.56130  1.0000 0.0796864784
C   C120      1.0  0.46460  0.81340  0.93870  1.0000 0.0796864784
C   C121      1.0  0.38040  0.70720  0.38320  1.0000 -0.176927936
C   C122      1.0  0.61960  0.20720  0.11680  1.0000 -0.176927936
C   C123      1.0  0.61960  0.29280  0.61680  1.0000 -0.176927936
C   C124      1.0  0.38040  0.79280  0.88320  1.0000 -0.176927936
C   C125      1.0  0.26920  0.23822  0.88890  1.0000 0.5795469886
C   C126      1.0  0.73080  0.73822  0.61110  1.0000 0.5795469886
C   C127      1.0  0.73080  0.76178  0.11110  1.0000 0.5795469886
C   C128      1.0  0.26920  0.26178  0.38890  1.0000 0.5795469886
N   N1        1.0  0.58470  0.68012  0.42260  1.0000 -0.2519276285
N   N2        1.0  0.41530  0.18012  0.07740  1.0000 -0.2519276285
N   N3        1.0  0.41530  0.31988  0.57740  1.0000 -0.2519276285
N   N4        1.0  0.58470  0.81988  0.92260  1.0000 -0.2519276285
N   N5        1.0  0.15800  0.78197  0.12890  1.0000 -0.2421103039
N   N6        1.0  0.84200  0.28197  0.37110  1.0000 -0.2421103039
N   N7        1.0  0.84200  0.21803  0.87110  1.0000 -0.2421103039
N   N8        1.0  0.15800  0.71803  0.62890  1.0000 -0.2421103039
O   O1        1.0  0.11140  0.73580  0.95280  1.0000 -0.557557776
O   O2        1.0  0.88860  0.23580  0.54720  1.0000 -0.557557776
O   O3        1.0  0.88860  0.26420  0.04720  1.0000 -0.557557776
O   O4        1.0  0.11140  0.76420  0.45280  1.0000 -0.557557776
O   O5        1.0  0.91480  0.72565  0.97290  1.0000 -0.5103447506
O   O6        1.0  0.08520  0.22565  0.52710  1.0000 -0.5103447506
O   O7        1.0  0.08520  0.27435  0.02710  1.0000 -0.5103447506
O   O8        1.0  0.91480  0.77435  0.47290  1.0000 -0.5103447506
O   O9        1.0  0.99020  0.61636  0.61244  1.0000 -0.5502205634
O   O10       1.0  0.00980  0.11636  0.88756  1.0000 -0.5502205634
O   O11       1.0  0.00980  0.38364  0.38756  1.0000 -0.5502205634
O   O12       1.0  0.99020  0.88364  0.11244  1.0000 -0.5502205634
O   O13       1.0  0.82350  0.56798  0.56963  1.0000 -0.5709352487
O   O14       1.0  0.17650  0.06798  0.93037  1.0000 -0.5709352487
O   O15       1.0  0.17650  0.43202  0.43037  1.0000 -0.5709352487
O   O16       1.0  0.82350  0.93202  0.06963  1.0000 -0.5709352487
O   O17       1.0  0.91630  0.36541  0.55192  1.0000 -0.5103447506
O   O18       1.0  0.08370  0.86541  0.94808  1.0000 -0.5103447506
O   O19       1.0  0.08370  0.63459  0.44808  1.0000 -0.5103447506
O   O20       1.0  0.91630  0.13459  0.05192  1.0000 -0.5103447506
O   O21       1.0  0.11660  0.35309  0.57182  1.0000 -0.5779413799
O   O22       1.0  0.88340  0.85309  0.92818  1.0000 -0.5779413799
O   O23       1.0  0.88340  0.64691  0.42818  1.0000 -0.5779413799
O   O24       1.0  0.11660  0.14691  0.07182  1.0000 -0.5779413799
O   O25       1.0  0.38430  0.23733  0.89750  1.0000 -0.5709352487
O   O26       1.0  0.61570  0.73733  0.60250  1.0000 -0.5709352487
O   O27       1.0  0.61570  0.76267  0.10250  1.0000 -0.5709352487
O   O28       1.0  0.38430  0.26267  0.39750  1.0000 -0.5709352487
O   O29       1.0  0.19800  0.20040  0.91112  1.0000 -0.5779413799
O   O30       1.0  0.80200  0.70040  0.58888  1.0000 -0.5779413799
O   O31       1.0  0.80200  0.79960  0.08888  1.0000 -0.5779413799
O   O32       1.0  0.19800  0.29960  0.41112  1.0000 -0.5779413799
