# DDEC6 charges by PACMAN v1.1 (https://github.com/mtap-research/PACMAN-charge/)
data_2016[Sm][nan]3[ASR]2
_chemical_formula_sum              "Sm4 H72 C102 O24"
_cell_length_a       11.4087
_cell_length_b       13.6584
_cell_length_c       24.023
_cell_angle_alpha    93.171
_cell_angle_beta     103.627
_cell_angle_gamma    112.671

_symmetry_space_group_name_H-M    "P 1"
_symmetry_Int_Tables_number       1

loop_
  _symmetry_equiv_pos_as_xyz
  'x, y, z'

loop_
  _atom_site_type_symbol
  _atom_site_label
  _atom_site_symmetry_multiplicity
  _atom_site_fract_x
  _atom_site_fract_y
  _atom_site_fract_z
  _atom_site_occupancy
  _atom_site_charge
Sm  Sm1       1.0  0.64698  0.59774  0.96206  1.0000 2.0904899001
Sm  Sm2       1.0  0.35302  0.40226  0.03794  1.0000 2.0904899001
Sm  Sm3       1.0  0.37573  0.29807  0.51771  1.0000 2.0511056542
Sm  Sm4       1.0  0.62427  0.70193  0.48229  1.0000 2.0511056542
H   H1        1.0  0.56500  0.86560  0.85010  1.0000 0.1297949261
H   H2        1.0  0.43500  0.13440  0.14990  1.0000 0.1297949261
H   H3        1.0  0.65330  0.66550  0.75780  1.0000 0.1297949261
H   H4        1.0  0.34670  0.33450  0.24220  1.0000 0.1297949261
H   H5        1.0  0.63090  0.75320  0.67850  1.0000 0.1297949261
H   H6        1.0  0.36910  0.24680  0.32150  1.0000 0.1297949261
H   H7        1.0  0.34800  0.00780  0.75990  1.0000 0.1297949261
H   H8        1.0  0.65200  0.99220  0.24010  1.0000 0.1297949261
H   H9        1.0  0.37520  0.93850  0.80780  1.0000 0.1297949261
H   H10       1.0  0.62480  0.06150  0.19220  1.0000 0.1297949261
H   H11       1.0  0.31860  0.88680  0.74150  1.0000 0.1297949261
H   H12       1.0  0.68140  0.11320  0.25850  1.0000 0.1297949261
H   H13       1.0  0.58010  0.14060  0.80550  1.0000 0.1297949261
H   H14       1.0  0.41990  0.85940  0.19450  1.0000 0.1297949261
H   H15       1.0  0.61680  0.06540  0.84730  1.0000 0.1297949261
H   H16       1.0  0.38320  0.93460  0.15270  1.0000 0.1297949261
H   H17       1.0  0.69610  0.10870  0.80190  1.0000 0.1389631446
H   H18       1.0  0.30390  0.89130  0.19810  1.0000 0.1389631446
H   H19       1.0  0.58750  0.88410  0.60120  1.0000 0.1297949261
H   H20       1.0  0.41250  0.11590  0.39880  1.0000 0.1297949261
H   H21       1.0  0.47090  0.12990  0.69010  1.0000 0.1297949261
H   H22       1.0  0.52910  0.87010  0.30990  1.0000 0.1297949261
H   H23       1.0  0.53530  0.00690  0.55040  1.0000 0.1297949261
H   H24       1.0  0.46470  0.99310  0.44960  1.0000 0.1297949261
H   H25       1.0  0.13530  0.10310  0.32130  1.0000 0.1297949261
H   H26       1.0  0.86470  0.89690  0.67870  1.0000 0.1297949261
H   H27       1.0  0.94130  0.98060  0.43910  1.0000 0.1389631446
H   H28       1.0  0.05870  0.01940  0.56090  1.0000 0.1389631446
H   H29       1.0  0.76860  0.85230  0.36530  1.0000 0.1214514881
H   H30       1.0  0.23140  0.14770  0.63470  1.0000 0.1214514881
H   H31       1.0  0.92480  0.04470  0.15350  1.0000 0.1297949261
H   H32       1.0  0.07520  0.95530  0.84650  1.0000 0.1297949261
H   H33       1.0  0.88170  0.08240  0.20560  1.0000 0.1297949261
H   H34       1.0  0.11830  0.91760  0.79440  1.0000 0.1297949261
H   H35       1.0  0.03120  0.11960  0.20960  1.0000 0.1297949261
H   H36       1.0  0.96880  0.88040  0.79040  1.0000 0.1297949261
H   H37       1.0  0.05620  0.87310  0.22970  1.0000 0.1297949261
H   H38       1.0  0.94380  0.12690  0.77030  1.0000 0.1297949261
H   H39       1.0  0.03350  0.91030  0.16830  1.0000 0.1297949261
H   H40       1.0  0.96650  0.08970  0.83170  1.0000 0.1297949261
H   H41       1.0  0.13390  0.99290  0.22330  1.0000 0.1297949261
H   H42       1.0  0.86610  0.00710  0.77670  1.0000 0.1297949261
H   H43       1.0  0.77860  0.83370  0.11390  1.0000 0.1297949261
H   H44       1.0  0.22140  0.16630  0.88610  1.0000 0.1297949261
H   H45       1.0  0.59450  0.72810  0.26640  1.0000 0.1297949261
H   H46       1.0  0.40550  0.27190  0.73360  1.0000 0.1297949261
H   H47       1.0  0.48250  0.63740  0.17180  1.0000 0.1297949261
H   H48       1.0  0.51750  0.36260  0.82820  1.0000 0.1297949261
H   H49       1.0  0.10610  0.30560  0.38310  1.0000 0.1214514881
H   H50       1.0  0.89390  0.69440  0.61690  1.0000 0.1214514881
H   H51       1.0  0.32220  0.58110  0.33620  1.0000 0.1389631446
H   H52       1.0  0.67780  0.41890  0.66380  1.0000 0.1389631446
H   H53       1.0  0.93030  0.27580  0.30330  1.0000 0.1214514881
H   H54       1.0  0.06970  0.72420  0.69670  1.0000 0.1214514881
H   H55       1.0  0.21980  0.51870  0.18790  1.0000 0.1389631446
H   H56       1.0  0.78020  0.48130  0.81210  1.0000 0.1389631446
H   H57       1.0  0.31470  0.62830  0.22830  1.0000 0.1297949261
H   H58       1.0  0.68530  0.37170  0.77170  1.0000 0.1297949261
H   H59       1.0  0.21190  0.62610  0.17110  1.0000 0.1297949261
H   H60       1.0  0.78810  0.37390  0.82890  1.0000 0.1297949261
H   H61       1.0  0.08620  0.68000  0.28880  1.0000 0.1297949261
H   H62       1.0  0.91380  0.32000  0.71120  1.0000 0.1297949261
H   H63       1.0  0.23470  0.72500  0.28980  1.0000 0.1297949261
H   H64       1.0  0.76530  0.27500  0.71020  1.0000 0.1297949261
H   H65       1.0  0.12960  0.72690  0.23470  1.0000 0.1214514881
H   H66       1.0  0.87040  0.27310  0.76530  1.0000 0.1214514881
H   H67       1.0  0.74750  0.29020  0.21130  1.0000 0.1214514881
H   H68       1.0  0.25250  0.70980  0.78870  1.0000 0.1214514881
H   H69       1.0  0.95530  0.60270  0.13920  1.0000 0.1297949261
H   H70       1.0  0.04470  0.39730  0.86080  1.0000 0.1297949261
H   H71       1.0  0.63260  0.33910  0.13280  1.0000 0.1297949261
H   H72       1.0  0.36740  0.66090  0.86720  1.0000 0.1297949261
C   C1        1.0  0.62560  0.69970  0.86310  1.0000 0.5614717662
C   C2        1.0  0.37440  0.30030  0.13690  1.0000 0.5614717662
C   C3        1.0  0.61340  0.75560  0.81150  1.0000 -0.0227905098
C   C4        1.0  0.38660  0.24440  0.18850  1.0000 -0.0227905098
C   C5        1.0  0.57670  0.84260  0.81550  1.0000 -0.1495493247
C   C6        1.0  0.42330  0.15740  0.18450  1.0000 -0.1495493247
C   C7        1.0  0.63090  0.72390  0.76070  1.0000 -0.1096017413
C   C8        1.0  0.36910  0.27610  0.23930  1.0000 -0.1096017413
C   C9        1.0  0.55830  0.89310  0.76910  1.0000 0.0175893057
C   C10       1.0  0.44170  0.10690  0.23090  1.0000 0.0175893057
C   C11       1.0  0.61650  0.77530  0.71260  1.0000 -0.1495493247
C   C12       1.0  0.38350  0.22470  0.28740  1.0000 -0.1430702767
C   C13       1.0  0.57990  0.86080  0.71750  1.0000 0.0175893057
C   C14       1.0  0.42010  0.13920  0.28250  1.0000 0.0175893057
C   C15       1.0  0.51600  0.98630  0.76310  1.0000 0.1724820718
C   C16       1.0  0.48400  0.01370  0.23690  1.0000 0.1724820718
C   C17       1.0  0.55920  0.93150  0.67560  1.0000 0.0175893057
C   C18       1.0  0.44080  0.06850  0.32440  1.0000 0.0175893057
C   C19       1.0  0.37650  0.95130  0.76860  1.0000 -0.4696595808
C   C20       1.0  0.62350  0.04870  0.23140  1.0000 -0.4696595808
C   C21       1.0  0.51990  0.00310  0.70220  1.0000 0.0128987319
C   C22       1.0  0.48010  0.99690  0.29780  1.0000 0.0128987319
C   C23       1.0  0.61100  0.08430  0.80880  1.0000 -0.4696595808
C   C24       1.0  0.38900  0.91570  0.19120  1.0000 -0.4696595808
C   C25       1.0  0.56360  0.93280  0.61900  1.0000 -0.1279397026
C   C26       1.0  0.43640  0.06720  0.38100  1.0000 -0.1279397026
C   C27       1.0  0.49220  0.07960  0.67210  1.0000 -0.1495493247
C   C28       1.0  0.50780  0.92040  0.32790  1.0000 -0.1495493247
C   C29       1.0  0.53250  0.00610  0.58870  1.0000 -0.099137535
C   C30       1.0  0.46750  0.99390  0.41130  1.0000 -0.099137535
C   C31       1.0  0.49680  0.07950  0.61550  1.0000 -0.0114254231
C   C32       1.0  0.50320  0.92050  0.38450  1.0000 -0.0114254231
C   C33       1.0  0.46360  0.16210  0.58190  1.0000 0.5614717662
C   C34       1.0  0.53640  0.83790  0.41810  1.0000 0.5614717662
C   C35       1.0  0.16410  0.13650  0.43410  1.0000 0.5712390303
C   C36       1.0  0.83590  0.86350  0.56590  1.0000 0.5712390303
C   C37       1.0  0.05220  0.05240  0.38740  1.0000 -0.0227905098
C   C38       1.0  0.94780  0.94760  0.61260  1.0000 -0.0227905098
C   C39       1.0  0.06190  0.05370  0.33010  1.0000 -0.1430702767
C   C40       1.0  0.93810  0.94630  0.66990  1.0000 -0.1430702767
C   C41       1.0  0.94500  0.97930  0.40080  1.0000 -0.099137535
C   C42       1.0  0.05500  0.02070  0.59920  1.0000 -0.099137535
C   C43       1.0  0.95610  0.97720  0.28720  1.0000 0.0175893057
C   C44       1.0  0.04390  0.02280  0.71280  1.0000 0.0175893057
C   C45       1.0  0.84140  0.90280  0.35660  1.0000 -0.1279397026
C   C46       1.0  0.15860  0.09720  0.64340  1.0000 -0.1279397026
C   C47       1.0  0.94270  0.96060  0.22180  1.0000 0.1756243467
C   C48       1.0  0.05730  0.03940  0.77820  1.0000 0.1756243467
C   C49       1.0  0.84780  0.90250  0.30030  1.0000 0.0175893057
C   C50       1.0  0.15220  0.09750  0.69970  1.0000 0.0175893057
C   C51       1.0  0.94600  0.06150  0.19530  1.0000 -0.4617518276
C   C52       1.0  0.05400  0.93850  0.80470  1.0000 -0.4617518276
C   C53       1.0  0.80750  0.86630  0.19990  1.0000 0.0175893057
C   C54       1.0  0.19250  0.13370  0.80010  1.0000 0.0175893057
C   C55       1.0  0.05160  0.93140  0.20960  1.0000 -0.4773898363
C   C56       1.0  0.94840  0.06860  0.79040  1.0000 -0.4773898363
C   C57       1.0  0.75580  0.83330  0.24620  1.0000 0.0128987319
C   C58       1.0  0.24420  0.16670  0.75380  1.0000 0.0128987319
C   C59       1.0  0.74180  0.81270  0.14420  1.0000 -0.1495493247
C   C60       1.0  0.25820  0.18730  0.85580  1.0000 -0.1495493247
C   C61       1.0  0.63170  0.74840  0.23600  1.0000 -0.1430702767
C   C62       1.0  0.36830  0.25160  0.76400  1.0000 -0.1430702767
C   C63       1.0  0.61790  0.72550  0.13380  1.0000 -0.0396760084
C   C64       1.0  0.38210  0.27450  0.86620  1.0000 -0.0396760084
C   C65       1.0  0.56460  0.69480  0.17920  1.0000 -0.1096017413
C   C66       1.0  0.43540  0.30520  0.82080  1.0000 -0.1096017413
C   C67       1.0  0.54810  0.66480  0.07350  1.0000 0.6492373854
C   C68       1.0  0.45190  0.33520  0.92650  1.0000 0.6492373854
C   C69       1.0  0.34140  0.47070  0.42160  1.0000 0.6680460632
C   C70       1.0  0.65860  0.52930  0.57840  1.0000 0.6680460632
C   C71       1.0  0.22970  0.44770  0.36900  1.0000 -0.0396760084
C   C72       1.0  0.77030  0.55230  0.63100  1.0000 -0.0396760084
C   C73       1.0  0.11330  0.35580  0.35800  1.0000 -0.1096017413
C   C74       1.0  0.88670  0.64420  0.64200  1.0000 -0.1096017413
C   C75       1.0  0.24260  0.52130  0.33010  1.0000 -0.1495493247
C   C76       1.0  0.75740  0.47870  0.66990  1.0000 -0.1495493247
C   C77       1.0  0.00810  0.33770  0.31050  1.0000 -0.1495493247
C   C78       1.0  0.99190  0.66230  0.68950  1.0000 -0.1495493247
C   C79       1.0  0.14000  0.50580  0.28390  1.0000 0.0175893057
C   C80       1.0  0.86000  0.49420  0.71610  1.0000 0.0175893057
C   C81       1.0  0.02070  0.41420  0.27340  1.0000 0.0128987319
C   C82       1.0  0.97930  0.58580  0.72660  1.0000 0.0128987319
C   C83       1.0  0.12610  0.57620  0.23830  1.0000 0.1724820718
C   C84       1.0  0.87390  0.42380  0.76170  1.0000 0.1724820718
C   C85       1.0  0.92380  0.42080  0.22260  1.0000 0.0175893057
C   C86       1.0  0.07620  0.57920  0.77740  1.0000 0.0175893057
C   C87       1.0  0.22770  0.58830  0.20300  1.0000 -0.4523753167
C   C88       1.0  0.77230  0.41170  0.79700  1.0000 -0.4523753167
C   C89       1.0  0.14620  0.68730  0.26560  1.0000 -0.4696595808
C   C90       1.0  0.85380  0.31270  0.73440  1.0000 -0.4696595808
C   C91       1.0  0.98570  0.51410  0.20160  1.0000 0.0128987319
C   C92       1.0  0.01430  0.48590  0.79840  1.0000 0.0128987319
C   C93       1.0  0.78900  0.35260  0.19710  1.0000 -0.1495493247
C   C94       1.0  0.21100  0.64740  0.80290  1.0000 -0.1495493247
C   C95       1.0  0.91460  0.54090  0.15410  1.0000 -0.1430702767
C   C96       1.0  0.08540  0.45910  0.84590  1.0000 -0.1430702767
C   C97       1.0  0.72150  0.38220  0.15050  1.0000 -0.1096017413
C   C98       1.0  0.27850  0.61780  0.84950  1.0000 -0.1096017413
C   C99       1.0  0.78350  0.47490  0.12950  1.0000 -0.0227905098
C   C100      1.0  0.21650  0.52510  0.87050  1.0000 -0.0227905098
C   C101      1.0  0.70700  0.50440  0.07710  1.0000 0.6492373854
C   C102      1.0  0.29300  0.49560  0.92290  1.0000 0.6492373854
O   O1        1.0  0.63700  0.61070  0.85760  1.0000 -0.6479927043
O   O2        1.0  0.36300  0.38930  0.14240  1.0000 -0.6479927043
O   O3        1.0  0.60410  0.68960  0.03500  1.0000 -0.6295346409
O   O4        1.0  0.39590  0.31040  0.96500  1.0000 -0.6295346409
O   O5        1.0  0.62680  0.74180  0.91180  1.0000 -0.6479927043
O   O6        1.0  0.37320  0.25820  0.08820  1.0000 -0.6479927043
O   O7        1.0  0.43350  0.59000  0.06590  1.0000 -0.6796103955
O   O8        1.0  0.56650  0.41000  0.93410  1.0000 -0.6796103955
O   O9        1.0  0.45610  0.15500  0.52890  1.0000 -0.6295346409
O   O10       1.0  0.54390  0.84500  0.47110  1.0000 -0.6295346409
O   O11       1.0  0.43960  0.23050  0.60780  1.0000 -0.6295346409
O   O12       1.0  0.56040  0.76950  0.39220  1.0000 -0.6295346409
O   O13       1.0  0.15790  0.14800  0.48510  1.0000 -0.6295346409
O   O14       1.0  0.84210  0.85200  0.51490  1.0000 -0.6295346409
O   O15       1.0  0.26820  0.19510  0.42120  1.0000 -0.6479927043
O   O16       1.0  0.73180  0.80490  0.57880  1.0000 -0.6479927043
O   O17       1.0  0.77260  0.56470  0.04810  1.0000 -0.6430508733
O   O18       1.0  0.22740  0.43530  0.95190  1.0000 -0.6430508733
O   O19       1.0  0.58430  0.46830  0.06540  1.0000 -0.690990144
O   O20       1.0  0.41570  0.53170  0.93460  1.0000 -0.690990144
O   O21       1.0  0.45280  0.54190  0.42360  1.0000 -0.6796103955
O   O22       1.0  0.54720  0.45810  0.57640  1.0000 -0.6796103955
O   O23       1.0  0.31730  0.41800  0.46270  1.0000 -0.7023686409
O   O24       1.0  0.68270  0.58200  0.53730  1.0000 -0.7023686409
