# DDEC6 charges by PACMAN v1.1 (https://github.com/mtap-research/PACMAN-charge/)
data_2016[Ce][pcu]3[ASR]1
_chemical_formula_sum              "Ce2 H24 C48 O12"
_cell_length_a       10.4511
_cell_length_b       11.5252
_cell_length_c       12.9767
_cell_angle_alpha    106.487
_cell_angle_beta     90.202
_cell_angle_gamma    93.46

_symmetry_space_group_name_H-M    "P 1"
_symmetry_Int_Tables_number       1

loop_
  _symmetry_equiv_pos_as_xyz
  'x, y, z'

loop_
  _atom_site_type_symbol
  _atom_site_label
  _atom_site_symmetry_multiplicity
  _atom_site_fract_x
  _atom_site_fract_y
  _atom_site_fract_z
  _atom_site_occupancy
  _atom_site_charge
Ce  Ce1       1.0  0.52013  0.55267  0.65846  1.0000 1.9580669556
Ce  Ce2       1.0  0.47987  0.44733  0.34154  1.0000 1.9580669556
H   H1        1.0  0.60149  0.90757  0.73129  1.0000 0.1064997156
H   H2        1.0  0.39851  0.09243  0.26871  1.0000 0.1064997156
H   H3        1.0  0.69058  0.09694  0.69720  1.0000 0.0993083766
H   H4        1.0  0.30942  0.90306  0.30280  1.0000 0.0993083766
H   H5        1.0  0.69735  0.29486  0.84477  1.0000 0.0993083766
H   H6        1.0  0.30265  0.70514  0.15523  1.0000 0.0993083766
H   H7        1.0  0.61047  0.30251  0.02354  1.0000 0.1064997156
H   H8        1.0  0.38953  0.69749  0.97646  1.0000 0.1064997156
H   H9        1.0  0.75471  0.70070  0.58921  1.0000 0.0900180083
H   H10       1.0  0.24529  0.29930  0.41079  1.0000 0.0900180083
H   H11       1.0  0.84864  0.85461  0.74828  1.0000 0.1064997156
H   H12       1.0  0.15136  0.14539  0.25172  1.0000 0.1064997156
H   H13       1.0  0.07774  0.84391  0.80746  1.0000 0.1064997156
H   H14       1.0  0.92226  0.15609  0.19254  1.0000 0.1064997156
H   H15       1.0  0.20731  0.67883  0.70934  1.0000 0.116946504
H   H16       1.0  0.79269  0.32117  0.29066  1.0000 0.116946504
H   H17       1.0  0.26594  0.21554  0.55076  1.0000 0.1064997156
H   H18       1.0  0.73406  0.78446  0.44924  1.0000 0.1064997156
H   H19       1.0  0.07237  0.10655  0.59595  1.0000 0.0993083766
H   H20       1.0  0.92763  0.89345  0.40405  1.0000 0.0993083766
H   H21       1.0  0.08218  0.89154  0.60466  1.0000 0.0900180083
H   H22       1.0  0.91782  0.10846  0.39534  1.0000 0.0900180083
H   H23       1.0  0.28274  0.78562  0.56449  1.0000 0.0993083766
H   H24       1.0  0.71726  0.21438  0.43551  1.0000 0.0993083766
C   C1        1.0  0.50751  0.76607  0.83460  1.0000 0.5792697821
C   C2        1.0  0.49249  0.23393  0.16540  1.0000 0.5792697821
C   C3        1.0  0.50157  0.88749  0.91828  1.0000 -0.09248203
C   C4        1.0  0.49843  0.11251  0.08172  1.0000 -0.09248203
C   C5        1.0  0.55433  0.99492  0.89817  1.0000 0.0513022278
C   C6        1.0  0.44567  0.00508  0.10183  1.0000 0.0513022278
C   C7        1.0  0.60504  0.99365  0.79528  1.0000 -0.1296803891
C   C8        1.0  0.39496  0.00635  0.20472  1.0000 -0.1296803891
C   C9        1.0  0.65402  0.09946  0.77691  1.0000 -0.0802444431
C   C10       1.0  0.34598  0.90054  0.22309  1.0000 -0.0802444431
C   C11       1.0  0.65626  0.21143  0.85983  1.0000 -0.0802444431
C   C12       1.0  0.34374  0.78857  0.14017  1.0000 -0.0802444431
C   C13       1.0  0.60770  0.21662  0.95939  1.0000 -0.1296803891
C   C14       1.0  0.39230  0.78338  0.04061  1.0000 -0.1296803891
C   C15       1.0  0.55390  0.10882  0.98138  1.0000 0.0513022278
C   C16       1.0  0.44610  0.89118  0.01862  1.0000 0.0513022278
C   C17       1.0  0.73694  0.51059  0.43126  1.0000 0.6025146399
C   C18       1.0  0.26306  0.48941  0.56874  1.0000 0.6025146399
C   C19       1.0  0.87248  0.50629  0.46669  1.0000 -0.1098180334
C   C20       1.0  0.12752  0.49371  0.53331  1.0000 -0.1098180334
C   C21       1.0  0.92481  0.59566  0.55807  1.0000 0.0513022278
C   C22       1.0  0.07519  0.40434  0.44193  1.0000 0.0513022278
C   C23       1.0  0.85260  0.69404  0.61647  1.0000 -0.141409799
C   C24       1.0  0.14740  0.30596  0.38353  1.0000 -0.141409799
C   C25       1.0  0.90616  0.78043  0.70468  1.0000 -0.0723622884
C   C26       1.0  0.09384  0.21957  0.29532  1.0000 -0.0723622884
C   C27       1.0  0.03466  0.77405  0.73811  1.0000 -0.0802444431
C   C28       1.0  0.96534  0.22595  0.26189  1.0000 -0.0802444431
C   C29       1.0  0.10818  0.68201  0.68323  1.0000 -0.1296803891
C   C30       1.0  0.89182  0.31799  0.31677  1.0000 -0.1296803891
C   C31       1.0  0.05492  0.58964  0.59215  1.0000 0.0558773917
C   C32       1.0  0.94508  0.41036  0.40785  1.0000 0.0558773917
C   C33       1.0  0.49058  0.25310  0.49900  1.0000 0.6454863106
C   C34       1.0  0.50942  0.74690  0.50100  1.0000 0.6454863106
C   C35       1.0  0.49500  0.12151  0.49670  1.0000 -0.1098180334
C   C36       1.0  0.50500  0.87849  0.50330  1.0000 -0.1098180334
C   C37       1.0  0.38535  0.06157  0.52625  1.0000 0.0513022278
C   C38       1.0  0.61465  0.93843  0.47375  1.0000 0.0513022278
C   C39       1.0  0.26847  0.12090  0.55179  1.0000 -0.1296803891
C   C40       1.0  0.73153  0.87910  0.44821  1.0000 -0.1296803891
C   C41       1.0  0.16180  0.06021  0.57791  1.0000 -0.0802444431
C   C42       1.0  0.83820  0.93979  0.42209  1.0000 -0.0802444431
C   C43       1.0  0.16703  0.93851  0.58223  1.0000 -0.0802444431
C   C44       1.0  0.83297  0.06149  0.41777  1.0000 -0.0802444431
C   C45       1.0  0.27840  0.87893  0.55998  1.0000 -0.1216361965
C   C46       1.0  0.72160  0.12107  0.44002  1.0000 -0.1216361965
C   C47       1.0  0.39047  0.93811  0.53015  1.0000 0.0513022278
C   C48       1.0  0.60953  0.06189  0.46985  1.0000 0.0513022278
O   O1        1.0  0.61546  0.71635  0.81394  1.0000 -0.6051996793
O   O2        1.0  0.38454  0.28365  0.18606  1.0000 -0.6051996793
O   O3        1.0  0.40407  0.71110  0.78514  1.0000 -0.6027123775
O   O4        1.0  0.59593  0.28890  0.21486  1.0000 -0.6027123775
O   O5        1.0  0.64454  0.49158  0.49414  1.0000 -0.7222688045
O   O6        1.0  0.35546  0.50842  0.50586  1.0000 -0.7222688045
O   O7        1.0  0.70874  0.52461  0.34073  1.0000 -0.5578651871
O   O8        1.0  0.29126  0.47539  0.65927  1.0000 -0.5578651871
O   O9        1.0  0.51401  0.33328  0.58870  1.0000 -0.6257456984
O   O10       1.0  0.48599  0.66667  0.41130  1.0000 -0.6257456984
O   O11       1.0  0.46221  0.27689  0.41102  1.0000 -0.6431789245
O   O12       1.0  0.53779  0.72311  0.58898  1.0000 -0.6431789245
