# DDEC6 charges by PACMAN v1.1 (https://github.com/mtap-research/PACMAN-charge/)
data_2016[Cu][nbo]3[ASR]45
_chemical_formula_sum              "Cu6 H78 C126 O30"
_cell_length_a       21.532
_cell_length_b       21.532
_cell_length_c       21.532
_cell_angle_alpha    109.828
_cell_angle_beta     109.828
_cell_angle_gamma    109.828

_symmetry_space_group_name_H-M    "P 1"
_symmetry_Int_Tables_number       1

loop_
  _symmetry_equiv_pos_as_xyz
  'x, y, z'

loop_
  _atom_site_type_symbol
  _atom_site_label
  _atom_site_symmetry_multiplicity
  _atom_site_fract_x
  _atom_site_fract_y
  _atom_site_fract_z
  _atom_site_occupancy
  _atom_site_charge
Cu  Cu1       1.0  0.94933  0.42639  0.94933  1.0000 0.8641252231
Cu  Cu2       1.0  0.42639  0.94933  0.94933  1.0000 0.8641252231
Cu  Cu3       1.0  0.94933  0.94933  0.42639  1.0000 0.8658435534
Cu  Cu4       1.0  0.57361  0.05067  0.05067  1.0000 0.8641252231
Cu  Cu5       1.0  0.05067  0.57361  0.05067  1.0000 0.8641252231
Cu  Cu6       1.0  0.05067  0.05067  0.57361  1.0000 0.8641252231
H   H1        1.0  0.10360  0.34560  0.92880  1.0000 0.127854332
H   H2        1.0  0.34560  0.92880  0.10360  1.0000 0.127854332
H   H3        1.0  0.92880  0.10360  0.34560  1.0000 0.127854332
H   H4        1.0  0.65440  0.89640  0.07120  1.0000 0.127854332
H   H5        1.0  0.07120  0.65440  0.89640  1.0000 0.127854332
H   H6        1.0  0.89640  0.07120  0.65440  1.0000 0.127854332
H   H7        1.0  0.89640  0.65440  0.07120  1.0000 0.127854332
H   H8        1.0  0.65440  0.07120  0.89640  1.0000 0.127854332
H   H9        1.0  0.07120  0.89640  0.65440  1.0000 0.127854332
H   H10       1.0  0.34560  0.10360  0.92880  1.0000 0.127854332
H   H11       1.0  0.92880  0.34560  0.10360  1.0000 0.127854332
H   H12       1.0  0.10360  0.92880  0.34560  1.0000 0.127854332
H   H13       1.0  0.20460  0.32480  0.93230  1.0000 0.1211388599
H   H14       1.0  0.32480  0.93230  0.20460  1.0000 0.1211388599
H   H15       1.0  0.93230  0.20460  0.32480  1.0000 0.1211388599
H   H16       1.0  0.67520  0.79540  0.06770  1.0000 0.1211388599
H   H17       1.0  0.06770  0.67520  0.79540  1.0000 0.1211388599
H   H18       1.0  0.79540  0.06770  0.67520  1.0000 0.1211388599
H   H19       1.0  0.79540  0.67520  0.06770  1.0000 0.1211388599
H   H20       1.0  0.67520  0.06770  0.79540  1.0000 0.1211388599
H   H21       1.0  0.06770  0.79540  0.67520  1.0000 0.1211388599
H   H22       1.0  0.32480  0.20460  0.93230  1.0000 0.1211388599
H   H23       1.0  0.93230  0.32480  0.20460  1.0000 0.1211388599
H   H24       1.0  0.20460  0.93230  0.32480  1.0000 0.1211388599
H   H25       1.0  0.35860  0.55010  0.09420  1.0000 0.112464926
H   H26       1.0  0.55010  0.09420  0.35860  1.0000 0.112464926
H   H27       1.0  0.09420  0.35860  0.55010  1.0000 0.112464926
H   H28       1.0  0.44990  0.64140  0.90580  1.0000 0.112464926
H   H29       1.0  0.90580  0.44990  0.64140  1.0000 0.112464926
H   H30       1.0  0.64140  0.90580  0.44990  1.0000 0.112464926
H   H31       1.0  0.64140  0.44990  0.90580  1.0000 0.112464926
H   H32       1.0  0.44990  0.90580  0.64140  1.0000 0.112464926
H   H33       1.0  0.90580  0.64140  0.44990  1.0000 0.112464926
H   H34       1.0  0.55010  0.35860  0.09420  1.0000 0.112464926
H   H35       1.0  0.09420  0.55010  0.35860  1.0000 0.112464926
H   H36       1.0  0.35860  0.09420  0.55010  1.0000 0.112464926
H   H37       1.0  0.25720  0.56990  0.08910  1.0000 0.127854332
H   H38       1.0  0.56990  0.08910  0.25720  1.0000 0.127854332
H   H39       1.0  0.08910  0.25720  0.56990  1.0000 0.127854332
H   H40       1.0  0.43010  0.74280  0.91090  1.0000 0.127854332
H   H41       1.0  0.91090  0.43010  0.74280  1.0000 0.127854332
H   H42       1.0  0.74280  0.91090  0.43010  1.0000 0.127854332
H   H43       1.0  0.74280  0.43010  0.91090  1.0000 0.127854332
H   H44       1.0  0.43010  0.91090  0.74280  1.0000 0.127854332
H   H45       1.0  0.91090  0.74280  0.43010  1.0000 0.127854332
H   H46       1.0  0.56990  0.25720  0.08910  1.0000 0.127854332
H   H47       1.0  0.08910  0.56990  0.25720  1.0000 0.127854332
H   H48       1.0  0.25720  0.08910  0.56990  1.0000 0.127854332
H   H49       1.0  0.40410  0.51840  0.00390  1.0000 0.112464926
H   H50       1.0  0.51840  0.00390  0.40410  1.0000 0.112464926
H   H51       1.0  0.00390  0.40410  0.51840  1.0000 0.112464926
H   H52       1.0  0.48160  0.59590  0.99610  1.0000 0.112464926
H   H53       1.0  0.99610  0.48160  0.59590  1.0000 0.112464926
H   H54       1.0  0.59590  0.99610  0.48160  1.0000 0.112464926
H   H55       1.0  0.59590  0.48160  0.99610  1.0000 0.112464926
H   H56       1.0  0.48160  0.99610  0.59590  1.0000 0.112464926
H   H57       1.0  0.99610  0.59590  0.48160  1.0000 0.112464926
H   H58       1.0  0.51840  0.40410  0.00390  1.0000 0.112464926
H   H59       1.0  0.00390  0.51840  0.40410  1.0000 0.112464926
H   H60       1.0  0.40410  0.00390  0.51840  1.0000 0.112464926
H   H61       1.0  0.28805  0.28805  0.09140  1.0000 0.1211388599
H   H62       1.0  0.28805  0.09140  0.28805  1.0000 0.1211388599
H   H63       1.0  0.09140  0.28805  0.28805  1.0000 0.1211388599
H   H64       1.0  0.71195  0.71195  0.90860  1.0000 0.1211388599
H   H65       1.0  0.90860  0.71195  0.71195  1.0000 0.1211388599
H   H66       1.0  0.71195  0.90860  0.71195  1.0000 0.1211388599
H   H67       1.0  0.37750  0.33210  0.11900  1.0000 0.1044205944
H   H68       1.0  0.33210  0.11900  0.37750  1.0000 0.1044205944
H   H69       1.0  0.11900  0.37750  0.33210  1.0000 0.112464926
H   H70       1.0  0.66790  0.62250  0.88100  1.0000 0.1044205944
H   H71       1.0  0.88100  0.66790  0.62250  1.0000 0.1044205944
H   H72       1.0  0.62250  0.88100  0.66790  1.0000 0.1044205944
H   H73       1.0  0.62250  0.66790  0.88100  1.0000 0.1044205944
H   H74       1.0  0.66790  0.88100  0.62250  1.0000 0.1044205944
H   H75       1.0  0.88100  0.62250  0.66790  1.0000 0.1044205944
H   H76       1.0  0.33210  0.37750  0.11900  1.0000 0.1044205944
H   H77       1.0  0.11900  0.33210  0.37750  1.0000 0.112464926
H   H78       1.0  0.37750  0.11900  0.33210  1.0000 0.1044205944
C   C1        1.0  0.10652  0.47450  0.00575  1.0000 0.5807773263
C   C2        1.0  0.47450  0.00575  0.10652  1.0000 0.5807773263
C   C3        1.0  0.00575  0.10652  0.47450  1.0000 0.5807773263
C   C4        1.0  0.52550  0.89348  0.99425  1.0000 0.5807773263
C   C5        1.0  0.99425  0.52550  0.89348  1.0000 0.5807773263
C   C6        1.0  0.89348  0.99425  0.52550  1.0000 0.5807773263
C   C7        1.0  0.89348  0.52550  0.99425  1.0000 0.5807773263
C   C8        1.0  0.52550  0.99425  0.89348  1.0000 0.5807773263
C   C9        1.0  0.99425  0.89348  0.52550  1.0000 0.5807773263
C   C10       1.0  0.47450  0.10652  0.00575  1.0000 0.5807773263
C   C11       1.0  0.00575  0.47450  0.10652  1.0000 0.5807773263
C   C12       1.0  0.10652  0.00575  0.47450  1.0000 0.5807773263
C   C13       1.0  0.17246  0.46160  0.00938  1.0000 -0.0218838157
C   C14       1.0  0.46160  0.00938  0.17246  1.0000 -0.0218838157
C   C15       1.0  0.00938  0.17246  0.46160  1.0000 -0.0218838157
C   C16       1.0  0.53840  0.82754  0.99062  1.0000 -0.0218838157
C   C17       1.0  0.99062  0.53840  0.82754  1.0000 -0.0218838157
C   C18       1.0  0.82754  0.99062  0.53840  1.0000 -0.0218838157
C   C19       1.0  0.82754  0.53840  0.99062  1.0000 -0.0218838157
C   C20       1.0  0.53840  0.99062  0.82754  1.0000 -0.0218838157
C   C21       1.0  0.99062  0.82754  0.53840  1.0000 -0.0218838157
C   C22       1.0  0.46160  0.17246  0.00938  1.0000 -0.0218838157
C   C23       1.0  0.00938  0.46160  0.17246  1.0000 -0.0218838157
C   C24       1.0  0.17246  0.00938  0.46160  1.0000 -0.0218838157
C   C25       1.0  0.15538  0.38703  0.96189  1.0000 -0.0877670053
C   C26       1.0  0.38703  0.96189  0.15538  1.0000 -0.0877670053
C   C27       1.0  0.96189  0.15538  0.38703  1.0000 -0.0877670053
C   C28       1.0  0.61297  0.84462  0.03811  1.0000 -0.0877670053
C   C29       1.0  0.03811  0.61297  0.84462  1.0000 -0.0877670053
C   C30       1.0  0.84462  0.03811  0.61297  1.0000 -0.0877670053
C   C31       1.0  0.84462  0.61297  0.03811  1.0000 -0.0877670053
C   C32       1.0  0.61297  0.03811  0.84462  1.0000 -0.0877670053
C   C33       1.0  0.03811  0.84462  0.61297  1.0000 -0.0877670053
C   C34       1.0  0.38703  0.15538  0.96189  1.0000 -0.0877670053
C   C35       1.0  0.96189  0.38703  0.15538  1.0000 -0.0877670053
C   C36       1.0  0.15538  0.96189  0.38703  1.0000 -0.0877670053
C   C37       1.0  0.21585  0.37498  0.96417  1.0000 -0.1519716788
C   C38       1.0  0.37498  0.96417  0.21585  1.0000 -0.1519716788
C   C39       1.0  0.96417  0.21585  0.37498  1.0000 -0.1519716788
C   C40       1.0  0.62502  0.78415  0.03583  1.0000 -0.1519716788
C   C41       1.0  0.03583  0.62502  0.78415  1.0000 -0.1519716788
C   C42       1.0  0.78415  0.03583  0.62502  1.0000 -0.1519716788
C   C43       1.0  0.78415  0.62502  0.03583  1.0000 -0.1519716788
C   C44       1.0  0.62502  0.03583  0.78415  1.0000 -0.1519716788
C   C45       1.0  0.03583  0.78415  0.62502  1.0000 -0.1519716788
C   C46       1.0  0.37498  0.21585  0.96417  1.0000 -0.1519716788
C   C47       1.0  0.96417  0.37498  0.21585  1.0000 -0.1519716788
C   C48       1.0  0.21585  0.96417  0.37498  1.0000 -0.1519716788
C   C49       1.0  0.29086  0.43421  0.01143  1.0000 0.0914081233
C   C50       1.0  0.43421  0.01143  0.29086  1.0000 0.0914081233
C   C51       1.0  0.01143  0.29086  0.43421  1.0000 0.0914081233
C   C52       1.0  0.56579  0.70914  0.98857  1.0000 0.0914081233
C   C53       1.0  0.98857  0.56579  0.70914  1.0000 0.0914081233
C   C54       1.0  0.70914  0.98857  0.56579  1.0000 0.0914081233
C   C55       1.0  0.70914  0.56579  0.98857  1.0000 0.0914081233
C   C56       1.0  0.56579  0.98857  0.70914  1.0000 0.0914081233
C   C57       1.0  0.98857  0.70914  0.56579  1.0000 0.0914081233
C   C58       1.0  0.43421  0.29086  0.01143  1.0000 0.0914081233
C   C59       1.0  0.01143  0.43421  0.29086  1.0000 0.0914081233
C   C60       1.0  0.29086  0.01143  0.43421  1.0000 0.0914081233
C   C61       1.0  0.30698  0.50849  0.05993  1.0000 -0.1652620245
C   C62       1.0  0.50849  0.05993  0.30698  1.0000 -0.1643358527
C   C63       1.0  0.05993  0.30698  0.50849  1.0000 -0.1652620245
C   C64       1.0  0.49151  0.69302  0.94007  1.0000 -0.1643358527
C   C65       1.0  0.94007  0.49151  0.69302  1.0000 -0.1643358527
C   C66       1.0  0.69302  0.94007  0.49151  1.0000 -0.1643358527
C   C67       1.0  0.69302  0.49151  0.94007  1.0000 -0.1643358527
C   C68       1.0  0.49151  0.94007  0.69302  1.0000 -0.1643358527
C   C69       1.0  0.94007  0.69302  0.49151  1.0000 -0.1643358527
C   C70       1.0  0.50849  0.30698  0.05993  1.0000 -0.1643358527
C   C71       1.0  0.05993  0.50849  0.30698  1.0000 -0.1652620245
C   C72       1.0  0.30698  0.05993  0.50849  1.0000 -0.1643358527
C   C73       1.0  0.24639  0.52005  0.05700  1.0000 -0.0877670053
C   C74       1.0  0.52005  0.05700  0.24639  1.0000 -0.0877670053
C   C75       1.0  0.05700  0.24639  0.52005  1.0000 -0.0877670053
C   C76       1.0  0.47995  0.75361  0.94300  1.0000 -0.0877670053
C   C77       1.0  0.94300  0.47995  0.75361  1.0000 -0.0877670053
C   C78       1.0  0.75361  0.94300  0.47995  1.0000 -0.0877670053
C   C79       1.0  0.75361  0.47995  0.94300  1.0000 -0.0877670053
C   C80       1.0  0.47995  0.94300  0.75361  1.0000 -0.0877670053
C   C81       1.0  0.94300  0.75361  0.47995  1.0000 -0.0877670053
C   C82       1.0  0.52005  0.24639  0.05700  1.0000 -0.0877670053
C   C83       1.0  0.05700  0.52005  0.24639  1.0000 -0.0877670053
C   C84       1.0  0.24639  0.05700  0.52005  1.0000 -0.0877670053
C   C85       1.0  0.35557  0.42408  0.00935  1.0000 -0.0218838157
C   C86       1.0  0.42408  0.00935  0.35557  1.0000 -0.0218838157
C   C87       1.0  0.00935  0.35557  0.42408  1.0000 -0.0218838157
C   C88       1.0  0.57592  0.64443  0.99065  1.0000 -0.0218838157
C   C89       1.0  0.99065  0.57592  0.64443  1.0000 -0.0218838157
C   C90       1.0  0.64443  0.99065  0.57592  1.0000 -0.0218838157
C   C91       1.0  0.64443  0.57592  0.99065  1.0000 -0.0218838157
C   C92       1.0  0.57592  0.99065  0.64443  1.0000 -0.0218838157
C   C93       1.0  0.99065  0.64443  0.57592  1.0000 -0.0218838157
C   C94       1.0  0.42408  0.35557  0.00935  1.0000 -0.0218838157
C   C95       1.0  0.00935  0.42408  0.35557  1.0000 -0.0218838157
C   C96       1.0  0.35557  0.00935  0.42408  1.0000 -0.0218838157
C   C97       1.0  0.40961  0.47692  0.00537  1.0000 -0.1952411839
C   C98       1.0  0.47692  0.00537  0.40961  1.0000 -0.1952411839
C   C99       1.0  0.00537  0.40961  0.47692  1.0000 -0.1952411839
C   C100      1.0  0.52308  0.59039  0.99463  1.0000 -0.1952411839
C   C101      1.0  0.99463  0.52308  0.59039  1.0000 -0.1952411839
C   C102      1.0  0.59039  0.99463  0.52308  1.0000 -0.1952411839
C   C103      1.0  0.59039  0.52308  0.99463  1.0000 -0.1952411839
C   C104      1.0  0.52308  0.99463  0.59039  1.0000 -0.1952411839
C   C105      1.0  0.99463  0.59039  0.52308  1.0000 -0.1952411839
C   C106      1.0  0.47692  0.40961  0.00537  1.0000 -0.1952411839
C   C107      1.0  0.00537  0.47692  0.40961  1.0000 -0.1952411839
C   C108      1.0  0.40961  0.00537  0.47692  1.0000 -0.1952411839
C   C109      1.0  0.47253  0.47253  0.00353  1.0000 0.0721557007
C   C110      1.0  0.47253  0.00353  0.47253  1.0000 0.0721557007
C   C111      1.0  0.00353  0.47253  0.47253  1.0000 0.0721557007
C   C112      1.0  0.52747  0.52747  0.99647  1.0000 0.0721557007
C   C113      1.0  0.99647  0.52746  0.52746  1.0000 0.0721557007
C   C114      1.0  0.52746  0.99647  0.52746  1.0000 0.0721557007
C   C115      1.0  0.36266  0.36266  0.01118  1.0000 0.1539339315
C   C116      1.0  0.36266  0.01118  0.36266  1.0000 0.1539339315
C   C117      1.0  0.01118  0.36266  0.36266  1.0000 0.1539339315
C   C118      1.0  0.63734  0.63734  0.98882  1.0000 0.1539339315
C   C119      1.0  0.98882  0.63734  0.63734  1.0000 0.1539339315
C   C120      1.0  0.63734  0.98882  0.63734  1.0000 0.1539339315
C   C121      1.0  0.32815  0.32815  0.09220  1.0000 -0.2336024253
C   C122      1.0  0.32815  0.09220  0.32815  1.0000 -0.2336024253
C   C123      1.0  0.09220  0.32815  0.32815  1.0000 -0.2336024253
C   C124      1.0  0.67185  0.67185  0.90780  1.0000 -0.2336024253
C   C125      1.0  0.90780  0.67185  0.67185  1.0000 -0.2336024253
C   C126      1.0  0.67185  0.90780  0.67185  1.0000 -0.2336024253
O   O1        1.0  0.12668  0.54385  0.04893  1.0000 -0.5281024187
O   O2        1.0  0.54385  0.04893  0.12668  1.0000 -0.5281024187
O   O3        1.0  0.04893  0.12668  0.54385  1.0000 -0.5281024187
O   O4        1.0  0.45615  0.87332  0.95107  1.0000 -0.5281024187
O   O5        1.0  0.95107  0.45615  0.87332  1.0000 -0.5281024187
O   O6        1.0  0.87332  0.95107  0.45615  1.0000 -0.5281024187
O   O7        1.0  0.87332  0.45615  0.95107  1.0000 -0.5281024187
O   O8        1.0  0.45615  0.95107  0.87332  1.0000 -0.5281024187
O   O9        1.0  0.95107  0.87332  0.45615  1.0000 -0.5281024187
O   O10       1.0  0.54385  0.12668  0.04893  1.0000 -0.5281024187
O   O11       1.0  0.04893  0.54385  0.12668  1.0000 -0.5281024187
O   O12       1.0  0.12668  0.04893  0.54385  1.0000 -0.5281024187
O   O13       1.0  0.03965  0.41745  0.96101  1.0000 -0.5133399029
O   O14       1.0  0.41745  0.96101  0.03965  1.0000 -0.5133399029
O   O15       1.0  0.96101  0.03965  0.41745  1.0000 -0.5133399029
O   O16       1.0  0.58255  0.96035  0.03899  1.0000 -0.5133399029
O   O17       1.0  0.03899  0.58255  0.96035  1.0000 -0.5133399029
O   O18       1.0  0.96035  0.03899  0.58255  1.0000 -0.5133399029
O   O19       1.0  0.96035  0.58255  0.03899  1.0000 -0.5133399029
O   O20       1.0  0.58255  0.03899  0.96035  1.0000 -0.5133399029
O   O21       1.0  0.03899  0.96035  0.58255  1.0000 -0.5133399029
O   O22       1.0  0.41745  0.03965  0.96101  1.0000 -0.5133399029
O   O23       1.0  0.96101  0.41745  0.03965  1.0000 -0.5133399029
O   O24       1.0  0.03965  0.96101  0.41745  1.0000 -0.5133399029
O   O25       1.0  0.30854  0.30854  0.01503  1.0000 -0.1924375181
O   O26       1.0  0.30854  0.01503  0.30854  1.0000 -0.1924375181
O   O27       1.0  0.01503  0.30854  0.30854  1.0000 -0.1924375181
O   O28       1.0  0.69147  0.69147  0.98497  1.0000 -0.1924375181
O   O29       1.0  0.98497  0.69146  0.69146  1.0000 -0.1924375181
O   O30       1.0  0.69147  0.98497  0.69146  1.0000 -0.1924375181
