# DDEC6 charges by PACMAN v1.1 (https://github.com/mtap-research/PACMAN-charge/)
data_2016[Zn][srs]3[ASR]1
_chemical_formula_sum              "Zn24 H192 C288 I48 N96"
_cell_length_a       14.0007
_cell_length_b       28.0724
_cell_length_c       44.7159
_cell_angle_alpha    90
_cell_angle_beta     90
_cell_angle_gamma    90

_symmetry_space_group_name_H-M    "P 1"
_symmetry_Int_Tables_number       1

loop_
  _symmetry_equiv_pos_as_xyz
  'x, y, z'

loop_
  _atom_site_type_symbol
  _atom_site_label
  _atom_site_symmetry_multiplicity
  _atom_site_fract_x
  _atom_site_fract_y
  _atom_site_fract_z
  _atom_site_occupancy
  _atom_site_charge
Zn  Zn1       1.0  0.82645  0.23815  0.17919  1.0000 0.4660316127
Zn  Zn2       1.0  0.17355  0.26185  0.67919  1.0000 0.4660316127
Zn  Zn3       1.0  0.67355  0.73815  0.82081  1.0000 0.4630555652
Zn  Zn4       1.0  0.32645  0.76185  0.32081  1.0000 0.4630555652
Zn  Zn5       1.0  0.38529  0.47724  0.58628  1.0000 0.4630555652
Zn  Zn6       1.0  0.61471  0.02276  0.08628  1.0000 0.4630555652
Zn  Zn7       1.0  0.11471  0.97724  0.41372  1.0000 0.4630555652
Zn  Zn8       1.0  0.88529  0.52276  0.91372  1.0000 0.4630555652
Zn  Zn9       1.0  0.13820  0.45002  0.41311  1.0000 0.4501573163
Zn  Zn10      1.0  0.86180  0.04998  0.91311  1.0000 0.4501573163
Zn  Zn11      1.0  0.36180  0.95002  0.58689  1.0000 0.4501573163
Zn  Zn12      1.0  0.63820  0.54998  0.08689  1.0000 0.4501573163
Zn  Zn13      1.0  0.17355  0.76185  0.82081  1.0000 0.4630555652
Zn  Zn14      1.0  0.82645  0.73815  0.32081  1.0000 0.4630555652
Zn  Zn15      1.0  0.32645  0.26185  0.17919  1.0000 0.4660316127
Zn  Zn16      1.0  0.67355  0.23815  0.67919  1.0000 0.4660316127
Zn  Zn17      1.0  0.61471  0.52276  0.41372  1.0000 0.4630555652
Zn  Zn18      1.0  0.38529  0.97724  0.91372  1.0000 0.4630555652
Zn  Zn19      1.0  0.88529  0.02276  0.58628  1.0000 0.4630555652
Zn  Zn20      1.0  0.11471  0.47724  0.08628  1.0000 0.4630555652
Zn  Zn21      1.0  0.86180  0.54998  0.58689  1.0000 0.4501573163
Zn  Zn22      1.0  0.13820  0.95002  0.08689  1.0000 0.4501573163
Zn  Zn23      1.0  0.63820  0.04998  0.41311  1.0000 0.4501573163
Zn  Zn24      1.0  0.36180  0.45002  0.91311  1.0000 0.4501573163
H   H1        1.0  0.86930  0.16060  0.22310  1.0000 0.1160714849
H   H2        1.0  0.13070  0.33940  0.72310  1.0000 0.1160714849
H   H3        1.0  0.63070  0.66060  0.77690  1.0000 0.1160714849
H   H4        1.0  0.36930  0.83940  0.27690  1.0000 0.1160714849
H   H5        1.0  0.93440  0.15060  0.27030  1.0000 0.1376649942
H   H6        1.0  0.06560  0.34940  0.77030  1.0000 0.1376649942
H   H7        1.0  0.56560  0.65060  0.72970  1.0000 0.1376649942
H   H8        1.0  0.43440  0.84940  0.22970  1.0000 0.1376649942
H   H9        1.0  0.00520  0.28940  0.27040  1.0000 0.1319967144
H   H10       1.0  0.99480  0.21060  0.77040  1.0000 0.1319967144
H   H11       1.0  0.49480  0.78940  0.72960  1.0000 0.1319967144
H   H12       1.0  0.50520  0.71060  0.22960  1.0000 0.1319967144
H   H13       1.0  0.94440  0.29590  0.22200  1.0000 0.1096886499
H   H14       1.0  0.05560  0.20410  0.72200  1.0000 0.1096886499
H   H15       1.0  0.55560  0.79590  0.77800  1.0000 0.1096886499
H   H16       1.0  0.44440  0.70410  0.27800  1.0000 0.1096886499
H   H17       1.0  0.03190  0.08480  0.32800  1.0000 0.1319967144
H   H18       1.0  0.96810  0.41520  0.82800  1.0000 0.1319967144
H   H19       1.0  0.46810  0.58480  0.67200  1.0000 0.1319967144
H   H20       1.0  0.53190  0.91520  0.17200  1.0000 0.1319967144
H   H21       1.0  0.05510  0.01440  0.35350  1.0000 0.1096886499
H   H22       1.0  0.94490  0.48560  0.85350  1.0000 0.1096886499
H   H23       1.0  0.44490  0.51440  0.64650  1.0000 0.1096886499
H   H24       1.0  0.55510  0.98560  0.14650  1.0000 0.1096886499
H   H25       1.0  0.10750  0.08270  0.42800  1.0000 0.1096886499
H   H26       1.0  0.89250  0.41730  0.92800  1.0000 0.1096886499
H   H27       1.0  0.39250  0.58270  0.57200  1.0000 0.1096886499
H   H28       1.0  0.60750  0.91730  0.07200  1.0000 0.1096886499
H   H29       1.0  0.08810  0.15490  0.40490  1.0000 0.1319967144
H   H30       1.0  0.91190  0.34510  0.90490  1.0000 0.1319967144
H   H31       1.0  0.41190  0.65490  0.59510  1.0000 0.1319967144
H   H32       1.0  0.58810  0.84510  0.09510  1.0000 0.1319967144
H   H33       1.0  0.10510  0.27190  0.40570  1.0000 0.1376649942
H   H34       1.0  0.89490  0.22810  0.90570  1.0000 0.1376649942
H   H35       1.0  0.39490  0.77190  0.59430  1.0000 0.1319967144
H   H36       1.0  0.60510  0.72810  0.09430  1.0000 0.1319967144
H   H37       1.0  0.12960  0.34540  0.42890  1.0000 0.1021884309
H   H38       1.0  0.87040  0.15460  0.92890  1.0000 0.1021884309
H   H39       1.0  0.37040  0.84540  0.57110  1.0000 0.1021884309
H   H40       1.0  0.62960  0.65460  0.07110  1.0000 0.1021884309
H   H41       1.0  0.05300  0.41350  0.35590  1.0000 0.1021884309
H   H42       1.0  0.94700  0.08650  0.85590  1.0000 0.1021884309
H   H43       1.0  0.44700  0.91350  0.64410  1.0000 0.1021884309
H   H44       1.0  0.55300  0.58650  0.14410  1.0000 0.1021884309
H   H45       1.0  0.02660  0.34360  0.33110  1.0000 0.1319967144
H   H46       1.0  0.97340  0.15640  0.83110  1.0000 0.1319967144
H   H47       1.0  0.47340  0.84360  0.66890  1.0000 0.1319967144
H   H48       1.0  0.52660  0.65640  0.16890  1.0000 0.1319967144
H   H49       1.0  0.19560  0.42260  0.47610  1.0000 0.1096886499
H   H50       1.0  0.80440  0.07740  0.97610  1.0000 0.1096886499
H   H51       1.0  0.30440  0.92260  0.52390  1.0000 0.1096886499
H   H52       1.0  0.69560  0.57740  0.02390  1.0000 0.1096886499
H   H53       1.0  0.12420  0.40540  0.52150  1.0000 0.1376649942
H   H54       1.0  0.87580  0.09460  0.02150  1.0000 0.1376649942
H   H55       1.0  0.37580  0.90540  0.47850  1.0000 0.1376649942
H   H56       1.0  0.62420  0.59460  0.97850  1.0000 0.1376649942
H   H57       1.0  0.87470  0.45190  0.48730  1.0000 0.1319967144
H   H58       1.0  0.12530  0.04810  0.98730  1.0000 0.1319967144
H   H59       1.0  0.62530  0.95190  0.51270  1.0000 0.1319967144
H   H60       1.0  0.37470  0.54810  0.01270  1.0000 0.1319967144
H   H61       1.0  0.95270  0.46770  0.44250  1.0000 0.1096886499
H   H62       1.0  0.04730  0.03230  0.94250  1.0000 0.1096886499
H   H63       1.0  0.54730  0.96770  0.55750  1.0000 0.1096886499
H   H64       1.0  0.45270  0.53230  0.05750  1.0000 0.1096886499
H   H65       1.0  0.52500  0.46860  0.53520  1.0000 0.1096886499
H   H66       1.0  0.47500  0.03140  0.03520  1.0000 0.1096886499
H   H67       1.0  0.97500  0.96860  0.46480  1.0000 0.1096886499
H   H68       1.0  0.02500  0.53140  0.96480  1.0000 0.1096886499
H   H69       1.0  0.67830  0.44290  0.52550  1.0000 0.1319967144
H   H70       1.0  0.32170  0.05710  0.02550  1.0000 0.1319967144
H   H71       1.0  0.82170  0.94290  0.47450  1.0000 0.1319967144
H   H72       1.0  0.17830  0.55710  0.97450  1.0000 0.1319967144
H   H73       1.0  0.69190  0.39630  0.61080  1.0000 0.1319967144
H   H74       1.0  0.30810  0.10370  0.11080  1.0000 0.1319967144
H   H75       1.0  0.80810  0.89630  0.38920  1.0000 0.1319967144
H   H76       1.0  0.19190  0.60370  0.88920  1.0000 0.1319967144
H   H77       1.0  0.53780  0.42160  0.61760  1.0000 0.1096886499
H   H78       1.0  0.46220  0.07840  0.11760  1.0000 0.1096886499
H   H79       1.0  0.96220  0.92160  0.38240  1.0000 0.1096886499
H   H80       1.0  0.03780  0.57840  0.88240  1.0000 0.1096886499
H   H81       1.0  0.12420  0.36150  0.58880  1.0000 0.1319967144
H   H82       1.0  0.87580  0.13850  0.08880  1.0000 0.1319967144
H   H83       1.0  0.37580  0.86150  0.41120  1.0000 0.1319967144
H   H84       1.0  0.62420  0.63850  0.91120  1.0000 0.1319967144
H   H85       1.0  0.20640  0.32350  0.62720  1.0000 0.1096886499
H   H86       1.0  0.79360  0.17650  0.12720  1.0000 0.1096886499
H   H87       1.0  0.29360  0.82350  0.37280  1.0000 0.1096886499
H   H88       1.0  0.70640  0.67650  0.87280  1.0000 0.1096886499
H   H89       1.0  0.96830  0.28550  0.66520  1.0000 0.1096886499
H   H90       1.0  0.03170  0.21450  0.16520  1.0000 0.1096886499
H   H91       1.0  0.53170  0.78550  0.33480  1.0000 0.1096886499
H   H92       1.0  0.46830  0.71450  0.83480  1.0000 0.1096886499
H   H93       1.0  0.87950  0.32650  0.62960  1.0000 0.1376649942
H   H94       1.0  0.12050  0.17350  0.12960  1.0000 0.1376649942
H   H95       1.0  0.62050  0.82650  0.37040  1.0000 0.1376649942
H   H96       1.0  0.37950  0.67350  0.87040  1.0000 0.1376649942
H   H97       1.0  0.13070  0.83940  0.77690  1.0000 0.1160714849
H   H98       1.0  0.86930  0.66060  0.27690  1.0000 0.1160714849
H   H99       1.0  0.36930  0.33940  0.22310  1.0000 0.1160714849
H   H100      1.0  0.63070  0.16060  0.72310  1.0000 0.1160714849
H   H101      1.0  0.06560  0.84940  0.72970  1.0000 0.1376649942
H   H102      1.0  0.93440  0.65060  0.22970  1.0000 0.1376649942
H   H103      1.0  0.43440  0.34940  0.27030  1.0000 0.1376649942
H   H104      1.0  0.56560  0.15060  0.77030  1.0000 0.1376649942
H   H105      1.0  0.99480  0.71060  0.72960  1.0000 0.1319967144
H   H106      1.0  0.00520  0.78940  0.22960  1.0000 0.1319967144
H   H107      1.0  0.50520  0.21060  0.27040  1.0000 0.1319967144
H   H108      1.0  0.49480  0.28940  0.77040  1.0000 0.1319967144
H   H109      1.0  0.05560  0.70410  0.77800  1.0000 0.1096886499
H   H110      1.0  0.94440  0.79590  0.27800  1.0000 0.1096886499
H   H111      1.0  0.44440  0.20410  0.22200  1.0000 0.1096886499
H   H112      1.0  0.55560  0.29590  0.72200  1.0000 0.1096886499
H   H113      1.0  0.96810  0.91520  0.67200  1.0000 0.1319967144
H   H114      1.0  0.03190  0.58480  0.17200  1.0000 0.1319967144
H   H115      1.0  0.53190  0.41520  0.32800  1.0000 0.1319967144
H   H116      1.0  0.46810  0.08480  0.82800  1.0000 0.1319967144
H   H117      1.0  0.94490  0.98560  0.64650  1.0000 0.1096886499
H   H118      1.0  0.05510  0.51440  0.14650  1.0000 0.1096886499
H   H119      1.0  0.55510  0.48560  0.35350  1.0000 0.1096886499
H   H120      1.0  0.44490  0.01440  0.85350  1.0000 0.1096886499
H   H121      1.0  0.89250  0.91730  0.57200  1.0000 0.1096886499
H   H122      1.0  0.10750  0.58270  0.07200  1.0000 0.1096886499
H   H123      1.0  0.60750  0.41730  0.42800  1.0000 0.1096886499
H   H124      1.0  0.39250  0.08270  0.92800  1.0000 0.1096886499
H   H125      1.0  0.91190  0.84510  0.59510  1.0000 0.1319967144
H   H126      1.0  0.08810  0.65490  0.09510  1.0000 0.1319967144
H   H127      1.0  0.58810  0.34510  0.40490  1.0000 0.1319967144
H   H128      1.0  0.41190  0.15490  0.90490  1.0000 0.1319967144
H   H129      1.0  0.89490  0.72810  0.59430  1.0000 0.1319967144
H   H130      1.0  0.10510  0.77190  0.09430  1.0000 0.1319967144
H   H131      1.0  0.60510  0.22810  0.40570  1.0000 0.1376649942
H   H132      1.0  0.39490  0.27190  0.90570  1.0000 0.1376649942
H   H133      1.0  0.87040  0.65460  0.57110  1.0000 0.1021884309
H   H134      1.0  0.12960  0.84540  0.07110  1.0000 0.1021884309
H   H135      1.0  0.62960  0.15460  0.42890  1.0000 0.1021884309
H   H136      1.0  0.37040  0.34540  0.92890  1.0000 0.1021884309
H   H137      1.0  0.94700  0.58650  0.64410  1.0000 0.1021884309
H   H138      1.0  0.05300  0.91350  0.14410  1.0000 0.1021884309
H   H139      1.0  0.55300  0.08650  0.35590  1.0000 0.1021884309
H   H140      1.0  0.44700  0.41350  0.85590  1.0000 0.1021884309
H   H141      1.0  0.97340  0.65640  0.66890  1.0000 0.1319967144
H   H142      1.0  0.02660  0.84360  0.16890  1.0000 0.1319967144
H   H143      1.0  0.52660  0.15640  0.33110  1.0000 0.1319967144
H   H144      1.0  0.47340  0.34360  0.83110  1.0000 0.1319967144
H   H145      1.0  0.80440  0.57740  0.52390  1.0000 0.1096886499
H   H146      1.0  0.19560  0.92260  0.02390  1.0000 0.1096886499
H   H147      1.0  0.69560  0.07740  0.47610  1.0000 0.1096886499
H   H148      1.0  0.30440  0.42260  0.97610  1.0000 0.1096886499
H   H149      1.0  0.87580  0.59460  0.47850  1.0000 0.1376649942
H   H150      1.0  0.12420  0.90540  0.97850  1.0000 0.1376649942
H   H151      1.0  0.62420  0.09460  0.52150  1.0000 0.1376649942
H   H152      1.0  0.37580  0.40540  0.02150  1.0000 0.1376649942
H   H153      1.0  0.12530  0.54810  0.51270  1.0000 0.1319967144
H   H154      1.0  0.87470  0.95190  0.01270  1.0000 0.1319967144
H   H155      1.0  0.37470  0.04810  0.48730  1.0000 0.1319967144
H   H156      1.0  0.62530  0.45190  0.98730  1.0000 0.1319967144
H   H157      1.0  0.04730  0.53230  0.55750  1.0000 0.1096886499
H   H158      1.0  0.95270  0.96770  0.05750  1.0000 0.1096886499
H   H159      1.0  0.45270  0.03230  0.44250  1.0000 0.1096886499
H   H160      1.0  0.54730  0.46770  0.94250  1.0000 0.1096886499
H   H161      1.0  0.47500  0.53140  0.46480  1.0000 0.1096886499
H   H162      1.0  0.52500  0.96860  0.96480  1.0000 0.1096886499
H   H163      1.0  0.02500  0.03140  0.53520  1.0000 0.1096886499
H   H164      1.0  0.97500  0.46860  0.03520  1.0000 0.1096886499
H   H165      1.0  0.32170  0.55710  0.47450  1.0000 0.1319967144
H   H166      1.0  0.67830  0.94290  0.97450  1.0000 0.1319967144
H   H167      1.0  0.17830  0.05710  0.52550  1.0000 0.1319967144
H   H168      1.0  0.82170  0.44290  0.02550  1.0000 0.1319967144
H   H169      1.0  0.30810  0.60370  0.38920  1.0000 0.1376649942
H   H170      1.0  0.69190  0.89630  0.88920  1.0000 0.1319967144
H   H171      1.0  0.19190  0.10370  0.61080  1.0000 0.1319967144
H   H172      1.0  0.80810  0.39630  0.11080  1.0000 0.1319967144
H   H173      1.0  0.46220  0.57840  0.38240  1.0000 0.1096886499
H   H174      1.0  0.53780  0.92160  0.88240  1.0000 0.1096886499
H   H175      1.0  0.03780  0.07840  0.61760  1.0000 0.1096886499
H   H176      1.0  0.96220  0.42160  0.11760  1.0000 0.1096886499
H   H177      1.0  0.87580  0.63850  0.41120  1.0000 0.1319967144
H   H178      1.0  0.12420  0.86150  0.91120  1.0000 0.1319967144
H   H179      1.0  0.62420  0.13850  0.58880  1.0000 0.1319967144
H   H180      1.0  0.37580  0.36150  0.08880  1.0000 0.1319967144
H   H181      1.0  0.79360  0.67650  0.37280  1.0000 0.1096886499
H   H182      1.0  0.20640  0.82350  0.87280  1.0000 0.1096886499
H   H183      1.0  0.70640  0.17650  0.62720  1.0000 0.1096886499
H   H184      1.0  0.29360  0.32350  0.12720  1.0000 0.1096886499
H   H185      1.0  0.03170  0.71450  0.33480  1.0000 0.1096886499
H   H186      1.0  0.96830  0.78550  0.83480  1.0000 0.1096886499
H   H187      1.0  0.46830  0.21450  0.66520  1.0000 0.1096886499
H   H188      1.0  0.53170  0.28550  0.16520  1.0000 0.1096886499
H   H189      1.0  0.12050  0.67350  0.37040  1.0000 0.1376649942
H   H190      1.0  0.87950  0.82650  0.87040  1.0000 0.1376649942
H   H191      1.0  0.37950  0.17350  0.62960  1.0000 0.1376649942
H   H192      1.0  0.62050  0.32650  0.12960  1.0000 0.1376649942
C   C1        1.0  0.89780  0.18710  0.23279  1.0000 0.0797669039
C   C2        1.0  0.10220  0.31290  0.73279  1.0000 0.0797669039
C   C3        1.0  0.60220  0.68710  0.76721  1.0000 0.0797669039
C   C4        1.0  0.39780  0.81290  0.26721  1.0000 0.0797669039
C   C5        1.0  0.93540  0.18100  0.26097  1.0000 -0.1607356277
C   C6        1.0  0.06460  0.31900  0.76097  1.0000 -0.1607356277
C   C7        1.0  0.56460  0.68100  0.73903  1.0000 -0.1607356277
C   C8        1.0  0.43540  0.81900  0.23903  1.0000 -0.1607356277
C   C9        1.0  0.97480  0.22010  0.27542  1.0000 0.0608891582
C   C10       1.0  0.02520  0.27990  0.77542  1.0000 0.0608891582
C   C11       1.0  0.52520  0.72010  0.72458  1.0000 0.0698671321
C   C12       1.0  0.47480  0.77990  0.22458  1.0000 0.0608891582
C   C13       1.0  0.97780  0.26240  0.26095  1.0000 -0.1473427844
C   C14       1.0  0.02220  0.23760  0.76095  1.0000 -0.1473427844
C   C15       1.0  0.52220  0.76240  0.73905  1.0000 -0.1473427844
C   C16       1.0  0.47780  0.73760  0.23905  1.0000 -0.1473427844
C   C17       1.0  0.94070  0.26620  0.23215  1.0000 0.1021884309
C   C18       1.0  0.05930  0.23380  0.73215  1.0000 0.1021884309
C   C19       1.0  0.55930  0.76620  0.76785  1.0000 0.1021884309
C   C20       1.0  0.44070  0.73380  0.26785  1.0000 0.1021884309
C   C21       1.0  0.00970  0.21580  0.30707  1.0000 0.3796221426
C   C22       1.0  0.99030  0.28420  0.80707  1.0000 0.3796221426
C   C23       1.0  0.49030  0.71580  0.69293  1.0000 0.3796221426
C   C24       1.0  0.50970  0.78420  0.19293  1.0000 0.3796221426
C   C25       1.0  0.04650  0.17430  0.34794  1.0000 0.368113797
C   C26       1.0  0.95350  0.32570  0.84794  1.0000 0.368113797
C   C27       1.0  0.45350  0.67430  0.65206  1.0000 0.368113797
C   C28       1.0  0.54650  0.82570  0.15206  1.0000 0.368113797
C   C29       1.0  0.04910  0.25430  0.34945  1.0000 0.368113797
C   C30       1.0  0.95090  0.24570  0.84945  1.0000 0.368113797
C   C31       1.0  0.45090  0.75430  0.65055  1.0000 0.368113797
C   C32       1.0  0.54910  0.74570  0.15055  1.0000 0.368113797
C   C33       1.0  0.05850  0.12810  0.36323  1.0000 0.0608891582
C   C34       1.0  0.94150  0.37190  0.86323  1.0000 0.0608891582
C   C35       1.0  0.44150  0.62810  0.63677  1.0000 0.0608891582
C   C36       1.0  0.55850  0.87190  0.13677  1.0000 0.0608891582
C   C37       1.0  0.04830  0.08550  0.34859  1.0000 -0.1607356277
C   C38       1.0  0.95170  0.41450  0.84859  1.0000 -0.1607356277
C   C39       1.0  0.45170  0.58550  0.65141  1.0000 -0.1607356277
C   C40       1.0  0.54830  0.91450  0.15141  1.0000 -0.1607356277
C   C41       1.0  0.06220  0.04350  0.36408  1.0000 0.0895873495
C   C42       1.0  0.93780  0.45650  0.86408  1.0000 0.0895873495
C   C43       1.0  0.43780  0.54350  0.63592  1.0000 0.0895873495
C   C44       1.0  0.56220  0.95650  0.13592  1.0000 0.0895873495
C   C45       1.0  0.09280  0.08320  0.40722  1.0000 0.0797669039
C   C46       1.0  0.90720  0.41680  0.90722  1.0000 0.0797669039
C   C47       1.0  0.40720  0.58320  0.59278  1.0000 0.0797669039
C   C48       1.0  0.59280  0.91680  0.09278  1.0000 0.0797669039
C   C49       1.0  0.08110  0.12630  0.39372  1.0000 -0.139768888
C   C50       1.0  0.91890  0.37370  0.89372  1.0000 -0.139768888
C   C51       1.0  0.41890  0.62630  0.60628  1.0000 -0.139768888
C   C52       1.0  0.58110  0.87370  0.10628  1.0000 -0.139768888
C   C53       1.0  0.06400  0.29970  0.36555  1.0000 0.0608891582
C   C54       1.0  0.93600  0.20030  0.86555  1.0000 0.0608891582
C   C55       1.0  0.43600  0.79970  0.63445  1.0000 0.0608891582
C   C56       1.0  0.56400  0.70030  0.13445  1.0000 0.0608891582
C   C57       1.0  0.09430  0.30060  0.39500  1.0000 -0.1607356277
C   C58       1.0  0.90570  0.19940  0.89500  1.0000 -0.1607356277
C   C59       1.0  0.40570  0.80060  0.60500  1.0000 -0.1607356277
C   C60       1.0  0.59430  0.69940  0.10500  1.0000 -0.1607356277
C   C61       1.0  0.10880  0.34480  0.40866  1.0000 0.0895873495
C   C62       1.0  0.89120  0.15520  0.90866  1.0000 0.0895873495
C   C63       1.0  0.39120  0.84480  0.59134  1.0000 0.0895873495
C   C64       1.0  0.60880  0.65520  0.09134  1.0000 0.0895873495
C   C65       1.0  0.06410  0.38430  0.36612  1.0000 0.0895873495
C   C66       1.0  0.93590  0.11570  0.86612  1.0000 0.0895873495
C   C67       1.0  0.43590  0.88430  0.63388  1.0000 0.0895873495
C   C68       1.0  0.56410  0.61570  0.13388  1.0000 0.0895873495
C   C69       1.0  0.04830  0.34300  0.35126  1.0000 -0.1607356277
C   C70       1.0  0.95170  0.15700  0.85126  1.0000 -0.1607356277
C   C71       1.0  0.45170  0.84300  0.64874  1.0000 -0.1607356277
C   C72       1.0  0.54830  0.65700  0.14874  1.0000 -0.1607356277
C   C73       1.0  0.12910  0.42810  0.47841  1.0000 0.0698671321
C   C74       1.0  0.87090  0.07190  0.97841  1.0000 0.0797669039
C   C75       1.0  0.37090  0.92810  0.52159  1.0000 0.0797669039
C   C76       1.0  0.62910  0.57190  0.02159  1.0000 0.0797669039
C   C77       1.0  0.08720  0.41760  0.50541  1.0000 -0.1473427844
C   C78       1.0  0.91280  0.08240  0.00541  1.0000 -0.1473427844
C   C79       1.0  0.41280  0.91760  0.49459  1.0000 -0.1473427844
C   C80       1.0  0.58720  0.58240  0.99459  1.0000 -0.1473427844
C   C81       1.0  0.99020  0.42500  0.50876  1.0000 0.0608891582
C   C82       1.0  0.00980  0.07500  0.00876  1.0000 0.0608891582
C   C83       1.0  0.50980  0.92500  0.49124  1.0000 0.0608891582
C   C84       1.0  0.49020  0.57500  0.99124  1.0000 0.0608891582
C   C85       1.0  0.94070  0.44480  0.48532  1.0000 -0.139768888
C   C86       1.0  0.05930  0.05520  0.98532  1.0000 -0.139768888
C   C87       1.0  0.55930  0.94480  0.51468  1.0000 -0.139768888
C   C88       1.0  0.44070  0.55520  0.01468  1.0000 -0.139768888
C   C89       1.0  0.98760  0.45450  0.45878  1.0000 0.0797669039
C   C90       1.0  0.01240  0.04550  0.95878  1.0000 0.0797669039
C   C91       1.0  0.51240  0.95450  0.54122  1.0000 0.0797669039
C   C92       1.0  0.48760  0.54550  0.04122  1.0000 0.0797669039
C   C93       1.0  0.93960  0.41040  0.53661  1.0000 0.368113797
C   C94       1.0  0.06040  0.08960  0.03661  1.0000 0.368113797
C   C95       1.0  0.56040  0.91040  0.46339  1.0000 0.368113797
C   C96       1.0  0.43960  0.58960  0.96339  1.0000 0.368113797
C   C97       1.0  0.93920  0.37180  0.58028  1.0000 0.3796221426
C   C98       1.0  0.06080  0.12820  0.08028  1.0000 0.3796221426
C   C99       1.0  0.56080  0.87180  0.41972  1.0000 0.3796221426
C   C100      1.0  0.43920  0.62820  0.91972  1.0000 0.3796221426
C   C101      1.0  0.80430  0.40520  0.56314  1.0000 0.3646596869
C   C102      1.0  0.19570  0.09480  0.06314  1.0000 0.368113797
C   C103      1.0  0.69570  0.90520  0.43686  1.0000 0.3646596869
C   C104      1.0  0.30430  0.59480  0.93686  1.0000 0.3646596869
C   C105      1.0  0.56020  0.45400  0.55087  1.0000 0.0797669039
C   C106      1.0  0.43980  0.04600  0.05087  1.0000 0.0797669039
C   C107      1.0  0.93980  0.95400  0.44913  1.0000 0.0797669039
C   C108      1.0  0.06020  0.54600  0.94913  1.0000 0.0797669039
C   C109      1.0  0.65170  0.43920  0.54492  1.0000 -0.139768888
C   C110      1.0  0.34830  0.06080  0.04492  1.0000 -0.139768888
C   C111      1.0  0.84830  0.93920  0.45508  1.0000 -0.139768888
C   C112      1.0  0.15170  0.56080  0.95508  1.0000 -0.139768888
C   C113      1.0  0.70430  0.41880  0.56778  1.0000 0.0608891582
C   C114      1.0  0.29570  0.08120  0.06778  1.0000 0.0546253043
C   C115      1.0  0.79570  0.91880  0.43222  1.0000 0.0608891582
C   C116      1.0  0.20430  0.58120  0.93222  1.0000 0.0608891582
C   C117      1.0  0.65910  0.41180  0.59490  1.0000 -0.120164076
C   C118      1.0  0.34090  0.08820  0.09490  1.0000 -0.120164076
C   C119      1.0  0.84090  0.91180  0.40510  1.0000 -0.120164076
C   C120      1.0  0.15910  0.58820  0.90510  1.0000 -0.120164076
C   C121      1.0  0.56760  0.42690  0.59885  1.0000 0.0797669039
C   C122      1.0  0.43240  0.07310  0.09885  1.0000 0.0797669039
C   C123      1.0  0.93240  0.92690  0.40115  1.0000 0.0797669039
C   C124      1.0  0.06760  0.57310  0.90115  1.0000 0.0797669039
C   C125      1.0  0.99330  0.34670  0.60474  1.0000 0.0608891582
C   C126      1.0  0.00670  0.15330  0.10474  1.0000 0.0608891582
C   C127      1.0  0.50670  0.84670  0.39526  1.0000 0.0608891582
C   C128      1.0  0.49330  0.65330  0.89526  1.0000 0.0608891582
C   C129      1.0  0.09000  0.34620  0.60442  1.0000 -0.120164076
C   C130      1.0  0.91000  0.15380  0.10442  1.0000 -0.120164076
C   C131      1.0  0.41000  0.84620  0.39558  1.0000 -0.120164076
C   C132      1.0  0.59000  0.65380  0.89558  1.0000 -0.120164076
C   C133      1.0  0.13850  0.32310  0.62730  1.0000 0.0895873495
C   C134      1.0  0.86150  0.17690  0.12730  1.0000 0.0895873495
C   C135      1.0  0.36150  0.82310  0.37270  1.0000 0.0895873495
C   C136      1.0  0.63850  0.67690  0.87270  1.0000 0.0895873495
C   C137      1.0  0.00090  0.30160  0.64950  1.0000 0.0895873495
C   C138      1.0  0.99910  0.19840  0.14950  1.0000 0.0895873495
C   C139      1.0  0.49910  0.80160  0.35050  1.0000 0.0895873495
C   C140      1.0  0.50090  0.69840  0.85050  1.0000 0.0895873495
C   C141      1.0  0.94720  0.32520  0.62806  1.0000 -0.125765972
C   C142      1.0  0.05280  0.17480  0.12806  1.0000 -0.125765972
C   C143      1.0  0.55280  0.82520  0.37194  1.0000 -0.125765972
C   C144      1.0  0.44720  0.67480  0.87194  1.0000 -0.125765972
C   C145      1.0  0.10220  0.81290  0.76721  1.0000 0.0797669039
C   C146      1.0  0.89780  0.68710  0.26721  1.0000 0.0797669039
C   C147      1.0  0.39780  0.31290  0.23279  1.0000 0.0797669039
C   C148      1.0  0.60220  0.18710  0.73279  1.0000 0.0797669039
C   C149      1.0  0.06460  0.81900  0.73903  1.0000 -0.1607356277
C   C150      1.0  0.93540  0.68100  0.23903  1.0000 -0.1607356277
C   C151      1.0  0.43540  0.31900  0.26097  1.0000 -0.1607356277
C   C152      1.0  0.56460  0.18100  0.76097  1.0000 -0.1607356277
C   C153      1.0  0.02520  0.77990  0.72458  1.0000 0.0698671321
C   C154      1.0  0.97480  0.72010  0.22458  1.0000 0.0608891582
C   C155      1.0  0.47480  0.27990  0.27542  1.0000 0.0608891582
C   C156      1.0  0.52520  0.22010  0.77542  1.0000 0.0608891582
C   C157      1.0  0.02220  0.73760  0.73905  1.0000 -0.1473427844
C   C158      1.0  0.97780  0.76240  0.23905  1.0000 -0.1473427844
C   C159      1.0  0.47780  0.23760  0.26095  1.0000 -0.1473427844
C   C160      1.0  0.52220  0.26240  0.76095  1.0000 -0.1473427844
C   C161      1.0  0.05930  0.73380  0.76785  1.0000 0.1021884309
C   C162      1.0  0.94070  0.76620  0.26785  1.0000 0.1021884309
C   C163      1.0  0.44070  0.23380  0.23215  1.0000 0.1021884309
C   C164      1.0  0.55930  0.26620  0.73215  1.0000 0.1021884309
C   C165      1.0  0.99030  0.78420  0.69293  1.0000 0.3796221426
C   C166      1.0  0.00970  0.71580  0.19293  1.0000 0.3796221426
C   C167      1.0  0.50970  0.28420  0.30707  1.0000 0.3796221426
C   C168      1.0  0.49030  0.21580  0.80707  1.0000 0.3796221426
C   C169      1.0  0.95350  0.82570  0.65206  1.0000 0.3646596869
C   C170      1.0  0.04650  0.67430  0.15206  1.0000 0.368113797
C   C171      1.0  0.54650  0.32570  0.34794  1.0000 0.368113797
C   C172      1.0  0.45350  0.17430  0.84794  1.0000 0.368113797
C   C173      1.0  0.95090  0.74570  0.65055  1.0000 0.368113797
C   C174      1.0  0.04910  0.75430  0.15055  1.0000 0.368113797
C   C175      1.0  0.54910  0.24570  0.34945  1.0000 0.368113797
C   C176      1.0  0.45090  0.25430  0.84945  1.0000 0.368113797
C   C177      1.0  0.94150  0.87190  0.63677  1.0000 0.0608891582
C   C178      1.0  0.05850  0.62810  0.13677  1.0000 0.0608891582
C   C179      1.0  0.55850  0.37190  0.36323  1.0000 0.0608891582
C   C180      1.0  0.44150  0.12810  0.86323  1.0000 0.0608891582
C   C181      1.0  0.95170  0.91450  0.65141  1.0000 -0.1607356277
C   C182      1.0  0.04830  0.58550  0.15141  1.0000 -0.1607356277
C   C183      1.0  0.54830  0.41450  0.34859  1.0000 -0.1607356277
C   C184      1.0  0.45170  0.08550  0.84859  1.0000 -0.1607356277
C   C185      1.0  0.93780  0.95650  0.63592  1.0000 0.0895873495
C   C186      1.0  0.06220  0.54350  0.13592  1.0000 0.0895873495
C   C187      1.0  0.56220  0.45650  0.36408  1.0000 0.0895873495
C   C188      1.0  0.43780  0.04350  0.86408  1.0000 0.0895873495
C   C189      1.0  0.90720  0.91680  0.59278  1.0000 0.0797669039
C   C190      1.0  0.09280  0.58320  0.09278  1.0000 0.0797669039
C   C191      1.0  0.59280  0.41680  0.40722  1.0000 0.0797669039
C   C192      1.0  0.40720  0.08320  0.90722  1.0000 0.0797669039
C   C193      1.0  0.91890  0.87370  0.60628  1.0000 -0.139768888
C   C194      1.0  0.08110  0.62630  0.10628  1.0000 -0.139768888
C   C195      1.0  0.58110  0.37370  0.39372  1.0000 -0.139768888
C   C196      1.0  0.41890  0.12630  0.89372  1.0000 -0.139768888
C   C197      1.0  0.93600  0.70030  0.63445  1.0000 0.0608891582
C   C198      1.0  0.06400  0.79970  0.13445  1.0000 0.0608891582
C   C199      1.0  0.56400  0.20030  0.36555  1.0000 0.0608891582
C   C200      1.0  0.43600  0.29970  0.86555  1.0000 0.0608891582
C   C201      1.0  0.90570  0.69940  0.60500  1.0000 -0.1607356277
C   C202      1.0  0.09430  0.80060  0.10500  1.0000 -0.1607356277
C   C203      1.0  0.59430  0.19940  0.39500  1.0000 -0.1607356277
C   C204      1.0  0.40570  0.30060  0.89500  1.0000 -0.1607356277
C   C205      1.0  0.89120  0.65520  0.59134  1.0000 0.0895873495
C   C206      1.0  0.10880  0.84480  0.09134  1.0000 0.0895873495
C   C207      1.0  0.60880  0.15520  0.40866  1.0000 0.0895873495
C   C208      1.0  0.39120  0.34480  0.90866  1.0000 0.0895873495
C   C209      1.0  0.93590  0.61570  0.63388  1.0000 0.0895873495
C   C210      1.0  0.06410  0.88430  0.13388  1.0000 0.0895873495
C   C211      1.0  0.56410  0.11570  0.36612  1.0000 0.0895873495
C   C212      1.0  0.43590  0.38430  0.86612  1.0000 0.0895873495
C   C213      1.0  0.95170  0.65700  0.64874  1.0000 -0.1607356277
C   C214      1.0  0.04830  0.84300  0.14874  1.0000 -0.1607356277
C   C215      1.0  0.54830  0.15700  0.35126  1.0000 -0.1607356277
C   C216      1.0  0.45170  0.34300  0.85126  1.0000 -0.1607356277
C   C217      1.0  0.87090  0.57190  0.52159  1.0000 0.0797669039
C   C218      1.0  0.12910  0.92810  0.02159  1.0000 0.0797669039
C   C219      1.0  0.62910  0.07190  0.47841  1.0000 0.0698671321
C   C220      1.0  0.37090  0.42810  0.97841  1.0000 0.0797669039
C   C221      1.0  0.91280  0.58240  0.49459  1.0000 -0.1473427844
C   C222      1.0  0.08720  0.91760  0.99459  1.0000 -0.1473427844
C   C223      1.0  0.58720  0.08240  0.50541  1.0000 -0.1473427844
C   C224      1.0  0.41280  0.41760  0.00541  1.0000 -0.1473427844
C   C225      1.0  0.00980  0.57500  0.49124  1.0000 0.0608891582
C   C226      1.0  0.99020  0.92500  0.99124  1.0000 0.0608891582
C   C227      1.0  0.49020  0.07500  0.50876  1.0000 0.0608891582
C   C228      1.0  0.50980  0.42500  0.00876  1.0000 0.0608891582
C   C229      1.0  0.05930  0.55520  0.51468  1.0000 -0.139768888
C   C230      1.0  0.94070  0.94480  0.01468  1.0000 -0.139768888
C   C231      1.0  0.44070  0.05520  0.48532  1.0000 -0.139768888
C   C232      1.0  0.55930  0.44480  0.98532  1.0000 -0.139768888
C   C233      1.0  0.01240  0.54550  0.54122  1.0000 0.0797669039
C   C234      1.0  0.98760  0.95450  0.04122  1.0000 0.0797669039
C   C235      1.0  0.48760  0.04550  0.45878  1.0000 0.0797669039
C   C236      1.0  0.51240  0.45450  0.95878  1.0000 0.0797669039
C   C237      1.0  0.06040  0.58960  0.46339  1.0000 0.368113797
C   C238      1.0  0.93960  0.91040  0.96339  1.0000 0.368113797
C   C239      1.0  0.43960  0.08960  0.53661  1.0000 0.368113797
C   C240      1.0  0.56040  0.41040  0.03661  1.0000 0.368113797
C   C241      1.0  0.06080  0.62820  0.41972  1.0000 0.3796221426
C   C242      1.0  0.93920  0.87180  0.91972  1.0000 0.3796221426
C   C243      1.0  0.43920  0.12820  0.58028  1.0000 0.3796221426
C   C244      1.0  0.56080  0.37180  0.08028  1.0000 0.3796221426
C   C245      1.0  0.19570  0.59480  0.43686  1.0000 0.3646596869
C   C246      1.0  0.80430  0.90520  0.93686  1.0000 0.3646596869
C   C247      1.0  0.30430  0.09480  0.56314  1.0000 0.3646596869
C   C248      1.0  0.69570  0.40520  0.06314  1.0000 0.368113797
C   C249      1.0  0.43980  0.54600  0.44913  1.0000 0.0797669039
C   C250      1.0  0.56020  0.95400  0.94913  1.0000 0.0797669039
C   C251      1.0  0.06020  0.04600  0.55087  1.0000 0.0797669039
C   C252      1.0  0.93980  0.45400  0.05087  1.0000 0.0797669039
C   C253      1.0  0.34830  0.56080  0.45508  1.0000 -0.139768888
C   C254      1.0  0.65170  0.93920  0.95508  1.0000 -0.139768888
C   C255      1.0  0.15170  0.06080  0.54492  1.0000 -0.139768888
C   C256      1.0  0.84830  0.43920  0.04492  1.0000 -0.139768888
C   C257      1.0  0.29570  0.58120  0.43222  1.0000 0.0608891582
C   C258      1.0  0.70430  0.91880  0.93222  1.0000 0.0608891582
C   C259      1.0  0.20430  0.08120  0.56778  1.0000 0.0608891582
C   C260      1.0  0.79570  0.41880  0.06778  1.0000 0.0546253043
C   C261      1.0  0.34090  0.58820  0.40510  1.0000 -0.120164076
C   C262      1.0  0.65910  0.91180  0.90510  1.0000 -0.120164076
C   C263      1.0  0.15910  0.08820  0.59490  1.0000 -0.120164076
C   C264      1.0  0.84090  0.41180  0.09490  1.0000 -0.120164076
C   C265      1.0  0.43240  0.57310  0.40115  1.0000 0.0797669039
C   C266      1.0  0.56760  0.92690  0.90115  1.0000 0.0797669039
C   C267      1.0  0.06760  0.07310  0.59885  1.0000 0.0797669039
C   C268      1.0  0.93240  0.42690  0.09885  1.0000 0.0797669039
C   C269      1.0  0.00670  0.65330  0.39526  1.0000 0.0608891582
C   C270      1.0  0.99330  0.84670  0.89526  1.0000 0.0608891582
C   C271      1.0  0.49330  0.15330  0.60474  1.0000 0.0608891582
C   C272      1.0  0.50670  0.34670  0.10474  1.0000 0.0608891582
C   C273      1.0  0.91000  0.65380  0.39558  1.0000 -0.120164076
C   C274      1.0  0.09000  0.84620  0.89558  1.0000 -0.120164076
C   C275      1.0  0.59000  0.15380  0.60442  1.0000 -0.120164076
C   C276      1.0  0.41000  0.34620  0.10442  1.0000 -0.120164076
C   C277      1.0  0.86150  0.67690  0.37270  1.0000 0.0895873495
C   C278      1.0  0.13850  0.82310  0.87270  1.0000 0.0895873495
C   C279      1.0  0.63850  0.17690  0.62730  1.0000 0.0895873495
C   C280      1.0  0.36150  0.32310  0.12730  1.0000 0.0895873495
C   C281      1.0  0.99910  0.69840  0.35050  1.0000 0.0895873495
C   C282      1.0  0.00090  0.80160  0.85050  1.0000 0.0895873495
C   C283      1.0  0.50090  0.19840  0.64950  1.0000 0.0895873495
C   C284      1.0  0.49910  0.30160  0.14950  1.0000 0.0895873495
C   C285      1.0  0.05280  0.67480  0.37194  1.0000 -0.125765972
C   C286      1.0  0.94720  0.82520  0.87194  1.0000 -0.125765972
C   C287      1.0  0.44720  0.17480  0.62806  1.0000 -0.125765972
C   C288      1.0  0.55280  0.32520  0.12806  1.0000 -0.125765972
I   I1        1.0  0.66410  0.19848  0.18441  1.0000 -0.4684982704
I   I2        1.0  0.33590  0.30152  0.68441  1.0000 -0.4684982704
I   I3        1.0  0.83590  0.69848  0.81559  1.0000 -0.4684982704
I   I4        1.0  0.16410  0.80152  0.31559  1.0000 -0.4684982704
I   I5        1.0  0.82782  0.32596  0.16543  1.0000 -0.4599781205
I   I6        1.0  0.17218  0.17404  0.66543  1.0000 -0.4599781205
I   I7        1.0  0.67218  0.82596  0.83457  1.0000 -0.4599781205
I   I8        1.0  0.32782  0.67404  0.33457  1.0000 -0.4599781205
I   I9        1.0  0.30643  0.42567  0.62518  1.0000 -0.4333451199
I   I10       1.0  0.69357  0.07433  0.12518  1.0000 -0.4333451199
I   I11       1.0  0.19357  0.92567  0.37482  1.0000 -0.4333451199
I   I12       1.0  0.80643  0.57433  0.87482  1.0000 -0.4378212628
I   I13       1.0  0.30448  0.49551  0.53638  1.0000 -0.4684982704
I   I14       1.0  0.69552  0.00449  0.03638  1.0000 -0.4760005308
I   I15       1.0  0.19552  0.99551  0.46362  1.0000 -0.4760005308
I   I16       1.0  0.80448  0.50449  0.96362  1.0000 -0.4684982704
I   I17       1.0  0.31918  0.44196  0.41657  1.0000 -0.453348918
I   I18       1.0  0.68082  0.05804  0.91657  1.0000 -0.453348918
I   I19       1.0  0.18082  0.94196  0.58343  1.0000 -0.453348918
I   I20       1.0  0.81918  0.55804  0.08343  1.0000 -0.453348918
I   I21       1.0  0.05536  0.51462  0.38359  1.0000 -0.4378212628
I   I22       1.0  0.94464  0.98538  0.88359  1.0000 -0.4378212628
I   I23       1.0  0.44464  0.01462  0.61641  1.0000 -0.4378212628
I   I24       1.0  0.55536  0.48538  0.11641  1.0000 -0.4378212628
I   I25       1.0  0.33590  0.80152  0.81559  1.0000 -0.4684982704
I   I26       1.0  0.66410  0.69848  0.31559  1.0000 -0.4684982704
I   I27       1.0  0.16410  0.30152  0.18441  1.0000 -0.4684982704
I   I28       1.0  0.83590  0.19848  0.68441  1.0000 -0.4684982704
I   I29       1.0  0.17218  0.67404  0.83457  1.0000 -0.4599781205
I   I30       1.0  0.82782  0.82596  0.33457  1.0000 -0.4599781205
I   I31       1.0  0.32782  0.17404  0.16543  1.0000 -0.4599781205
I   I32       1.0  0.67218  0.32596  0.66543  1.0000 -0.4599781205
I   I33       1.0  0.69357  0.57433  0.37482  1.0000 -0.4333451199
I   I34       1.0  0.30643  0.92567  0.87482  1.0000 -0.4378212628
I   I35       1.0  0.80643  0.07433  0.62518  1.0000 -0.4333451199
I   I36       1.0  0.19357  0.42567  0.12518  1.0000 -0.4333451199
I   I37       1.0  0.69552  0.50449  0.46362  1.0000 -0.4760005308
I   I38       1.0  0.30448  0.99551  0.96362  1.0000 -0.4684982704
I   I39       1.0  0.80448  0.00449  0.53638  1.0000 -0.4684982704
I   I40       1.0  0.19552  0.49551  0.03638  1.0000 -0.4760005308
I   I41       1.0  0.68082  0.55804  0.58343  1.0000 -0.453348918
I   I42       1.0  0.31918  0.94196  0.08343  1.0000 -0.453348918
I   I43       1.0  0.81918  0.05804  0.41657  1.0000 -0.453348918
I   I44       1.0  0.18082  0.44196  0.91657  1.0000 -0.453348918
I   I45       1.0  0.94464  0.48538  0.61641  1.0000 -0.4378212628
I   I46       1.0  0.05536  0.01462  0.11641  1.0000 -0.4378212628
I   I47       1.0  0.55536  0.98538  0.38359  1.0000 -0.4378212628
I   I48       1.0  0.44464  0.51462  0.88359  1.0000 -0.4378212628
N   N1        1.0  0.89970  0.22910  0.21840  1.0000 -0.178917219
N   N2        1.0  0.10030  0.27090  0.71840  1.0000 -0.178917219
N   N3        1.0  0.60030  0.72910  0.78160  1.0000 -0.178917219
N   N4        1.0  0.39970  0.77090  0.28160  1.0000 -0.178917219
N   N5        1.0  0.09490  0.38590  0.39460  1.0000 -0.1877066252
N   N6        1.0  0.90510  0.11410  0.89460  1.0000 -0.1877066252
N   N7        1.0  0.40510  0.88590  0.60540  1.0000 -0.1877066252
N   N8        1.0  0.59490  0.61410  0.10540  1.0000 -0.1877066252
N   N9        1.0  0.08490  0.04140  0.39289  1.0000 -0.178917219
N   N10       1.0  0.91510  0.45860  0.89289  1.0000 -0.178917219
N   N11       1.0  0.41510  0.54140  0.60711  1.0000 -0.178917219
N   N12       1.0  0.58490  0.95860  0.10711  1.0000 -0.178917219
N   N13       1.0  0.02430  0.25743  0.32067  1.0000 -0.4159444292
N   N14       1.0  0.97570  0.24257  0.82067  1.0000 -0.4159444292
N   N15       1.0  0.47570  0.75743  0.67933  1.0000 -0.4159444292
N   N16       1.0  0.52430  0.74257  0.17933  1.0000 -0.4159444292
N   N17       1.0  0.01960  0.17400  0.31911  1.0000 -0.4098601175
N   N18       1.0  0.98040  0.32600  0.81911  1.0000 -0.4098601175
N   N19       1.0  0.48040  0.67400  0.68089  1.0000 -0.4098601175
N   N20       1.0  0.51960  0.82600  0.18089  1.0000 -0.4098601175
N   N21       1.0  0.06240  0.21355  0.36392  1.0000 -0.4159444292
N   N22       1.0  0.93760  0.28645  0.86392  1.0000 -0.4159444292
N   N23       1.0  0.43760  0.71355  0.63608  1.0000 -0.4159444292
N   N24       1.0  0.56240  0.78645  0.13608  1.0000 -0.4159444292
N   N25       1.0  0.08050  0.44581  0.45542  1.0000 -0.178917219
N   N26       1.0  0.91950  0.05419  0.95542  1.0000 -0.178917219
N   N27       1.0  0.41950  0.94581  0.54458  1.0000 -0.178917219
N   N28       1.0  0.58050  0.55419  0.04458  1.0000 -0.178917219
N   N29       1.0  0.51800  0.44900  0.57739  1.0000 -0.1721950051
N   N30       1.0  0.48200  0.05100  0.07739  1.0000 -0.1721950051
N   N31       1.0  0.98200  0.94900  0.42261  1.0000 -0.1721950051
N   N32       1.0  0.01800  0.55100  0.92261  1.0000 -0.1721950051
N   N33       1.0  0.09390  0.30040  0.64918  1.0000 -0.178917219
N   N34       1.0  0.90610  0.19960  0.14918  1.0000 -0.178917219
N   N35       1.0  0.40610  0.80040  0.35082  1.0000 -0.178917219
N   N36       1.0  0.59390  0.69960  0.85082  1.0000 -0.1721950051
N   N37       1.0  0.84720  0.42180  0.53897  1.0000 -0.3799680528
N   N38       1.0  0.15280  0.07820  0.03897  1.0000 -0.3799680528
N   N39       1.0  0.65280  0.92180  0.46103  1.0000 -0.3799680528
N   N40       1.0  0.34720  0.57820  0.96103  1.0000 -0.3799680528
N   N41       1.0  0.84680  0.37830  0.58458  1.0000 -0.372790685
N   N42       1.0  0.15320  0.12170  0.08458  1.0000 -0.372790685
N   N43       1.0  0.65320  0.87830  0.41542  1.0000 -0.372790685
N   N44       1.0  0.34680  0.62170  0.91542  1.0000 -0.372790685
N   N45       1.0  0.99040  0.38670  0.55721  1.0000 -0.3930663561
N   N46       1.0  0.00960  0.11330  0.05721  1.0000 -0.3930663561
N   N47       1.0  0.50960  0.88670  0.44279  1.0000 -0.3930663561
N   N48       1.0  0.49040  0.61330  0.94279  1.0000 -0.3930663561
N   N49       1.0  0.10030  0.77090  0.78160  1.0000 -0.178917219
N   N50       1.0  0.89970  0.72910  0.28160  1.0000 -0.178917219
N   N51       1.0  0.39970  0.27090  0.21840  1.0000 -0.178917219
N   N52       1.0  0.60030  0.22910  0.71840  1.0000 -0.178917219
N   N53       1.0  0.90510  0.61410  0.60540  1.0000 -0.1877066252
N   N54       1.0  0.09490  0.88590  0.10540  1.0000 -0.1877066252
N   N55       1.0  0.59490  0.11410  0.39460  1.0000 -0.1877066252
N   N56       1.0  0.40510  0.38590  0.89460  1.0000 -0.1877066252
N   N57       1.0  0.91510  0.95860  0.60711  1.0000 -0.178917219
N   N58       1.0  0.08490  0.54140  0.10711  1.0000 -0.178917219
N   N59       1.0  0.58490  0.45860  0.39289  1.0000 -0.178917219
N   N60       1.0  0.41510  0.04140  0.89289  1.0000 -0.178917219
N   N61       1.0  0.97570  0.74257  0.67933  1.0000 -0.4159444292
N   N62       1.0  0.02430  0.75743  0.17933  1.0000 -0.4159444292
N   N63       1.0  0.52430  0.24257  0.32067  1.0000 -0.4159444292
N   N64       1.0  0.47570  0.25743  0.82067  1.0000 -0.4159444292
N   N65       1.0  0.98040  0.82600  0.68089  1.0000 -0.4098601175
N   N66       1.0  0.01960  0.67400  0.18089  1.0000 -0.4098601175
N   N67       1.0  0.51960  0.32600  0.31911  1.0000 -0.4098601175
N   N68       1.0  0.48040  0.17400  0.81911  1.0000 -0.4098601175
N   N69       1.0  0.93760  0.78645  0.63608  1.0000 -0.4159444292
N   N70       1.0  0.06240  0.71355  0.13608  1.0000 -0.4159444292
N   N71       1.0  0.56240  0.28645  0.36392  1.0000 -0.4159444292
N   N72       1.0  0.43760  0.21355  0.86392  1.0000 -0.4159444292
N   N73       1.0  0.91950  0.55419  0.54458  1.0000 -0.178917219
N   N74       1.0  0.08050  0.94581  0.04458  1.0000 -0.178917219
N   N75       1.0  0.58050  0.05419  0.45542  1.0000 -0.178917219
N   N76       1.0  0.41950  0.44581  0.95542  1.0000 -0.178917219
N   N77       1.0  0.48200  0.55100  0.42261  1.0000 -0.1721950051
N   N78       1.0  0.51800  0.94900  0.92261  1.0000 -0.1721950051
N   N79       1.0  0.01800  0.05100  0.57739  1.0000 -0.1721950051
N   N80       1.0  0.98200  0.44900  0.07739  1.0000 -0.1721950051
N   N81       1.0  0.90610  0.69960  0.35082  1.0000 -0.178917219
N   N82       1.0  0.09390  0.80040  0.85082  1.0000 -0.1721950051
N   N83       1.0  0.59390  0.19960  0.64918  1.0000 -0.178917219
N   N84       1.0  0.40610  0.30040  0.14918  1.0000 -0.178917219
N   N85       1.0  0.15280  0.57820  0.46103  1.0000 -0.3799680528
N   N86       1.0  0.84720  0.92180  0.96103  1.0000 -0.3799680528
N   N87       1.0  0.34720  0.07820  0.53897  1.0000 -0.3799680528
N   N88       1.0  0.65280  0.42180  0.03897  1.0000 -0.3799680528
N   N89       1.0  0.15320  0.62170  0.41542  1.0000 -0.372790685
N   N90       1.0  0.84680  0.87830  0.91542  1.0000 -0.372790685
N   N91       1.0  0.34680  0.12170  0.58458  1.0000 -0.372790685
N   N92       1.0  0.65320  0.37830  0.08458  1.0000 -0.372790685
N   N93       1.0  0.00960  0.61330  0.44279  1.0000 -0.3930663561
N   N94       1.0  0.99040  0.88670  0.94279  1.0000 -0.3930663561
N   N95       1.0  0.49040  0.11330  0.55721  1.0000 -0.3930663561
N   N96       1.0  0.50960  0.38670  0.05721  1.0000 -0.3930663561
