# DDEC6 charges by PACMAN v1.1 (https://github.com/mtap-research/PACMAN-charge/)
data_2016[Zn][nan]3[ASR]33
_chemical_formula_sum              "Zn10 H12 C40 O36"
_cell_length_a       7.4196
_cell_length_b       16.7276
_cell_length_c       15.4905
_cell_angle_alpha    90
_cell_angle_beta     113.207
_cell_angle_gamma    90

_symmetry_space_group_name_H-M    "P 1"
_symmetry_Int_Tables_number       1

loop_
  _symmetry_equiv_pos_as_xyz
  'x, y, z'

loop_
  _atom_site_type_symbol
  _atom_site_label
  _atom_site_symmetry_multiplicity
  _atom_site_fract_x
  _atom_site_fract_y
  _atom_site_fract_z
  _atom_site_occupancy
  _atom_site_charge
Zn  Zn1       1.0  0.53682  0.01698  0.81630  1.0000 0.9833581549
Zn  Zn2       1.0  0.46318  0.51698  0.68370  1.0000 0.9833581549
Zn  Zn3       1.0  0.46318  0.98302  0.18370  1.0000 0.9833581549
Zn  Zn4       1.0  0.53682  0.48302  0.31630  1.0000 0.9833581549
Zn  Zn5       1.0  0.00000  0.00000  0.00000  1.0000 0.9897807243
Zn  Zn6       1.0  0.00000  0.50000  0.50000  1.0000 0.9897807243
Zn  Zn7       1.0  0.71005  0.12441  0.02236  1.0000 0.9897807243
Zn  Zn8       1.0  0.28995  0.62441  0.47764  1.0000 0.9897807243
Zn  Zn9       1.0  0.28995  0.87559  0.97764  1.0000 0.9897807243
Zn  Zn10      1.0  0.71005  0.37559  0.52236  1.0000 0.9897807243
H   H1        1.0  0.75720  0.29210  0.82980  1.0000 0.136411692
H   H2        1.0  0.24280  0.79210  0.67020  1.0000 0.136411692
H   H3        1.0  0.24280  0.70790  0.17020  1.0000 0.136411692
H   H4        1.0  0.75720  0.20790  0.32980  1.0000 0.136411692
H   H5        1.0  0.31910  0.27330  0.77290  1.0000 0.136411692
H   H6        1.0  0.68090  0.77330  0.72710  1.0000 0.136411692
H   H7        1.0  0.68090  0.72670  0.22710  1.0000 0.136411692
H   H8        1.0  0.31910  0.22670  0.27290  1.0000 0.136411692
H   H9        1.0  0.65990  0.96980  0.97730  1.0000 0.3940813643
H   H10       1.0  0.34010  0.46980  0.52270  1.0000 0.3940813643
H   H11       1.0  0.34010  0.03020  0.02270  1.0000 0.3940813643
H   H12       1.0  0.65990  0.53020  0.47730  1.0000 0.3940813643
C   C1        1.0  0.93370  0.15990  0.90520  1.0000 0.6017117006
C   C2        1.0  0.06630  0.65990  0.59480  1.0000 0.6017117006
C   C3        1.0  0.06630  0.84010  0.09480  1.0000 0.6017117006
C   C4        1.0  0.93370  0.34010  0.40520  1.0000 0.6017117006
C   C5        1.0  0.99180  0.22240  0.85200  1.0000 -0.0432083928
C   C6        1.0  0.00820  0.72240  0.64800  1.0000 -0.0432083928
C   C7        1.0  0.00820  0.77760  0.14800  1.0000 -0.0432083928
C   C8        1.0  0.99180  0.27760  0.35200  1.0000 -0.0432083928
C   C9        1.0  0.86740  0.28690  0.81580  1.0000 -0.1030483461
C   C10       1.0  0.13260  0.78690  0.68420  1.0000 -0.1030483461
C   C11       1.0  0.13260  0.71310  0.18420  1.0000 -0.1030483461
C   C12       1.0  0.86740  0.21310  0.31580  1.0000 -0.1030483461
C   C13       1.0  0.16230  0.21650  0.83480  1.0000 -0.0143531722
C   C14       1.0  0.83770  0.71650  0.66520  1.0000 -0.0143531722
C   C15       1.0  0.83770  0.78350  0.16520  1.0000 -0.0143531722
C   C16       1.0  0.16230  0.28350  0.33480  1.0000 -0.0143531722
C   C17       1.0  0.90240  0.34390  0.75890  1.0000 -0.0501394421
C   C18       1.0  0.09760  0.84390  0.74110  1.0000 -0.0501394421
C   C19       1.0  0.09760  0.65610  0.24110  1.0000 -0.0501394421
C   C20       1.0  0.90240  0.15610  0.25890  1.0000 -0.0501394421
C   C21       1.0  0.07340  0.33860  0.74170  1.0000 -0.0432083928
C   C22       1.0  0.92660  0.83860  0.75830  1.0000 -0.0432083928
C   C23       1.0  0.92660  0.66140  0.25830  1.0000 -0.0432083928
C   C24       1.0  0.07340  0.16140  0.24170  1.0000 -0.0432083928
C   C25       1.0  0.20240  0.27580  0.78180  1.0000 -0.1222530278
C   C26       1.0  0.79760  0.77580  0.71820  1.0000 -0.1222530278
C   C27       1.0  0.79760  0.72420  0.21820  1.0000 -0.1222530278
C   C28       1.0  0.20240  0.22420  0.28180  1.0000 -0.1222530278
C   C29       1.0  0.31270  0.15170  0.87180  1.0000 0.6123873097
C   C30       1.0  0.68730  0.65170  0.62820  1.0000 0.6123873097
C   C31       1.0  0.68730  0.84830  0.12820  1.0000 0.6123873097
C   C32       1.0  0.31270  0.34830  0.37180  1.0000 0.6123873097
C   C33       1.0  0.13030  0.39860  0.68510  1.0000 0.6123873097
C   C34       1.0  0.86970  0.89860  0.81490  1.0000 0.6123873097
C   C35       1.0  0.86970  0.60140  0.31490  1.0000 0.6123873097
C   C36       1.0  0.13030  0.10140  0.18510  1.0000 0.6123873097
C   C37       1.0  0.74910  0.40720  0.71990  1.0000 0.5939917667
C   C38       1.0  0.25090  0.90720  0.78010  1.0000 0.5939917667
C   C39       1.0  0.25090  0.59280  0.28010  1.0000 0.5939917667
C   C40       1.0  0.74910  0.09280  0.21990  1.0000 0.5939917667
O   O1        1.0  0.80620  0.18100  0.93550  1.0000 -0.5644055844
O   O2        1.0  0.19380  0.68100  0.56450  1.0000 -0.5644055844
O   O3        1.0  0.19380  0.81900  0.06450  1.0000 -0.5644055844
O   O4        1.0  0.80620  0.31900  0.43550  1.0000 -0.5644055844
O   O5        1.0  0.01490  0.09370  0.91590  1.0000 -0.5295664268
O   O6        1.0  0.98510  0.59370  0.58410  1.0000 -0.5295664268
O   O7        1.0  0.98510  0.90630  0.08410  1.0000 -0.5295664268
O   O8        1.0  0.01490  0.40630  0.41590  1.0000 -0.5295664268
O   O9        1.0  0.42100  0.15330  0.95790  1.0000 -0.5525764721
O   O10       1.0  0.57900  0.65330  0.54210  1.0000 -0.5525764721
O   O11       1.0  0.57900  0.84670  0.04210  1.0000 -0.5525764721
O   O12       1.0  0.42100  0.34670  0.45790  1.0000 -0.5525764721
O   O13       1.0  0.32560  0.10390  0.81290  1.0000 -0.5406656461
O   O14       1.0  0.67440  0.60390  0.68710  1.0000 -0.5406656461
O   O15       1.0  0.67440  0.89610  0.18710  1.0000 -0.5406656461
O   O16       1.0  0.32560  0.39610  0.31290  1.0000 -0.5406656461
O   O17       1.0  0.00740  0.41540  0.60500  1.0000 -0.5676062363
O   O18       1.0  0.99260  0.91540  0.89500  1.0000 -0.5676062363
O   O19       1.0  0.99260  0.58460  0.39500  1.0000 -0.5676062363
O   O20       1.0  0.00740  0.08460  0.10500  1.0000 -0.5676062363
O   O21       1.0  0.29950  0.42610  0.72100  1.0000 -0.5194131481
O   O22       1.0  0.70050  0.92610  0.77900  1.0000 -0.5194131481
O   O23       1.0  0.70050  0.57390  0.27900  1.0000 -0.5194131481
O   O24       1.0  0.29950  0.07390  0.22100  1.0000 -0.5194131481
O   O25       1.0  0.65610  0.41500  0.63320  1.0000 -0.5676062363
O   O26       1.0  0.34390  0.91500  0.86680  1.0000 -0.5644055844
O   O27       1.0  0.34390  0.58500  0.36680  1.0000 -0.5644055844
O   O28       1.0  0.65610  0.08500  0.13320  1.0000 -0.5644055844
O   O29       1.0  0.70660  0.44920  0.77610  1.0000 -0.4852514463
O   O30       1.0  0.29340  0.94920  0.72390  1.0000 -0.4852514463
O   O31       1.0  0.29340  0.55080  0.22390  1.0000 -0.4852514463
O   O32       1.0  0.70660  0.05080  0.27610  1.0000 -0.4852514463
O   O33       1.0  0.70090  0.01560  0.95610  1.0000 -0.8545105952
O   O34       1.0  0.29910  0.51560  0.54390  1.0000 -0.8545105952
O   O35       1.0  0.29910  0.98440  0.04390  1.0000 -0.8545105952
O   O36       1.0  0.70090  0.48440  0.45610  1.0000 -0.8545105952
