# DDEC6 charges by PACMAN v1.1 (https://github.com/mtap-research/PACMAN-charge/)
data_2016[FeMn][tfz]3[ASR]1
_chemical_formula_sum              "Mn6 Fe2 H132 C150 N24 Cl2 O24"
_cell_length_a       12.345
_cell_length_b       33.257
_cell_length_c       12.934
_cell_angle_alpha    90
_cell_angle_beta     96.66
_cell_angle_gamma    90

_symmetry_space_group_name_H-M    "P 1"
_symmetry_Int_Tables_number       1

loop_
  _symmetry_equiv_pos_as_xyz
  'x, y, z'

loop_
  _atom_site_type_symbol
  _atom_site_label
  _atom_site_symmetry_multiplicity
  _atom_site_fract_x
  _atom_site_fract_y
  _atom_site_fract_z
  _atom_site_occupancy
  _atom_site_charge
Mn  Mn1       1.0  0.19733  0.06969  0.60470  1.0000 0.7684143786
Mn  Mn2       1.0  0.80267  0.93031  0.39530  1.0000 0.7684143786
Mn  Mn3       1.0  0.80267  0.56969  0.39530  1.0000 0.7684143786
Mn  Mn4       1.0  0.19733  0.43031  0.60470  1.0000 0.7684143786
Mn  Mn5       1.0  0.00000  0.00000  0.50000  1.0000 1.1102762227
Mn  Mn6       1.0  0.00000  0.50000  0.50000  1.0000 1.1102762227
Fe  Fe1       1.0  0.69425  0.75000  0.74781  1.0000 0.4175850009
Fe  Fe2       1.0  0.30575  0.25000  0.25219  1.0000 0.4175850009
H   H1        1.0  0.31231  0.17320  0.76990  1.0000 0.1080942233
H   H2        1.0  0.68769  0.82680  0.23010  1.0000 0.1080942233
H   H3        1.0  0.68769  0.67320  0.23010  1.0000 0.1080942233
H   H4        1.0  0.31231  0.32680  0.76990  1.0000 0.1080942233
H   H5        1.0  0.21794  0.15075  0.66734  1.0000 0.128448137
H   H6        1.0  0.78206  0.84925  0.33266  1.0000 0.128448137
H   H7        1.0  0.78206  0.65075  0.33266  1.0000 0.128448137
H   H8        1.0  0.21794  0.34925  0.66734  1.0000 0.128448137
H   H9        1.0  0.85607  0.03332  0.65390  1.0000 0.1029202618
H   H10       1.0  0.14393  0.96668  0.34610  1.0000 0.1029202618
H   H11       1.0  0.14393  0.53332  0.34610  1.0000 0.1029202618
H   H12       1.0  0.85607  0.46668  0.65390  1.0000 0.1029202618
H   H13       1.0  0.66079  0.04268  0.66985  1.0000 0.1029202618
H   H14       1.0  0.33921  0.95732  0.33015  1.0000 0.1029202618
H   H15       1.0  0.33921  0.54268  0.33015  1.0000 0.1029202618
H   H16       1.0  0.66079  0.45732  0.66985  1.0000 0.1029202618
H   H17       1.0  0.88435  0.15879  0.57426  1.0000 0.1029202618
H   H18       1.0  0.11565  0.84121  0.42574  1.0000 0.1029202618
H   H19       1.0  0.11565  0.65879  0.42574  1.0000 0.1029202618
H   H20       1.0  0.88435  0.34121  0.57426  1.0000 0.1029202618
H   H21       1.0  0.00504  0.06394  0.02544  1.0000 0.1029202618
H   H22       1.0  0.99496  0.93606  0.97456  1.0000 0.1029202618
H   H23       1.0  0.99496  0.56394  0.97456  1.0000 0.1029202618
H   H24       1.0  0.00504  0.43606  0.02544  1.0000 0.1029202618
H   H25       1.0  0.03704  0.02314  0.78836  1.0000 0.148103324
H   H26       1.0  0.96296  0.97686  0.21164  1.0000 0.148103324
H   H27       1.0  0.96296  0.52314  0.21164  1.0000 0.148103324
H   H28       1.0  0.03704  0.47686  0.78836  1.0000 0.148103324
H   H29       1.0  0.09196  0.01333  0.91987  1.0000 0.128448137
H   H30       1.0  0.90804  0.98667  0.08013  1.0000 0.128448137
H   H31       1.0  0.90804  0.51333  0.08013  1.0000 0.128448137
H   H32       1.0  0.09196  0.48667  0.91987  1.0000 0.128448137
H   H33       1.0  0.16657  0.99965  0.81480  1.0000 0.141116844
H   H34       1.0  0.83343  0.00035  0.18520  1.0000 0.141116844
H   H35       1.0  0.83343  0.49965  0.18520  1.0000 0.141116844
H   H36       1.0  0.16657  0.50035  0.81480  1.0000 0.141116844
H   H37       1.0  0.49739  0.20074  0.73919  1.0000 0.1222977993
H   H38       1.0  0.50261  0.79926  0.26081  1.0000 0.1222977993
H   H39       1.0  0.50261  0.70074  0.26081  1.0000 0.1222977993
H   H40       1.0  0.49739  0.29926  0.73919  1.0000 0.1222977993
H   H41       1.0  0.62154  0.17290  0.76160  1.0000 0.148103324
H   H42       1.0  0.37846  0.82710  0.23840  1.0000 0.148103324
H   H43       1.0  0.37846  0.67290  0.23840  1.0000 0.148103324
H   H44       1.0  0.62154  0.32710  0.76160  1.0000 0.148103324
H   H45       1.0  0.51909  0.16642  0.84620  1.0000 0.128448137
H   H46       1.0  0.48091  0.83358  0.15380  1.0000 0.1222977993
H   H47       1.0  0.48091  0.66642  0.15380  1.0000 0.128448137
H   H48       1.0  0.51909  0.33358  0.84620  1.0000 0.128448137
H   H49       1.0  0.38407  0.15787  0.97508  1.0000 0.1222977993
H   H50       1.0  0.61593  0.84213  0.02492  1.0000 0.1222977993
H   H51       1.0  0.61593  0.65787  0.02492  1.0000 0.1222977993
H   H52       1.0  0.38407  0.34213  0.97508  1.0000 0.1222977993
H   H53       1.0  0.27027  0.15729  0.04738  1.0000 0.1570314387
H   H54       1.0  0.72973  0.84271  0.95262  1.0000 0.148103324
H   H55       1.0  0.72973  0.65729  0.95262  1.0000 0.1570314387
H   H56       1.0  0.27027  0.34271  0.04738  1.0000 0.1570314387
H   H57       1.0  0.26274  0.18522  0.92967  1.0000 0.1222977993
H   H58       1.0  0.73726  0.81478  0.07033  1.0000 0.1222977993
H   H59       1.0  0.73726  0.68522  0.07033  1.0000 0.1222977993
H   H60       1.0  0.26274  0.31478  0.92967  1.0000 0.1222977993
H   H61       1.0  0.98797  0.04855  0.21062  1.0000 0.1029202618
H   H62       1.0  0.01203  0.95145  0.78938  1.0000 0.1029202618
H   H63       1.0  0.01203  0.54855  0.78938  1.0000 0.1029202618
H   H64       1.0  0.98797  0.45145  0.21062  1.0000 0.1029202618
H   H65       1.0  0.47388  0.02018  0.56569  1.0000 0.141116844
H   H66       1.0  0.52612  0.97982  0.43431  1.0000 0.141116844
H   H67       1.0  0.52612  0.52018  0.43431  1.0000 0.141116844
H   H68       1.0  0.47388  0.47982  0.56569  1.0000 0.141116844
H   H69       1.0  0.53729  0.05207  0.47975  1.0000 0.128448137
H   H70       1.0  0.46271  0.94793  0.52025  1.0000 0.128448137
H   H71       1.0  0.46271  0.55207  0.52025  1.0000 0.128448137
H   H72       1.0  0.53729  0.44793  0.47975  1.0000 0.128448137
H   H73       1.0  0.39181  0.04515  0.46357  1.0000 0.148103324
H   H74       1.0  0.60819  0.95485  0.53643  1.0000 0.148103324
H   H75       1.0  0.60819  0.54515  0.53643  1.0000 0.148103324
H   H76       1.0  0.39181  0.45485  0.46357  1.0000 0.148103324
H   H77       1.0  0.42397  0.98230  0.72669  1.0000 0.1080942233
H   H78       1.0  0.57603  0.01770  0.27331  1.0000 0.1080942233
H   H79       1.0  0.57603  0.48230  0.27331  1.0000 0.1080942233
H   H80       1.0  0.42397  0.51770  0.72669  1.0000 0.1080942233
H   H81       1.0  0.32725  0.07595  0.29494  1.0000 0.0920660838
H   H82       1.0  0.67275  0.92405  0.70506  1.0000 0.0920660838
H   H83       1.0  0.67275  0.57595  0.70506  1.0000 0.0920660838
H   H84       1.0  0.32725  0.42405  0.29494  1.0000 0.1029202618
H   H85       1.0  0.34781  0.08954  0.10894  1.0000 0.0920660838
H   H86       1.0  0.65219  0.91046  0.89106  1.0000 0.0920660838
H   H87       1.0  0.65219  0.58954  0.89106  1.0000 0.0920660838
H   H88       1.0  0.34781  0.41046  0.10894  1.0000 0.0920660838
H   H89       1.0  0.53186  0.92233  0.79069  1.0000 0.0920660838
H   H90       1.0  0.46814  0.07767  0.20931  1.0000 0.0920660838
H   H91       1.0  0.46814  0.42233  0.20931  1.0000 0.0920660838
H   H92       1.0  0.53186  0.57767  0.79069  1.0000 0.0920660838
H   H93       1.0  0.68794  0.16831  0.58735  1.0000 0.0920660838
H   H94       1.0  0.31206  0.83169  0.41265  1.0000 0.0920660838
H   H95       1.0  0.31206  0.66831  0.41265  1.0000 0.0920660838
H   H96       1.0  0.68794  0.33169  0.58735  1.0000 0.0920660838
H   H97       1.0  0.15823  0.90492  0.60627  1.0000 0.1029202618
H   H98       1.0  0.84177  0.09508  0.39373  1.0000 0.1029202618
H   H99       1.0  0.84177  0.40492  0.39373  1.0000 0.1029202618
H   H100      1.0  0.15823  0.59508  0.60627  1.0000 0.1029202618
H   H101      1.0  0.34401  0.84922  0.93537  1.0000 0.148103324
H   H102      1.0  0.65599  0.15078  0.06463  1.0000 0.148103324
H   H103      1.0  0.65599  0.34922  0.06463  1.0000 0.148103324
H   H104      1.0  0.34401  0.65078  0.93537  1.0000 0.148103324
H   H105      1.0  0.38426  0.80090  0.98604  1.0000 0.1080942233
H   H106      1.0  0.61574  0.19910  0.01396  1.0000 0.1080942233
H   H107      1.0  0.61574  0.30090  0.01396  1.0000 0.1080942233
H   H108      1.0  0.38426  0.69910  0.98604  1.0000 0.1080942233
H   H109      1.0  0.28354  0.80490  0.87619  1.0000 0.141116844
H   H110      1.0  0.71646  0.19510  0.12381  1.0000 0.141116844
H   H111      1.0  0.71646  0.30490  0.12381  1.0000 0.141116844
H   H112      1.0  0.28354  0.69510  0.87619  1.0000 0.141116844
H   H113      1.0  0.65364  0.81121  0.59439  1.0000 0.128448137
H   H114      1.0  0.34636  0.18879  0.40561  1.0000 0.128448137
H   H115      1.0  0.34636  0.31121  0.40561  1.0000 0.128448137
H   H116      1.0  0.65364  0.68879  0.59439  1.0000 0.128448137
H   H117      1.0  0.68584  0.85905  0.64981  1.0000 0.148103324
H   H118      1.0  0.31416  0.14095  0.35019  1.0000 0.148103324
H   H119      1.0  0.31416  0.35905  0.35019  1.0000 0.148103324
H   H120      1.0  0.68584  0.64095  0.64981  1.0000 0.148103324
H   H121      1.0  0.56132  0.85255  0.56667  1.0000 0.148103324
H   H122      1.0  0.43868  0.14745  0.43333  1.0000 0.148103324
H   H123      1.0  0.43868  0.35255  0.43333  1.0000 0.148103324
H   H124      1.0  0.56132  0.64745  0.56667  1.0000 0.148103324
H   H125      1.0  0.26792  0.84444  0.66512  1.0000 0.1029202618
H   H126      1.0  0.73208  0.15556  0.33488  1.0000 0.1029202618
H   H127      1.0  0.73208  0.34444  0.33488  1.0000 0.1029202618
H   H128      1.0  0.26792  0.65556  0.66512  1.0000 0.1029202618
H   H129      1.0  0.48990  0.75000  0.97180  1.0000 0.0920660838
H   H130      1.0  0.51010  0.25000  0.02820  1.0000 0.0920660838
H   H131      1.0  0.63192  0.75000  0.93785  1.0000 0.1029202618
H   H132      1.0  0.36808  0.25000  0.06215  1.0000 0.1029202618
C   C1        1.0  0.28621  0.14509  0.72933  1.0000 -0.0258289813
C   C2        1.0  0.71379  0.85491  0.27067  1.0000 -0.0258289813
C   C3        1.0  0.71379  0.64509  0.27067  1.0000 -0.0258289813
C   C4        1.0  0.28621  0.35491  0.72933  1.0000 -0.0258289813
C   C5        1.0  0.00019  0.08734  0.59468  1.0000 0.5547103291
C   C6        1.0  0.99981  0.91266  0.40532  1.0000 0.5547103291
C   C7        1.0  0.99981  0.58734  0.40532  1.0000 0.5554322605
C   C8        1.0  0.00019  0.41266  0.59468  1.0000 0.5554322605
C   C9        1.0  0.21996  0.98249  0.61730  1.0000 0.5702623879
C   C10       1.0  0.78004  0.01751  0.38270  1.0000 0.5702623879
C   C11       1.0  0.78004  0.48249  0.38270  1.0000 0.5702623879
C   C12       1.0  0.21996  0.51751  0.61730  1.0000 0.5702623879
C   C13       1.0  0.53795  0.10978  0.63569  1.0000 -0.1864080722
C   C14       1.0  0.46205  0.89022  0.36431  1.0000 -0.1864080722
C   C15       1.0  0.46205  0.60978  0.36431  1.0000 -0.1864080722
C   C16       1.0  0.53795  0.39022  0.63569  1.0000 -0.1864080722
C   C17       1.0  0.48611  0.13776  0.69461  1.0000 0.148103324
C   C18       1.0  0.51389  0.86224  0.30539  1.0000 0.148103324
C   C19       1.0  0.51389  0.63776  0.30539  1.0000 0.148103324
C   C20       1.0  0.48611  0.36224  0.69461  1.0000 0.148103324
C   C21       1.0  0.16725  0.06284  0.85054  1.0000 0.2260456313
C   C22       1.0  0.83275  0.93716  0.14946  1.0000 0.2260456313
C   C23       1.0  0.83275  0.56284  0.14946  1.0000 0.2260456313
C   C24       1.0  0.16725  0.43716  0.85054  1.0000 0.2260456313
C   C25       1.0  0.88498  0.09487  0.60953  1.0000 -0.0606451626
C   C26       1.0  0.11502  0.90513  0.39047  1.0000 -0.0606451626
C   C27       1.0  0.11502  0.59487  0.39047  1.0000 -0.0606451626
C   C28       1.0  0.88498  0.40513  0.60953  1.0000 -0.0606451626
C   C29       1.0  0.81910  0.06291  0.63855  1.0000 -0.0796478876
C   C30       1.0  0.18090  0.93709  0.36145  1.0000 -0.0796478876
C   C31       1.0  0.18090  0.56291  0.36145  1.0000 -0.0796478876
C   C32       1.0  0.81910  0.43709  0.63855  1.0000 -0.0796478876
C   C33       1.0  0.70846  0.06836  0.64707  1.0000 -0.1386767472
C   C34       1.0  0.29154  0.93164  0.35293  1.0000 -0.1386767472
C   C35       1.0  0.29154  0.56836  0.35293  1.0000 -0.1386767472
C   C36       1.0  0.70846  0.43164  0.64707  1.0000 -0.1386767472
C   C37       1.0  0.24835  0.12072  0.90919  1.0000 0.141116844
C   C38       1.0  0.75165  0.87928  0.09081  1.0000 0.141116844
C   C39       1.0  0.75165  0.62072  0.09081  1.0000 0.141116844
C   C40       1.0  0.24835  0.37928  0.90919  1.0000 0.141116844
C   C41       1.0  0.15583  0.06132  0.26636  1.0000 -0.045132562
C   C42       1.0  0.84417  0.93868  0.73364  1.0000 -0.045132562
C   C43       1.0  0.84417  0.56132  0.73364  1.0000 -0.045132562
C   C44       1.0  0.15583  0.43868  0.26636  1.0000 -0.0448755617
C   C45       1.0  0.28420  0.94743  0.66154  1.0000 -0.0606451626
C   C46       1.0  0.71580  0.05257  0.33846  1.0000 -0.0606451626
C   C47       1.0  0.71580  0.44743  0.33846  1.0000 -0.0606451626
C   C48       1.0  0.28420  0.55257  0.66154  1.0000 -0.0606451626
C   C49       1.0  0.45278  0.08358  0.59034  1.0000 0.2246554052
C   C50       1.0  0.54722  0.91642  0.40966  1.0000 0.2246554052
C   C51       1.0  0.54722  0.58358  0.40966  1.0000 0.2246554052
C   C52       1.0  0.45278  0.41642  0.59034  1.0000 0.2246554052
C   C53       1.0  0.19613  0.08632  0.94250  1.0000 -0.1783490027
C   C54       1.0  0.80387  0.91368  0.05750  1.0000 -0.1783490027
C   C55       1.0  0.80387  0.58632  0.05750  1.0000 -0.1783490027
C   C56       1.0  0.19613  0.41368  0.94250  1.0000 -0.1783490027
C   C57       1.0  0.65650  0.10605  0.62854  1.0000 0.1080942233
C   C58       1.0  0.34350  0.89395  0.37146  1.0000 0.1080942233
C   C59       1.0  0.34350  0.60605  0.37146  1.0000 0.1080942233
C   C60       1.0  0.65650  0.39395  0.62854  1.0000 0.1080942233
C   C61       1.0  0.14181  0.05105  0.37753  1.0000 0.5767648821
C   C62       1.0  0.85819  0.94895  0.62247  1.0000 0.5767648821
C   C63       1.0  0.85819  0.55105  0.62247  1.0000 0.5767648821
C   C64       1.0  0.14181  0.44895  0.37753  1.0000 0.5767648821
C   C65       1.0  0.17945  0.07742  0.05166  1.0000 0.1080942233
C   C66       1.0  0.82055  0.92258  0.94834  1.0000 0.1080942233
C   C67       1.0  0.82055  0.57742  0.94834  1.0000 0.1080942233
C   C68       1.0  0.17945  0.42258  0.05166  1.0000 0.1080942233
C   C69       1.0  0.83532  0.13314  0.59542  1.0000 -0.0878399559
C   C70       1.0  0.16468  0.86686  0.40458  1.0000 -0.0878399559
C   C71       1.0  0.16468  0.63314  0.40458  1.0000 -0.0878399559
C   C72       1.0  0.83532  0.36686  0.59542  1.0000 -0.0878399559
C   C73       1.0  0.07782  0.06582  0.08307  1.0000 -0.1489437491
C   C74       1.0  0.92218  0.93418  0.91693  1.0000 -0.1489437491
C   C75       1.0  0.92218  0.56582  0.91693  1.0000 -0.1489437491
C   C76       1.0  0.07782  0.43418  0.08307  1.0000 -0.1489437491
C   C77       1.0  0.11274  0.02274  0.84294  1.0000 -0.4176128576
C   C78       1.0  0.88726  0.97726  0.15706  1.0000 -0.4176128576
C   C79       1.0  0.88726  0.52274  0.15706  1.0000 -0.4176128576
C   C80       1.0  0.11274  0.47726  0.84294  1.0000 -0.4176128576
C   C81       1.0  0.53248  0.17105  0.76366  1.0000 -0.4103586718
C   C82       1.0  0.46752  0.82895  0.23634  1.0000 -0.4103586718
C   C83       1.0  0.46752  0.67105  0.23634  1.0000 -0.4103586718
C   C84       1.0  0.53248  0.32895  0.76366  1.0000 -0.4103586718
C   C85       1.0  0.29358  0.15688  0.96751  1.0000 -0.4176128576
C   C86       1.0  0.70642  0.84312  0.03249  1.0000 -0.4176128576
C   C87       1.0  0.70642  0.65688  0.03249  1.0000 -0.4176128576
C   C88       1.0  0.29358  0.34312  0.96751  1.0000 -0.4176128576
C   C89       1.0  0.06709  0.05759  0.18767  1.0000 -0.0878399559
C   C90       1.0  0.93291  0.94241  0.81233  1.0000 -0.0878399559
C   C91       1.0  0.93291  0.55759  0.81233  1.0000 -0.0878399559
C   C92       1.0  0.06709  0.44241  0.18767  1.0000 -0.0878399559
C   C93       1.0  0.46450  0.04850  0.52095  1.0000 -0.4283211524
C   C94       1.0  0.53550  0.95150  0.47905  1.0000 -0.4283211524
C   C95       1.0  0.53550  0.54850  0.47905  1.0000 -0.4283211524
C   C96       1.0  0.46450  0.45150  0.52095  1.0000 -0.4283211524
C   C97       1.0  0.38991  0.95202  0.71443  1.0000 -0.0796478876
C   C98       1.0  0.61009  0.04798  0.28557  1.0000 -0.0796478876
C   C99       1.0  0.61009  0.45202  0.28557  1.0000 -0.0796478876
C   C100      1.0  0.38991  0.54798  0.71443  1.0000 -0.0796478876
C   C101      1.0  0.40909  0.87891  0.73114  1.0000 0.1080942233
C   C102      1.0  0.59091  0.12109  0.26886  1.0000 0.1080942233
C   C103      1.0  0.59091  0.37891  0.26886  1.0000 0.1080942233
C   C104      1.0  0.40909  0.62109  0.73114  1.0000 0.1080942233
C   C105      1.0  0.25642  0.07348  0.23588  1.0000 -0.0998635734
C   C106      1.0  0.74358  0.92652  0.76412  1.0000 -0.0998635734
C   C107      1.0  0.74358  0.57348  0.76412  1.0000 -0.0998635734
C   C108      1.0  0.25642  0.42652  0.23588  1.0000 -0.0998635734
C   C109      1.0  0.26789  0.08106  0.13108  1.0000 -0.1386767472
C   C110      1.0  0.73211  0.91894  0.86892  1.0000 -0.1386767472
C   C111      1.0  0.73211  0.58106  0.86892  1.0000 -0.1386767472
C   C112      1.0  0.26789  0.41894  0.13108  1.0000 -0.1386767472
C   C113      1.0  0.45064  0.91812  0.74884  1.0000 -0.1489437491
C   C114      1.0  0.54936  0.08188  0.25116  1.0000 -0.1489437491
C   C115      1.0  0.54936  0.41812  0.25116  1.0000 -0.1489437491
C   C116      1.0  0.45064  0.58188  0.74884  1.0000 -0.1489437491
C   C117      1.0  0.72392  0.13849  0.60404  1.0000 -0.1489437491
C   C118      1.0  0.27608  0.86151  0.39596  1.0000 -0.1489437491
C   C119      1.0  0.27608  0.63849  0.39596  1.0000 -0.1489437491
C   C120      1.0  0.72392  0.36151  0.60404  1.0000 -0.1489437491
C   C121      1.0  0.44864  0.81642  0.84284  1.0000 0.1570314387
C   C122      1.0  0.55136  0.18358  0.15716  1.0000 0.1570314387
C   C123      1.0  0.55136  0.31642  0.15716  1.0000 0.1570314387
C   C124      1.0  0.44864  0.68358  0.84284  1.0000 0.1570314387
C   C125      1.0  0.47273  0.84252  0.76390  1.0000 -0.1783490027
C   C126      1.0  0.52727  0.15748  0.23610  1.0000 -0.1783490027
C   C127      1.0  0.52727  0.34252  0.23610  1.0000 -0.1783490027
C   C128      1.0  0.47273  0.65748  0.76390  1.0000 -0.1783490027
C   C129      1.0  0.56151  0.82513  0.71820  1.0000 0.2088884865
C   C130      1.0  0.43849  0.17487  0.28180  1.0000 0.2088884865
C   C131      1.0  0.43849  0.32513  0.28180  1.0000 0.2088884865
C   C132      1.0  0.56151  0.67487  0.71820  1.0000 0.2088884865
C   C133      1.0  0.24066  0.90838  0.64693  1.0000 -0.0796478876
C   C134      1.0  0.75934  0.09162  0.35307  1.0000 -0.0796478876
C   C135      1.0  0.75934  0.40838  0.35307  1.0000 -0.0796478876
C   C136      1.0  0.24066  0.59162  0.64693  1.0000 -0.0796478876
C   C137      1.0  0.36135  0.81791  0.91327  1.0000 -0.4103586718
C   C138      1.0  0.63865  0.18209  0.08673  1.0000 -0.4103586718
C   C139      1.0  0.63865  0.31791  0.08673  1.0000 -0.4103586718
C   C140      1.0  0.36135  0.68209  0.91327  1.0000 -0.4103586718
C   C141      1.0  0.61778  0.83799  0.62780  1.0000 -0.4103586718
C   C142      1.0  0.38222  0.16201  0.37220  1.0000 -0.4103586718
C   C143      1.0  0.38222  0.33799  0.37220  1.0000 -0.4103586718
C   C144      1.0  0.61778  0.66201  0.62780  1.0000 -0.4103586718
C   C145      1.0  0.30229  0.87469  0.68036  1.0000 -0.1386767472
C   C146      1.0  0.69771  0.12531  0.31964  1.0000 -0.1386767472
C   C147      1.0  0.69771  0.37469  0.31964  1.0000 -0.1386767472
C   C148      1.0  0.30229  0.62531  0.68036  1.0000 -0.1386767472
C   C149      1.0  0.54297  0.75000  0.90891  1.0000 -0.0010006442
C   C150      1.0  0.45703  0.25000  0.09109  1.0000 -0.0010006442
N   N1        1.0  0.37694  0.12826  0.68157  1.0000 0.0429595453
N   N2        1.0  0.62306  0.87174  0.31843  1.0000 0.0429595453
N   N3        1.0  0.62306  0.62826  0.31843  1.0000 0.0429595453
N   N4        1.0  0.37694  0.37174  0.68157  1.0000 0.0429595453
N   N5        1.0  0.35381  0.09468  0.61872  1.0000 -0.2776641171
N   N6        1.0  0.64619  0.90532  0.38128  1.0000 -0.2776641171
N   N7        1.0  0.64619  0.59468  0.38128  1.0000 -0.2776641171
N   N8        1.0  0.35381  0.40532  0.61872  1.0000 -0.2776641171
N   N9        1.0  0.24796  0.11697  0.80352  1.0000 0.0466270377
N   N10       1.0  0.75204  0.88303  0.19648  1.0000 0.0466270377
N   N11       1.0  0.75204  0.61697  0.19648  1.0000 0.0466270377
N   N12       1.0  0.24796  0.38303  0.80352  1.0000 0.0466270377
N   N13       1.0  0.19945  0.08143  0.76522  1.0000 -0.2902904744
N   N14       1.0  0.80055  0.91857  0.23478  1.0000 -0.2902904744
N   N15       1.0  0.80055  0.58143  0.23478  1.0000 -0.2902904744
N   N16       1.0  0.19945  0.41857  0.76522  1.0000 -0.2902904744
N   N17       1.0  0.59264  0.79002  0.76816  1.0000 -0.247981179
N   N18       1.0  0.40736  0.20998  0.23184  1.0000 -0.247981179
N   N19       1.0  0.40736  0.29002  0.23184  1.0000 -0.247981179
N   N20       1.0  0.59264  0.70998  0.76816  1.0000 -0.247981179
N   N21       1.0  0.52362  0.78560  0.84540  1.0000 0.0069307953
N   N22       1.0  0.47638  0.21440  0.15460  1.0000 0.0069307953
N   N23       1.0  0.47638  0.28560  0.15460  1.0000 0.0069307953
N   N24       1.0  0.52362  0.71440  0.84540  1.0000 0.0069307953
Cl  Cl1       1.0  0.86070  0.75000  0.81101  1.0000 -0.4915051426
Cl  Cl2       1.0  0.13930  0.25000  0.18899  1.0000 -0.4915051426
O   O1        1.0  0.03923  0.05030  0.58929  1.0000 -0.529087081
O   O2        1.0  0.96077  0.94970  0.41071  1.0000 -0.529087081
O   O3        1.0  0.96077  0.55030  0.41071  1.0000 -0.529087081
O   O4        1.0  0.03923  0.44970  0.58929  1.0000 -0.529087081
O   O5        1.0  0.20233  0.06875  0.45222  1.0000 -0.5089212651
O   O6        1.0  0.79767  0.93125  0.54778  1.0000 -0.5089212651
O   O7        1.0  0.79767  0.56875  0.54778  1.0000 -0.5089212651
O   O8        1.0  0.20233  0.43125  0.45222  1.0000 -0.5089212651
O   O9        1.0  0.07426  0.11461  0.59405  1.0000 -0.4915051426
O   O10       1.0  0.92574  0.88539  0.40595  1.0000 -0.4915051426
O   O11       1.0  0.92574  0.61461  0.40595  1.0000 -0.4915051426
O   O12       1.0  0.07426  0.38539  0.59405  1.0000 -0.4915051426
O   O13       1.0  0.26111  0.01797  0.63615  1.0000 -0.4915051426
O   O14       1.0  0.73889  0.98203  0.36385  1.0000 -0.4915051426
O   O15       1.0  0.73889  0.51797  0.36385  1.0000 -0.4915051426
O   O16       1.0  0.26111  0.48203  0.63615  1.0000 -0.4915051426
O   O17       1.0  0.06903  0.02398  0.38755  1.0000 -0.529087081
O   O18       1.0  0.93097  0.97602  0.61245  1.0000 -0.529087081
O   O19       1.0  0.93097  0.52398  0.61245  1.0000 -0.529087081
O   O20       1.0  0.06903  0.47602  0.38755  1.0000 -0.529087081
O   O21       1.0  0.12877  0.97405  0.56330  1.0000 -0.529087081
O   O22       1.0  0.87123  0.02595  0.43670  1.0000 -0.529087081
O   O23       1.0  0.87123  0.47405  0.43670  1.0000 -0.529087081
O   O24       1.0  0.12877  0.52595  0.56330  1.0000 -0.529087081
