# DDEC6 charges by PACMAN v1.1 (https://github.com/mtap-research/PACMAN-charge/)
data_2016[Tb][nan]3[ASR]9
_chemical_formula_sum              "Tb4 H96 C156 N4 O24"
_cell_length_a       21.8891
_cell_length_b       9.107
_cell_length_c       32.038
_cell_angle_alpha    90
_cell_angle_beta     124.121
_cell_angle_gamma    90

_symmetry_space_group_name_H-M    "P 1"
_symmetry_Int_Tables_number       1

loop_
  _symmetry_equiv_pos_as_xyz
  'x, y, z'

loop_
  _atom_site_type_symbol
  _atom_site_label
  _atom_site_symmetry_multiplicity
  _atom_site_fract_x
  _atom_site_fract_y
  _atom_site_fract_z
  _atom_site_occupancy
  _atom_site_charge
Tb  Tb1       1.0  0.01767  0.20184  0.55522  1.0000 2.0485955068
Tb  Tb2       1.0  0.98233  0.20184  0.94478  1.0000 2.0485955068
Tb  Tb3       1.0  0.98233  0.79816  0.44478  1.0000 2.0485955068
Tb  Tb4       1.0  0.01767  0.79816  0.05522  1.0000 2.0485955068
H   H1        1.0  0.69330  0.69010  0.60440  1.0000 0.1092012083
H   H2        1.0  0.30670  0.69010  0.89560  1.0000 0.1092012083
H   H3        1.0  0.30670  0.30990  0.39560  1.0000 0.1092012083
H   H4        1.0  0.69330  0.30990  0.10440  1.0000 0.1092012083
H   H5        1.0  0.97050  0.69510  0.87560  1.0000 0.1286330623
H   H6        1.0  0.02950  0.69510  0.62440  1.0000 0.1286330623
H   H7        1.0  0.02950  0.30490  0.12440  1.0000 0.1286330623
H   H8        1.0  0.97050  0.30490  0.37560  1.0000 0.1286330623
H   H9        1.0  0.79590  0.81900  0.52930  1.0000 0.1092012083
H   H10       1.0  0.20410  0.81900  0.97070  1.0000 0.1092012083
H   H11       1.0  0.20410  0.18100  0.47070  1.0000 0.1092012083
H   H12       1.0  0.79590  0.18100  0.02930  1.0000 0.1092012083
H   H13       1.0  0.52840  0.09260  0.53540  1.0000 0.1203917992
H   H14       1.0  0.47160  0.09260  0.96460  1.0000 0.1203917992
H   H15       1.0  0.47160  0.90740  0.46460  1.0000 0.1203917992
H   H16       1.0  0.52840  0.90740  0.03540  1.0000 0.1203917992
H   H17       1.0  0.74350  0.18560  0.59930  1.0000 0.1203917992
H   H18       1.0  0.25650  0.18560  0.90070  1.0000 0.1203917992
H   H19       1.0  0.25650  0.81440  0.40070  1.0000 0.1203917992
H   H20       1.0  0.74350  0.81440  0.09930  1.0000 0.1203917992
H   H21       1.0  0.63120  0.87180  0.61880  1.0000 0.1203917992
H   H22       1.0  0.36880  0.87180  0.88120  1.0000 0.1203917992
H   H23       1.0  0.36880  0.12820  0.38120  1.0000 0.1203917992
H   H24       1.0  0.63120  0.12820  0.11880  1.0000 0.1203917992
H   H25       1.0  0.75540  0.79150  0.71870  1.0000 0.1023466625
H   H26       1.0  0.24460  0.79150  0.78130  1.0000 0.1023466625
H   H27       1.0  0.24460  0.20850  0.28130  1.0000 0.1023466625
H   H28       1.0  0.75540  0.20850  0.21870  1.0000 0.1023466625
H   H29       1.0  0.32710  0.89020  0.52550  1.0000 0.1092012083
H   H30       1.0  0.67290  0.89020  0.97450  1.0000 0.1092012083
H   H31       1.0  0.67290  0.10980  0.47450  1.0000 0.1092012083
H   H32       1.0  0.32710  0.10980  0.02550  1.0000 0.1092012083
H   H33       1.0  0.80650  0.00190  0.58550  1.0000 0.1203917992
H   H34       1.0  0.19350  0.00190  0.91450  1.0000 0.1203917992
H   H35       1.0  0.19350  0.99810  0.41450  1.0000 0.1203917992
H   H36       1.0  0.80650  0.99810  0.08550  1.0000 0.1203917992
H   H37       1.0  0.90480  0.50530  0.81770  1.0000 0.1203917992
H   H38       1.0  0.09520  0.50530  0.68230  1.0000 0.1203917992
H   H39       1.0  0.09520  0.49470  0.18230  1.0000 0.1203917992
H   H40       1.0  0.90480  0.49470  0.31770  1.0000 0.1203917992
H   H41       1.0  0.67980  0.61440  0.68310  1.0000 0.1092012083
H   H42       1.0  0.32020  0.61440  0.81690  1.0000 0.1092012083
H   H43       1.0  0.32020  0.38560  0.31690  1.0000 0.1092012083
H   H44       1.0  0.67980  0.38560  0.18310  1.0000 0.1092012083
H   H45       1.0  0.86720  0.65100  0.51940  1.0000 0.1286330623
H   H46       1.0  0.13280  0.65100  0.98060  1.0000 0.1286330623
H   H47       1.0  0.13280  0.34900  0.48060  1.0000 0.1286330623
H   H48       1.0  0.86720  0.34900  0.01940  1.0000 0.1286330623
H   H49       1.0  0.35020  0.23930  0.61270  1.0000 0.1092012083
H   H50       1.0  0.64980  0.23930  0.88730  1.0000 0.1092012083
H   H51       1.0  0.64980  0.76070  0.38730  1.0000 0.1092012083
H   H52       1.0  0.35020  0.76070  0.11270  1.0000 0.1092012083
H   H53       1.0  0.23190  0.18940  0.59370  1.0000 0.1203917992
H   H54       1.0  0.76810  0.18940  0.90630  1.0000 0.1203917992
H   H55       1.0  0.76810  0.81060  0.40630  1.0000 0.1203917992
H   H56       1.0  0.23190  0.81060  0.09370  1.0000 0.1203917992
H   H57       1.0  0.87950  0.39820  0.62450  1.0000 0.1203917992
H   H58       1.0  0.12050  0.39820  0.87550  1.0000 0.1203917992
H   H59       1.0  0.12050  0.60180  0.37550  1.0000 0.1203917992
H   H60       1.0  0.87950  0.60180  0.12450  1.0000 0.1203917992
H   H61       1.0  0.61160  0.42670  0.62990  1.0000 0.1286330623
H   H62       1.0  0.38840  0.42670  0.87010  1.0000 0.1286330623
H   H63       1.0  0.38840  0.57330  0.37010  1.0000 0.1286330623
H   H64       1.0  0.61160  0.57330  0.12990  1.0000 0.1286330623
H   H65       1.0  0.20720  0.84530  0.50560  1.0000 0.1286330623
H   H66       1.0  0.79280  0.84530  0.99440  1.0000 0.1286330623
H   H67       1.0  0.79280  0.15470  0.49440  1.0000 0.1286330623
H   H68       1.0  0.20720  0.15470  0.00560  1.0000 0.1286330623
H   H69       1.0  0.85810  0.35530  0.75190  1.0000 0.1286330623
H   H70       1.0  0.14190  0.35530  0.74810  1.0000 0.1286330623
H   H71       1.0  0.14190  0.64470  0.24810  1.0000 0.1286330623
H   H72       1.0  0.85810  0.64470  0.25190  1.0000 0.1286330623
H   H73       1.0  0.47610  0.14790  0.65850  1.0000 0.1092012083
H   H74       1.0  0.52390  0.14790  0.84150  1.0000 0.1092012083
H   H75       1.0  0.52390  0.85210  0.34150  1.0000 0.1092012083
H   H76       1.0  0.47610  0.85210  0.15850  1.0000 0.1092012083
H   H77       1.0  0.81080  0.56610  0.63800  1.0000 0.1092012083
H   H78       1.0  0.18920  0.56610  0.86200  1.0000 0.1092012083
H   H79       1.0  0.18920  0.43390  0.36200  1.0000 0.1092012083
H   H80       1.0  0.81080  0.43390  0.13800  1.0000 0.1092012083
H   H81       1.0  0.79020  0.16190  0.69780  1.0000 0.1286330623
H   H82       1.0  0.20980  0.16190  0.80220  1.0000 0.1286330623
H   H83       1.0  0.20980  0.83810  0.30220  1.0000 0.1286330623
H   H84       1.0  0.79020  0.83810  0.19780  1.0000 0.1286330623
H   H85       1.0  0.81580  0.97720  0.77830  1.0000 0.1203917992
H   H86       1.0  0.18420  0.97720  0.72170  1.0000 0.1203917992
H   H87       1.0  0.18420  0.02280  0.22170  1.0000 0.1203917992
H   H88       1.0  0.81580  0.02280  0.27830  1.0000 0.1203917992
H   H89       1.0  0.59740  0.18600  0.67960  1.0000 0.1286330623
H   H90       1.0  0.40260  0.18600  0.82040  1.0000 0.1286330623
H   H91       1.0  0.40260  0.81400  0.32040  1.0000 0.1286330623
H   H92       1.0  0.59740  0.81400  0.17960  1.0000 0.1286330623
H   H93       1.0  0.40900  0.04660  0.51510  1.0000 0.1092012083
H   H94       1.0  0.59100  0.04660  0.98490  1.0000 0.1092012083
H   H95       1.0  0.59100  0.95340  0.48490  1.0000 0.1092012083
H   H96       1.0  0.40900  0.95340  0.01510  1.0000 0.1092012083
C   C1        1.0  0.69260  0.27460  0.65740  1.0000 0.1765087248
C   C2        1.0  0.30740  0.27460  0.84260  1.0000 0.1765087248
C   C3        1.0  0.30740  0.72540  0.34260  1.0000 0.1765087248
C   C4        1.0  0.69260  0.72540  0.15740  1.0000 0.1765087248
C   C5        1.0  0.42870  0.09230  0.58360  1.0000 0.0591440202
C   C6        1.0  0.57130  0.09230  0.91640  1.0000 0.0591440202
C   C7        1.0  0.57130  0.90770  0.41640  1.0000 0.0591440202
C   C8        1.0  0.42870  0.90770  0.08360  1.0000 0.0591440202
C   C9        1.0  0.70430  0.79060  0.60380  1.0000 -0.1407626727
C   C10       1.0  0.29570  0.79060  0.89620  1.0000 -0.1407626727
C   C11       1.0  0.29570  0.20940  0.39620  1.0000 -0.1407626727
C   C12       1.0  0.70430  0.20940  0.10380  1.0000 -0.1407626727
C   C13       1.0  0.79830  0.71590  0.58510  1.0000 0.0784110192
C   C14       1.0  0.20170  0.71590  0.91490  1.0000 0.0784110192
C   C15       1.0  0.20170  0.28410  0.41490  1.0000 0.0784110192
C   C16       1.0  0.79830  0.28410  0.08510  1.0000 0.0784110192
C   C17       1.0  0.92500  0.71600  0.84470  1.0000 -0.0818390212
C   C18       1.0  0.07500  0.71600  0.65530  1.0000 -0.0818390212
C   C19       1.0  0.07500  0.28400  0.15530  1.0000 -0.0818390212
C   C20       1.0  0.92500  0.28400  0.34470  1.0000 -0.0818390212
C   C21       1.0  0.93240  0.97710  0.87330  1.0000 0.5795813539
C   C22       1.0  0.06760  0.97710  0.62670  1.0000 0.5795813539
C   C23       1.0  0.06760  0.02290  0.12670  1.0000 0.5795813539
C   C24       1.0  0.93240  0.02290  0.37330  1.0000 0.5795813539
C   C25       1.0  0.20810  0.01360  0.54660  1.0000 -0.0511779486
C   C26       1.0  0.79190  0.01360  0.95340  1.0000 -0.0511779486
C   C27       1.0  0.79190  0.98640  0.45340  1.0000 -0.0511779486
C   C28       1.0  0.20810  0.98640  0.04660  1.0000 -0.0511779486
C   C29       1.0  0.35290  0.06960  0.57290  1.0000 0.0784110192
C   C30       1.0  0.64710  0.06960  0.92710  1.0000 0.0784110192
C   C31       1.0  0.64710  0.93040  0.42710  1.0000 0.0784110192
C   C32       1.0  0.35290  0.93040  0.07290  1.0000 0.0784110192
C   C33       1.0  0.88140  0.50880  0.57210  1.0000 -0.0057301885
C   C34       1.0  0.11860  0.50880  0.92790  1.0000 -0.0057301885
C   C35       1.0  0.11860  0.49120  0.42790  1.0000 -0.0057301885
C   C36       1.0  0.88140  0.49120  0.07210  1.0000 -0.0057301885
C   C37       1.0  0.81410  0.73420  0.55020  1.0000 -0.1407626727
C   C38       1.0  0.18590  0.73420  0.94980  1.0000 -0.1407626727
C   C39       1.0  0.18590  0.26580  0.44980  1.0000 -0.1407626727
C   C40       1.0  0.81410  0.26580  0.05020  1.0000 -0.1407626727
C   C41       1.0  0.68280  0.04670  0.61230  1.0000 0.1679463984
C   C42       1.0  0.31720  0.04670  0.88770  1.0000 0.1679463984
C   C43       1.0  0.31720  0.95330  0.38770  1.0000 0.1679463984
C   C44       1.0  0.68280  0.95330  0.11230  1.0000 0.1679463984
C   C45       1.0  0.89710  0.85560  0.83470  1.0000 -0.00159832
C   C46       1.0  0.10290  0.85560  0.66530  1.0000 -0.00159832
C   C47       1.0  0.10290  0.14440  0.16530  1.0000 -0.00159832
C   C48       1.0  0.89710  0.14440  0.33470  1.0000 -0.00159832
C   C49       1.0  0.51850  0.10160  0.56060  1.0000 -0.1898234213
C   C50       1.0  0.48150  0.10160  0.93940  1.0000 -0.1898234213
C   C51       1.0  0.48150  0.89840  0.43940  1.0000 -0.1898234213
C   C52       1.0  0.51850  0.89840  0.06060  1.0000 -0.1898234213
C   C53       1.0  0.77690  0.50790  0.72510  1.0000 0.0591440202
C   C54       1.0  0.22310  0.50790  0.77490  1.0000 0.0591440202
C   C55       1.0  0.22310  0.49210  0.27490  1.0000 0.0591440202
C   C56       1.0  0.77690  0.49210  0.22510  1.0000 0.0591440202
C   C57       1.0  0.73380  0.08500  0.60110  1.0000 -0.1816296986
C   C58       1.0  0.26620  0.08500  0.89890  1.0000 -0.1816296986
C   C59       1.0  0.26620  0.91500  0.39890  1.0000 -0.1816296986
C   C60       1.0  0.73380  0.91500  0.10110  1.0000 -0.1816296986
C   C61       1.0  0.93030  0.39990  0.56820  1.0000 0.5795813539
C   C62       1.0  0.06970  0.39990  0.93180  1.0000 0.5795813539
C   C63       1.0  0.06970  0.60010  0.43180  1.0000 0.5795813539
C   C64       1.0  0.93030  0.60010  0.06820  1.0000 0.5795813539
C   C65       1.0  0.66730  0.89960  0.61260  1.0000 -0.1898234213
C   C66       1.0  0.33270  0.89960  0.88740  1.0000 -0.1898234213
C   C67       1.0  0.33270  0.10040  0.38740  1.0000 -0.1898234213
C   C68       1.0  0.66730  0.10040  0.11260  1.0000 -0.1898234213
C   C69       1.0  0.79780  0.76780  0.75100  1.0000 -0.1687591529
C   C70       1.0  0.20220  0.76780  0.74900  1.0000 -0.1687591529
C   C71       1.0  0.20220  0.23220  0.24900  1.0000 -0.1687591529
C   C72       1.0  0.79780  0.23220  0.25100  1.0000 -0.1687591529
C   C73       1.0  0.30780  0.95140  0.53950  1.0000 -0.1607206656
C   C74       1.0  0.69220  0.95140  0.96050  1.0000 -0.1607206656
C   C75       1.0  0.69220  0.04860  0.46050  1.0000 -0.1607206656
C   C76       1.0  0.30780  0.04860  0.03950  1.0000 -0.1607206656
C   C77       1.0  0.57550  0.14060  0.61040  1.0000 0.1679463984
C   C78       1.0  0.42450  0.14060  0.88960  1.0000 0.1679463984
C   C79       1.0  0.42450  0.85940  0.38960  1.0000 0.1679463984
C   C80       1.0  0.57550  0.85940  0.11040  1.0000 0.1679463984
C   C81       1.0  0.82160  0.62680  0.76150  1.0000 0.0784110192
C   C82       1.0  0.17840  0.62680  0.73850  1.0000 0.0784110192
C   C83       1.0  0.17840  0.37320  0.23850  1.0000 0.0784110192
C   C84       1.0  0.82160  0.37320  0.26150  1.0000 0.0784110192
C   C85       1.0  0.77110  0.97500  0.59250  1.0000 -0.1302671748
C   C86       1.0  0.22890  0.97500  0.90750  1.0000 -0.1302671748
C   C87       1.0  0.22890  0.02500  0.40750  1.0000 -0.1302671748
C   C88       1.0  0.77110  0.02500  0.09250  1.0000 -0.1302671748
C   C89       1.0  0.88600  0.60260  0.80890  1.0000 -0.1513911448
C   C90       1.0  0.11400  0.60260  0.69110  1.0000 -0.1513911448
C   C91       1.0  0.11400  0.39740  0.19110  1.0000 -0.1513911448
C   C92       1.0  0.88600  0.39740  0.30890  1.0000 -0.1513911448
C   C93       1.0  0.70320  0.52270  0.68710  1.0000 -0.1407626727
C   C94       1.0  0.29680  0.52270  0.81290  1.0000 -0.1407626727
C   C95       1.0  0.29680  0.47730  0.31290  1.0000 -0.1407626727
C   C96       1.0  0.70320  0.47730  0.18710  1.0000 -0.1407626727
C   C97       1.0  0.75620  0.82780  0.59420  1.0000 0.0657491685
C   C98       1.0  0.24380  0.82780  0.90580  1.0000 0.0657491685
C   C99       1.0  0.24380  0.17220  0.40580  1.0000 0.0657491685
C   C100      1.0  0.75620  0.17220  0.09420  1.0000 0.0657491685
C   C101      1.0  0.13160  0.98940  0.53420  1.0000 0.684603084
C   C102      1.0  0.86840  0.98940  0.96580  1.0000 0.684603084
C   C103      1.0  0.86840  0.01060  0.46580  1.0000 0.6862924882
C   C104      1.0  0.13160  0.01060  0.03420  1.0000 0.6862924882
C   C105      1.0  0.85620  0.63290  0.54370  1.0000 -0.0818390212
C   C106      1.0  0.14380  0.63290  0.95630  1.0000 -0.0818390212
C   C107      1.0  0.14380  0.36710  0.45630  1.0000 -0.0818390212
C   C108      1.0  0.85620  0.36710  0.04370  1.0000 -0.0818390212
C   C109      1.0  0.32280  0.15850  0.59160  1.0000 -0.1687591529
C   C110      1.0  0.67720  0.15850  0.90840  1.0000 -0.1687591529
C   C111      1.0  0.67720  0.84150  0.40840  1.0000 -0.1687591529
C   C112      1.0  0.32280  0.84150  0.09160  1.0000 -0.1687591529
C   C113      1.0  0.25140  0.12970  0.57950  1.0000 -0.0898902806
C   C114      1.0  0.74860  0.12970  0.92050  1.0000 -0.0898902806
C   C115      1.0  0.74860  0.87030  0.42050  1.0000 -0.0898902806
C   C116      1.0  0.25140  0.87030  0.07950  1.0000 -0.0898902806
C   C117      1.0  0.86330  0.48650  0.60550  1.0000 -0.1067194603
C   C118      1.0  0.13670  0.48650  0.89450  1.0000 -0.1067194603
C   C119      1.0  0.13670  0.51350  0.39450  1.0000 -0.1067194603
C   C120      1.0  0.86330  0.51350  0.10550  1.0000 -0.1067194603
C   C121      1.0  0.66250  0.41060  0.65490  1.0000 -0.1816296986
C   C122      1.0  0.33750  0.41060  0.84510  1.0000 -0.1816296986
C   C123      1.0  0.33750  0.58940  0.34510  1.0000 -0.1816296986
C   C124      1.0  0.66250  0.58940  0.15490  1.0000 -0.1816296986
C   C125      1.0  0.23570  0.92440  0.52720  1.0000 -0.0898902806
C   C126      1.0  0.76430  0.92440  0.97280  1.0000 -0.0898902806
C   C127      1.0  0.76430  0.07560  0.47280  1.0000 -0.0898902806
C   C128      1.0  0.23570  0.07560  0.02720  1.0000 -0.0898902806
C   C129      1.0  0.80710  0.37020  0.72700  1.0000 -0.1302671748
C   C130      1.0  0.19290  0.37020  0.77300  1.0000 -0.1302671748
C   C131      1.0  0.19290  0.62980  0.27300  1.0000 -0.1302671748
C   C132      1.0  0.80710  0.62980  0.22700  1.0000 -0.1302671748
C   C133      1.0  0.48640  0.13500  0.63360  1.0000 -0.1407626727
C   C134      1.0  0.51360  0.13500  0.86640  1.0000 -0.1407626727
C   C135      1.0  0.51360  0.86500  0.36640  1.0000 -0.1407626727
C   C136      1.0  0.48640  0.86500  0.13360  1.0000 -0.1407626727
C   C137      1.0  0.82210  0.58580  0.61400  1.0000 -0.1607206656
C   C138      1.0  0.17790  0.58580  0.88600  1.0000 -0.1607206656
C   C139      1.0  0.17790  0.41420  0.38600  1.0000 -0.1607206656
C   C140      1.0  0.82210  0.41420  0.11400  1.0000 -0.1607206656
C   C141      1.0  0.76710  0.25340  0.69460  1.0000 -0.1898234213
C   C142      1.0  0.23290  0.25340  0.80540  1.0000 -0.1898234213
C   C143      1.0  0.23290  0.74660  0.30540  1.0000 -0.1898234213
C   C144      1.0  0.76710  0.74660  0.19460  1.0000 -0.1898234213
C   C145      1.0  0.83470  0.88020  0.78710  1.0000 -0.0957257263
C   C146      1.0  0.16530  0.88020  0.71290  1.0000 -0.0957257263
C   C147      1.0  0.16530  0.11980  0.21290  1.0000 -0.0957257263
C   C148      1.0  0.83470  0.11980  0.28710  1.0000 -0.0957257263
C   C149      1.0  0.55940  0.15820  0.64620  1.0000 -0.2013875692
C   C150      1.0  0.44060  0.15820  0.85380  1.0000 -0.2013875692
C   C151      1.0  0.44060  0.84180  0.35380  1.0000 -0.2013875692
C   C152      1.0  0.55940  0.84180  0.14620  1.0000 -0.2013875692
C   C153      1.0  0.44650  0.07600  0.54850  1.0000 -0.1513911448
C   C154      1.0  0.55350  0.07600  0.95150  1.0000 -0.1513911448
C   C155      1.0  0.55350  0.92400  0.45150  1.0000 -0.1513911448
C   C156      1.0  0.44650  0.92400  0.04850  1.0000 -0.1607206656
N   N1        1.0  0.64980  0.15950  0.62470  1.0000 -0.1687591529
N   N2        1.0  0.35020  0.15950  0.87530  1.0000 -0.1687591529
N   N3        1.0  0.35020  0.84050  0.37530  1.0000 -0.1607206656
N   N4        1.0  0.64980  0.84050  0.12470  1.0000 -0.1607206656
O   O1        1.0  0.10430  0.08170  0.54870  1.0000 -0.6992426924
O   O2        1.0  0.89570  0.08170  0.95130  1.0000 -0.6992426924
O   O3        1.0  0.89570  0.91830  0.45130  1.0000 -0.6992426924
O   O4        1.0  0.10430  0.91830  0.04870  1.0000 -0.6992426924
O   O5        1.0  0.98700  0.94970  0.91740  1.0000 -0.6238407306
O   O6        1.0  0.01300  0.94970  0.58260  1.0000 -0.6238407306
O   O7        1.0  0.01300  0.05030  0.08260  1.0000 -0.6238407306
O   O8        1.0  0.98700  0.05030  0.41740  1.0000 -0.6238407306
O   O9        1.0  0.94940  0.43420  0.53750  1.0000 -0.6787738166
O   O10       1.0  0.05060  0.43420  0.96250  1.0000 -0.6787738166
O   O11       1.0  0.05060  0.56580  0.46250  1.0000 -0.6787738166
O   O12       1.0  0.94940  0.56580  0.03750  1.0000 -0.6787738166
O   O13       1.0  0.90430  0.10540  0.86050  1.0000 -0.6538063101
O   O14       1.0  0.09570  0.10540  0.63950  1.0000 -0.6538063101
O   O15       1.0  0.09570  0.89460  0.13950  1.0000 -0.6538063101
O   O16       1.0  0.90430  0.89460  0.36050  1.0000 -0.6538063101
O   O17       1.0  0.09620  0.87800  0.50690  1.0000 -0.6888907961
O   O18       1.0  0.90380  0.87800  0.99310  1.0000 -0.6888907961
O   O19       1.0  0.90380  0.12200  0.49310  1.0000 -0.6888907961
O   O20       1.0  0.09620  0.12200  0.00690  1.0000 -0.6888907961
O   O21       1.0  0.95270  0.28180  0.59290  1.0000 -0.6289188675
O   O22       1.0  0.04730  0.28180  0.90710  1.0000 -0.6289188675
O   O23       1.0  0.04730  0.71820  0.40710  1.0000 -0.6289188675
O   O24       1.0  0.95270  0.71820  0.09290  1.0000 -0.6289188675
