# DDEC6 charges by PACMAN v1.1 (https://github.com/mtap-research/PACMAN-charge/)
data_2016[CuSi][pcu]2[ASR]1
_chemical_formula_sum              "Cu4 Si4 H64 C80 N16 F24"
_cell_length_a       14.7959
_cell_length_b       16.6136
_cell_length_c       16.3875
_cell_angle_alpha    90
_cell_angle_beta     90.654
_cell_angle_gamma    90

_symmetry_space_group_name_H-M    "P 1"
_symmetry_Int_Tables_number       1

loop_
  _symmetry_equiv_pos_as_xyz
  'x, y, z'

loop_
  _atom_site_type_symbol
  _atom_site_label
  _atom_site_symmetry_multiplicity
  _atom_site_fract_x
  _atom_site_fract_y
  _atom_site_fract_z
  _atom_site_occupancy
  _atom_site_charge
Cu  Cu1       1.0  0.50000  0.50000  0.00000  1.0000 0.6825819091
Cu  Cu2       1.0  0.00000  0.00000  0.00000  1.0000 0.6825819091
Cu  Cu3       1.0  0.50000  0.50000  0.50000  1.0000 0.6728499011
Cu  Cu4       1.0  0.00000  0.00000  0.50000  1.0000 0.6728499011
Si  Si1       1.0  0.50049  0.49819  0.75149  1.0000 1.7275309042
Si  Si2       1.0  0.99951  0.99819  0.24851  1.0000 1.7275309042
Si  Si3       1.0  0.49951  0.50181  0.24851  1.0000 1.7275309042
Si  Si4       1.0  0.00049  0.00181  0.75149  1.0000 1.7275309042
H   H1        1.0  0.74280  0.67500  0.38860  1.0000 0.1357333602
H   H2        1.0  0.75720  0.17500  0.61140  1.0000 0.1357333602
H   H3        1.0  0.25720  0.32500  0.61140  1.0000 0.1357333602
H   H4        1.0  0.24280  0.82500  0.38860  1.0000 0.1357333602
H   H5        1.0  0.88610  0.90930  0.61860  1.0000 0.1217315818
H   H6        1.0  0.61390  0.40930  0.38140  1.0000 0.1217315818
H   H7        1.0  0.11390  0.09070  0.38140  1.0000 0.1217315818
H   H8        1.0  0.38610  0.59070  0.61860  1.0000 0.1217315818
H   H9        1.0  0.64960  0.74570  0.60890  1.0000 0.1323358648
H   H10       1.0  0.85040  0.24570  0.39110  1.0000 0.1323358648
H   H11       1.0  0.35040  0.25430  0.39110  1.0000 0.1323358648
H   H12       1.0  0.14960  0.75430  0.60890  1.0000 0.1323358648
H   H13       1.0  0.64310  0.56730  0.39240  1.0000 0.1217315818
H   H14       1.0  0.85690  0.06730  0.60760  1.0000 0.1217315818
H   H15       1.0  0.35690  0.43270  0.60760  1.0000 0.1217315818
H   H16       1.0  0.14310  0.93270  0.39240  1.0000 0.1217315818
H   H17       1.0  0.20800  0.79620  0.87730  1.0000 0.1357333602
H   H18       1.0  0.29200  0.29620  0.12270  1.0000 0.1357333602
H   H19       1.0  0.79200  0.20380  0.12270  1.0000 0.1357333602
H   H20       1.0  0.70800  0.70380  0.87730  1.0000 0.1357333602
H   H21       1.0  0.24050  0.65820  0.10890  1.0000 0.1357333602
H   H22       1.0  0.25950  0.15820  0.89110  1.0000 0.1323358648
H   H23       1.0  0.75950  0.34180  0.89110  1.0000 0.1357333602
H   H24       1.0  0.74050  0.84180  0.10890  1.0000 0.1357333602
H   H25       1.0  0.78140  0.80590  0.62130  1.0000 0.1357333602
H   H26       1.0  0.71860  0.30590  0.37870  1.0000 0.1357333602
H   H27       1.0  0.21860  0.19410  0.37870  1.0000 0.1357333602
H   H28       1.0  0.28140  0.69410  0.62130  1.0000 0.1357333602
H   H29       1.0  0.55450  0.63460  0.60810  1.0000 0.1217315818
H   H30       1.0  0.94550  0.13460  0.39190  1.0000 0.1217315818
H   H31       1.0  0.44550  0.36540  0.39190  1.0000 0.1217315818
H   H32       1.0  0.05450  0.86540  0.60810  1.0000 0.1217315818
H   H33       1.0  0.11000  0.90480  0.88000  1.0000 0.1217315818
H   H34       1.0  0.39000  0.40480  0.12000  1.0000 0.1217315818
H   H35       1.0  0.89000  0.09520  0.12000  1.0000 0.1217315818
H   H36       1.0  0.61000  0.59520  0.88000  1.0000 0.1217315818
H   H37       1.0  0.33800  0.73840  0.89340  1.0000 0.1323358648
H   H38       1.0  0.16200  0.23840  0.10660  1.0000 0.1323358648
H   H39       1.0  0.66200  0.26160  0.10660  1.0000 0.1323358648
H   H40       1.0  0.83800  0.76160  0.89340  1.0000 0.1323358648
H   H41       1.0  0.88420  0.91030  0.37800  1.0000 0.1323358648
H   H42       1.0  0.61580  0.41030  0.62200  1.0000 0.1323358648
H   H43       1.0  0.11580  0.08970  0.62200  1.0000 0.1323358648
H   H44       1.0  0.38420  0.58970  0.37800  1.0000 0.1323358648
H   H45       1.0  0.77900  0.80670  0.37410  1.0000 0.1357333602
H   H46       1.0  0.72100  0.30670  0.62590  1.0000 0.1357333602
H   H47       1.0  0.22100  0.19330  0.62590  1.0000 0.1357333602
H   H48       1.0  0.27900  0.69330  0.37410  1.0000 0.1357333602
H   H49       1.0  0.19280  0.78440  0.12400  1.0000 0.1323358648
H   H50       1.0  0.30720  0.28440  0.87600  1.0000 0.1323358648
H   H51       1.0  0.80720  0.21560  0.87600  1.0000 0.1323358648
H   H52       1.0  0.69280  0.71560  0.12400  1.0000 0.1323358648
H   H53       1.0  0.09430  0.89320  0.12000  1.0000 0.1323358648
H   H54       1.0  0.40570  0.39320  0.88000  1.0000 0.1323358648
H   H55       1.0  0.90570  0.10680  0.88000  1.0000 0.1323358648
H   H56       1.0  0.59430  0.60680  0.12000  1.0000 0.1323358648
H   H57       1.0  0.34730  0.55600  0.10650  1.0000 0.1217315818
H   H58       1.0  0.15270  0.05600  0.89350  1.0000 0.1217315818
H   H59       1.0  0.65270  0.44400  0.89350  1.0000 0.1217315818
H   H60       1.0  0.84730  0.94400  0.10650  1.0000 0.1217315818
H   H61       1.0  0.43820  0.63130  0.89420  1.0000 0.1217315818
H   H62       1.0  0.06180  0.13130  0.10580  1.0000 0.1217315818
H   H63       1.0  0.56180  0.36870  0.10580  1.0000 0.1217315818
H   H64       1.0  0.93820  0.86870  0.89420  1.0000 0.1217315818
C   C1        1.0  0.70696  0.72317  0.49828  1.0000 0.1054317559
C   C2        1.0  0.79304  0.22317  0.50172  1.0000 0.1054317559
C   C3        1.0  0.29304  0.27683  0.50172  1.0000 0.1054317559
C   C4        1.0  0.20696  0.77683  0.49828  1.0000 0.1011739245
C   C5        1.0  0.70421  0.66834  0.43402  1.0000 -0.1802031048
C   C6        1.0  0.79579  0.16834  0.56598  1.0000 -0.1802031048
C   C7        1.0  0.29579  0.33166  0.56598  1.0000 -0.1802031048
C   C8        1.0  0.20421  0.83166  0.43402  1.0000 -0.1802031048
C   C9        1.0  0.76973  0.79254  0.49758  1.0000 0.1011739245
C   C10       1.0  0.73027  0.29254  0.50242  1.0000 0.1011739245
C   C11       1.0  0.23027  0.20746  0.50242  1.0000 0.1011739245
C   C12       1.0  0.26973  0.70746  0.49758  1.0000 0.1011739245
C   C13       1.0  0.27718  0.71033  0.00106  1.0000 0.1054317559
C   C14       1.0  0.22282  0.21033  0.99894  1.0000 0.1054317559
C   C15       1.0  0.72282  0.28967  0.99894  1.0000 0.1054317559
C   C16       1.0  0.77718  0.78967  0.00106  1.0000 0.1054317559
C   C17       1.0  0.86471  0.88745  0.56838  1.0000 0.0915224795
C   C18       1.0  0.63529  0.38745  0.43162  1.0000 0.0915224795
C   C19       1.0  0.13529  0.11255  0.43162  1.0000 0.0915224795
C   C20       1.0  0.36471  0.61255  0.56838  1.0000 0.0915224795
C   C21       1.0  0.21262  0.77830  0.00090  1.0000 0.1011739245
C   C22       1.0  0.28738  0.27830  0.99910  1.0000 0.1011739245
C   C23       1.0  0.78738  0.22170  0.99910  1.0000 0.1011739245
C   C24       1.0  0.71262  0.72170  0.00090  1.0000 0.1011739245
C   C25       1.0  0.64962  0.70973  0.56385  1.0000 -0.1802031048
C   C26       1.0  0.85038  0.20973  0.43615  1.0000 -0.1802031048
C   C27       1.0  0.35038  0.29027  0.43615  1.0000 -0.1802031048
C   C28       1.0  0.14962  0.79027  0.56385  1.0000 -0.1802031048
C   C29       1.0  0.64477  0.60406  0.43680  1.0000 0.1011739245
C   C30       1.0  0.85523  0.10406  0.56320  1.0000 0.1011739245
C   C31       1.0  0.35523  0.39594  0.56320  1.0000 0.1011739245
C   C32       1.0  0.14477  0.89594  0.43680  1.0000 0.1011739245
C   C33       1.0  0.18596  0.81536  0.92798  1.0000 -0.1802031048
C   C34       1.0  0.31404  0.31536  0.07202  1.0000 -0.1802031048
C   C35       1.0  0.81404  0.18464  0.07202  1.0000 -0.1802031048
C   C36       1.0  0.68596  0.68464  0.92798  1.0000 -0.1802031048
C   C37       1.0  0.28109  0.65430  0.06460  1.0000 -0.1802031048
C   C38       1.0  0.21891  0.15430  0.93540  1.0000 -0.1802031048
C   C39       1.0  0.71891  0.34570  0.93540  1.0000 -0.1802031048
C   C40       1.0  0.78109  0.84570  0.06460  1.0000 -0.1802031048
C   C41       1.0  0.80219  0.82568  0.57044  1.0000 -0.1802031048
C   C42       1.0  0.69781  0.32568  0.42956  1.0000 -0.1802031048
C   C43       1.0  0.19781  0.17432  0.42956  1.0000 -0.1802031048
C   C44       1.0  0.30219  0.67432  0.57044  1.0000 -0.1802031048
C   C45       1.0  0.59262  0.64358  0.56279  1.0000 0.1011739245
C   C46       1.0  0.90738  0.14358  0.43721  1.0000 0.1011739245
C   C47       1.0  0.40738  0.35642  0.43721  1.0000 0.1011739245
C   C48       1.0  0.09262  0.85642  0.56279  1.0000 0.1011739245
C   C49       1.0  0.12730  0.88003  0.93001  1.0000 0.0915224795
C   C50       1.0  0.37270  0.38003  0.06999  1.0000 0.0915224795
C   C51       1.0  0.87270  0.11997  0.06999  1.0000 0.0915224795
C   C52       1.0  0.62730  0.61997  0.93001  1.0000 0.0915224795
C   C53       1.0  0.33798  0.70121  0.93738  1.0000 -0.1802031048
C   C54       1.0  0.16202  0.20121  0.06262  1.0000 -0.1802031048
C   C55       1.0  0.66202  0.29879  0.06262  1.0000 -0.1749128475
C   C56       1.0  0.83798  0.79879  0.93738  1.0000 -0.1802031048
C   C57       1.0  0.86364  0.88814  0.42794  1.0000 0.1054317559
C   C58       1.0  0.63636  0.38814  0.57206  1.0000 0.1054317559
C   C59       1.0  0.13636  0.11186  0.57206  1.0000 0.1054317559
C   C60       1.0  0.36364  0.61186  0.42794  1.0000 0.1054317559
C   C61       1.0  0.80078  0.82615  0.42516  1.0000 -0.1802031048
C   C62       1.0  0.69922  0.32615  0.57484  1.0000 -0.1802031048
C   C63       1.0  0.19922  0.17385  0.57484  1.0000 -0.1802031048
C   C64       1.0  0.30078  0.67385  0.42516  1.0000 -0.1802031048
C   C65       1.0  0.17696  0.80833  0.07321  1.0000 -0.1802031048
C   C66       1.0  0.32304  0.30833  0.92679  1.0000 -0.1802031048
C   C67       1.0  0.82304  0.19167  0.92679  1.0000 -0.1802031048
C   C68       1.0  0.67696  0.69167  0.07321  1.0000 -0.1802031048
C   C69       1.0  0.11816  0.87337  0.07035  1.0000 0.1011739245
C   C70       1.0  0.38184  0.37337  0.92965  1.0000 0.1011739245
C   C71       1.0  0.88184  0.12663  0.92965  1.0000 0.1011739245
C   C72       1.0  0.61816  0.62663  0.07035  1.0000 0.1011739245
C   C73       1.0  0.34451  0.59319  0.06252  1.0000 0.1011739245
C   C74       1.0  0.15549  0.09319  0.93748  1.0000 0.1011739245
C   C75       1.0  0.65549  0.40681  0.93748  1.0000 0.1011739245
C   C76       1.0  0.84451  0.90681  0.06252  1.0000 0.1011739245
C   C77       1.0  0.39822  0.63763  0.93869  1.0000 0.1011739245
C   C78       1.0  0.10178  0.13763  0.06131  1.0000 0.1011739245
C   C79       1.0  0.60178  0.36237  0.06131  1.0000 0.1011739245
C   C80       1.0  0.89822  0.86237  0.93869  1.0000 0.1011739245
N   N1        1.0  0.40234  0.58457  0.00035  1.0000 -0.2120212353
N   N2        1.0  0.09766  0.08457  0.99965  1.0000 -0.2120212353
N   N3        1.0  0.59766  0.41543  0.99965  1.0000 -0.2120212353
N   N4        1.0  0.90234  0.91543  0.00035  1.0000 -0.2120212353
N   N5        1.0  0.09365  0.90933  0.00003  1.0000 -0.2179258707
N   N6        1.0  0.40635  0.40933  0.99997  1.0000 -0.2179258707
N   N7        1.0  0.90635  0.09067  0.99997  1.0000 -0.2179258707
N   N8        1.0  0.59365  0.59067  0.00003  1.0000 -0.2179258707
N   N9        1.0  0.89658  0.91794  0.49843  1.0000 -0.2179258707
N   N10       1.0  0.60342  0.41794  0.50157  1.0000 -0.2179258707
N   N11       1.0  0.10342  0.08206  0.50157  1.0000 -0.2179258707
N   N12       1.0  0.39658  0.58206  0.49843  1.0000 -0.2179258707
N   N13       1.0  0.58939  0.59166  0.49991  1.0000 -0.2120212353
N   N14       1.0  0.91061  0.09166  0.50009  1.0000 -0.2120212353
N   N15       1.0  0.41061  0.40834  0.50009  1.0000 -0.2120212353
N   N16       1.0  0.08939  0.90834  0.49991  1.0000 -0.2120212353
F   F1        1.0  0.49843  0.49851  0.85608  1.0000 -0.5595940276
F   F2        1.0  0.00157  0.99851  0.14392  1.0000 -0.5595940276
F   F3        1.0  0.50157  0.50149  0.14392  1.0000 -0.5595940276
F   F4        1.0  0.99843  0.00149  0.85608  1.0000 -0.5595940276
F   F5        1.0  0.50295  0.50128  0.64712  1.0000 -0.567549241
F   F6        1.0  0.99705  0.00128  0.35288  1.0000 -0.567549241
F   F7        1.0  0.49705  0.49872  0.35288  1.0000 -0.567549241
F   F8        1.0  0.00295  0.99872  0.64712  1.0000 -0.567549241
F   F9        1.0  0.38745  0.50783  0.74786  1.0000 -0.567549241
F   F10       1.0  0.11255  0.00783  0.25214  1.0000 -0.567549241
F   F11       1.0  0.61255  0.49217  0.25214  1.0000 -0.567549241
F   F12       1.0  0.88745  0.99217  0.74786  1.0000 -0.567549241
F   F13       1.0  0.49143  0.39901  0.74999  1.0000 -0.5595940276
F   F14       1.0  0.00857  0.89901  0.25001  1.0000 -0.5595940276
F   F15       1.0  0.50857  0.60099  0.25001  1.0000 -0.5595940276
F   F16       1.0  0.99143  0.10099  0.74999  1.0000 -0.5595940276
F   F17       1.0  0.61372  0.48932  0.75530  1.0000 -0.5595940276
F   F18       1.0  0.88628  0.98932  0.24470  1.0000 -0.5595940276
F   F19       1.0  0.38628  0.51068  0.24470  1.0000 -0.5595940276
F   F20       1.0  0.11372  0.01068  0.75530  1.0000 -0.5595940276
F   F21       1.0  0.51151  0.59914  0.75425  1.0000 -0.567549241
F   F22       1.0  0.98849  0.09914  0.24575  1.0000 -0.567549241
F   F23       1.0  0.48849  0.40086  0.24575  1.0000 -0.567549241
F   F24       1.0  0.01151  0.90086  0.75425  1.0000 -0.567549241
