# DDEC6 charges by PACMAN v1.1 (https://github.com/mtap-research/PACMAN-charge/)
data_2016[Zn][pcu]3[ASR]6
_chemical_formula_sum              "Zn8 H140 C204 N28 O32"
_cell_length_a       15.1795
_cell_length_b       15.1795
_cell_length_c       37.614
_cell_angle_alpha    86.6166
_cell_angle_beta     93.3834
_cell_angle_gamma    105.07

_symmetry_space_group_name_H-M    "P 1"
_symmetry_Int_Tables_number       1

loop_
  _symmetry_equiv_pos_as_xyz
  'x, y, z'

loop_
  _atom_site_type_symbol
  _atom_site_label
  _atom_site_symmetry_multiplicity
  _atom_site_fract_x
  _atom_site_fract_y
  _atom_site_fract_z
  _atom_site_occupancy
  _atom_site_charge
Zn  Zn1       1.0  0.23331  0.03069  0.17627  1.0000 0.8271502486
Zn  Zn2       1.0  0.96931  0.76669  0.67627  1.0000 0.8271502486
Zn  Zn3       1.0  0.22318  0.03976  0.09736  1.0000 0.8474394759
Zn  Zn4       1.0  0.96024  0.77682  0.59736  1.0000 0.8474394759
Zn  Zn5       1.0  0.03069  0.23331  0.32373  1.0000 0.8271502486
Zn  Zn6       1.0  0.76669  0.96931  0.82373  1.0000 0.8271502486
Zn  Zn7       1.0  0.03976  0.22318  0.40264  1.0000 0.8474394759
Zn  Zn8       1.0  0.77682  0.96024  0.90264  1.0000 0.8474394759
H   H1        1.0  0.95700  0.08300  0.09140  1.0000 0.1124115242
H   H2        1.0  0.91700  0.04300  0.59140  1.0000 0.1124115242
H   H3        1.0  0.16360  0.74220  0.08520  1.0000 0.1193556294
H   H4        1.0  0.25780  0.83640  0.58520  1.0000 0.1193556294
H   H5        1.0  0.27020  0.75900  0.18500  1.0000 0.1299904705
H   H6        1.0  0.24100  0.72980  0.68500  1.0000 0.1299904705
H   H7        1.0  0.11260  0.96860  0.97080  1.0000 0.1193556294
H   H8        1.0  0.03140  0.88740  0.47080  1.0000 0.1193556294
H   H9        1.0  0.28010  0.61010  0.18500  1.0000 0.1193556294
H   H10       1.0  0.38990  0.71990  0.68500  1.0000 0.1193556294
H   H11       1.0  0.16920  0.91320  0.02790  1.0000 0.1386696529
H   H12       1.0  0.08680  0.83080  0.52790  1.0000 0.1386696529
H   H13       1.0  0.02000  0.05920  0.94140  1.0000 0.1193556294
H   H14       1.0  0.94080  0.98000  0.44140  1.0000 0.1193556294
H   H15       1.0  0.98290  0.15810  0.89700  1.0000 0.1193556294
H   H16       1.0  0.84190  0.01710  0.39700  1.0000 0.1193556294
H   H17       1.0  0.17100  0.59200  0.08480  1.0000 0.1193556294
H   H18       1.0  0.40800  0.82900  0.58480  1.0000 0.1193556294
H   H19       1.0  0.80740  0.09480  0.09040  1.0000 0.1124115242
H   H20       1.0  0.90520  0.19260  0.59040  1.0000 0.1124115242
H   H21       1.0  0.50500  0.03820  0.08460  1.0000 0.1299904705
H   H22       1.0  0.96180  0.49500  0.58460  1.0000 0.1299904705
H   H23       1.0  0.25740  0.33400  0.08170  1.0000 0.1193556294
H   H24       1.0  0.66600  0.74260  0.58170  1.0000 0.1193556294
H   H25       1.0  0.19000  0.17420  0.03510  1.0000 0.1193556294
H   H26       1.0  0.82580  0.81000  0.53510  1.0000 0.1193556294
H   H27       1.0  0.99950  0.71170  0.90360  1.0000 0.1193556294
H   H28       1.0  0.28830  0.00050  0.40360  1.0000 0.1193556294
H   H29       1.0  0.22890  0.31050  0.18740  1.0000 0.1193556294
H   H30       1.0  0.68950  0.77110  0.68740  1.0000 0.1193556294
H   H31       1.0  0.25150  0.48430  0.08140  1.0000 0.1193556294
H   H32       1.0  0.51570  0.74850  0.58140  1.0000 0.1193556294
H   H33       1.0  0.98110  0.64090  0.74910  1.0000 0.1299904705
H   H34       1.0  0.35910  0.01890  0.24910  1.0000 0.1299904705
H   H35       1.0  0.00820  0.56060  0.80080  1.0000 0.1386696529
H   H36       1.0  0.43940  0.99180  0.30080  1.0000 0.1386696529
H   H37       1.0  0.92950  0.95970  0.18890  1.0000 0.1193556294
H   H38       1.0  0.04030  0.07050  0.68890  1.0000 0.1193556294
H   H39       1.0  0.65360  0.02780  0.08540  1.0000 0.1193556294
H   H40       1.0  0.97220  0.34640  0.58540  1.0000 0.1193556294
H   H41       1.0  0.20750  0.26910  0.98330  1.0000 0.1193556294
H   H42       1.0  0.73090  0.79250  0.48330  1.0000 0.1193556294
H   H43       1.0  0.16520  0.36700  0.94020  1.0000 0.1299904705
H   H44       1.0  0.63300  0.83480  0.44020  1.0000 0.1299904705
H   H45       1.0  0.99090  0.78330  0.84940  1.0000 0.1193556294
H   H46       1.0  0.21670  0.00910  0.34940  1.0000 0.1193556294
H   H47       1.0  0.77960  0.96940  0.18820  1.0000 0.1193556294
H   H48       1.0  0.03060  0.22040  0.68820  1.0000 0.1193556294
H   H49       1.0  0.21870  0.45790  0.18730  1.0000 0.1124115242
H   H50       1.0  0.54210  0.78130  0.68730  1.0000 0.1124115242
H   H51       1.0  0.67550  0.05850  0.19110  1.0000 0.1193556294
H   H52       1.0  0.94150  0.32450  0.69110  1.0000 0.1193556294
H   H53       1.0  0.01710  0.57010  0.90660  1.0000 0.1299904705
H   H54       1.0  0.42990  0.98290  0.40660  1.0000 0.1299904705
H   H55       1.0  0.52700  0.06960  0.19010  1.0000 0.1193556294
H   H56       1.0  0.93040  0.47300  0.69010  1.0000 0.1193556294
H   H57       1.0  0.03910  0.90250  0.73670  1.0000 0.1299904705
H   H58       1.0  0.09750  0.96090  0.23670  1.0000 0.1299904705
H   H59       1.0  0.06410  0.86430  0.80040  1.0000 0.1124115242
H   H60       1.0  0.13570  0.93590  0.30040  1.0000 0.1124115242
H   H61       1.0  0.95620  0.20100  0.83040  1.0000 0.15025493
H   H62       1.0  0.79900  0.04380  0.33040  1.0000 0.15025493
H   H63       1.0  0.03910  0.25530  0.80830  1.0000 0.15025493
H   H64       1.0  0.74470  0.96090  0.30830  1.0000 0.15025493
H   H65       1.0  0.05610  0.20150  0.84380  1.0000 0.1299904705
H   H66       1.0  0.79850  0.94390  0.34380  1.0000 0.1299904705
H   H67       1.0  0.90450  0.86230  0.73610  1.0000 0.1124115242
H   H68       1.0  0.13770  0.09550  0.23610  1.0000 0.1124115242
H   H69       1.0  0.90380  0.82020  0.80000  1.0000 0.1124115242
H   H70       1.0  0.17980  0.09620  0.30000  1.0000 0.1124115242
H   H71       1.0  0.08300  0.95700  0.40860  1.0000 0.1124115242
H   H72       1.0  0.04300  0.91700  0.90860  1.0000 0.1124115242
H   H73       1.0  0.74220  0.16360  0.41480  1.0000 0.1193556294
H   H74       1.0  0.83640  0.25780  0.91480  1.0000 0.1193556294
H   H75       1.0  0.75900  0.27020  0.31500  1.0000 0.1299904705
H   H76       1.0  0.72980  0.24100  0.81500  1.0000 0.1299904705
H   H77       1.0  0.96860  0.11260  0.52920  1.0000 0.1193556294
H   H78       1.0  0.88740  0.03140  0.02920  1.0000 0.1193556294
H   H79       1.0  0.61010  0.28010  0.31500  1.0000 0.1193556294
H   H80       1.0  0.71990  0.38990  0.81500  1.0000 0.1193556294
H   H81       1.0  0.91320  0.16920  0.47210  1.0000 0.1386696529
H   H82       1.0  0.83080  0.08680  0.97210  1.0000 0.1386696529
H   H83       1.0  0.05920  0.02000  0.55860  1.0000 0.1193556294
H   H84       1.0  0.98000  0.94080  0.05860  1.0000 0.1193556294
H   H85       1.0  0.15810  0.98290  0.60300  1.0000 0.1193556294
H   H86       1.0  0.01710  0.84190  0.10300  1.0000 0.1193556294
H   H87       1.0  0.59200  0.17100  0.41520  1.0000 0.1193556294
H   H88       1.0  0.82900  0.40800  0.91520  1.0000 0.1193556294
H   H89       1.0  0.09480  0.80740  0.40960  1.0000 0.1124115242
H   H90       1.0  0.19260  0.90520  0.90960  1.0000 0.1124115242
H   H91       1.0  0.03820  0.50500  0.41540  1.0000 0.1299904705
H   H92       1.0  0.49500  0.96180  0.91540  1.0000 0.1299904705
H   H93       1.0  0.33400  0.25740  0.41830  1.0000 0.1193556294
H   H94       1.0  0.74260  0.66600  0.91830  1.0000 0.1193556294
H   H95       1.0  0.17420  0.19000  0.46490  1.0000 0.1193556294
H   H96       1.0  0.81000  0.82580  0.96490  1.0000 0.1193556294
H   H97       1.0  0.71170  0.99950  0.59640  1.0000 0.1193556294
H   H98       1.0  0.00050  0.28830  0.09640  1.0000 0.1193556294
H   H99       1.0  0.31050  0.22890  0.31260  1.0000 0.1193556294
H   H100      1.0  0.77110  0.68950  0.81260  1.0000 0.1193556294
H   H101      1.0  0.48430  0.25150  0.41860  1.0000 0.1193556294
H   H102      1.0  0.74850  0.51570  0.91860  1.0000 0.1193556294
H   H103      1.0  0.64090  0.98110  0.75090  1.0000 0.1299904705
H   H104      1.0  0.01890  0.35910  0.25090  1.0000 0.1299904705
H   H105      1.0  0.56060  0.00820  0.69920  1.0000 0.1386696529
H   H106      1.0  0.99180  0.43940  0.19920  1.0000 0.1386696529
H   H107      1.0  0.95970  0.92950  0.31110  1.0000 0.1193556294
H   H108      1.0  0.07050  0.04030  0.81110  1.0000 0.1193556294
H   H109      1.0  0.02780  0.65360  0.41460  1.0000 0.1193556294
H   H110      1.0  0.34640  0.97220  0.91460  1.0000 0.1193556294
H   H111      1.0  0.26910  0.20750  0.51670  1.0000 0.1299904705
H   H112      1.0  0.79250  0.73090  0.01670  1.0000 0.1299904705
H   H113      1.0  0.36700  0.16520  0.55980  1.0000 0.1299904705
H   H114      1.0  0.83480  0.63300  0.05980  1.0000 0.1299904705
H   H115      1.0  0.78330  0.99090  0.65060  1.0000 0.1193556294
H   H116      1.0  0.00910  0.21670  0.15060  1.0000 0.1193556294
H   H117      1.0  0.96940  0.77960  0.31180  1.0000 0.1193556294
H   H118      1.0  0.22040  0.03060  0.81180  1.0000 0.1193556294
H   H119      1.0  0.45790  0.21870  0.31270  1.0000 0.1124115242
H   H120      1.0  0.78130  0.54210  0.81270  1.0000 0.1124115242
H   H121      1.0  0.05850  0.67550  0.30890  1.0000 0.1193556294
H   H122      1.0  0.32450  0.94150  0.80890  1.0000 0.1193556294
H   H123      1.0  0.57010  0.01710  0.59340  1.0000 0.1299904705
H   H124      1.0  0.98290  0.42990  0.09340  1.0000 0.1299904705
H   H125      1.0  0.06960  0.52700  0.30990  1.0000 0.1193556294
H   H126      1.0  0.47300  0.93040  0.80990  1.0000 0.1193556294
H   H127      1.0  0.90250  0.03910  0.76330  1.0000 0.1299904705
H   H128      1.0  0.96090  0.09750  0.26330  1.0000 0.1299904705
H   H129      1.0  0.86430  0.06410  0.69960  1.0000 0.1124115242
H   H130      1.0  0.93590  0.13570  0.19960  1.0000 0.1124115242
H   H131      1.0  0.20100  0.95620  0.66960  1.0000 0.15025493
H   H132      1.0  0.04380  0.79900  0.16960  1.0000 0.15025493
H   H133      1.0  0.25530  0.03910  0.69170  1.0000 0.15025493
H   H134      1.0  0.96090  0.74470  0.19170  1.0000 0.15025493
H   H135      1.0  0.20150  0.05610  0.65620  1.0000 0.1299904705
H   H136      1.0  0.94390  0.79850  0.15620  1.0000 0.1299904705
H   H137      1.0  0.86230  0.90450  0.76390  1.0000 0.1124115242
H   H138      1.0  0.09550  0.13770  0.26390  1.0000 0.1124115242
H   H139      1.0  0.82020  0.90380  0.70000  1.0000 0.1124115242
H   H140      1.0  0.09620  0.17980  0.20000  1.0000 0.1124115242
C   C1        1.0  0.92124  0.06056  0.11083  1.0000 -0.1211798272
C   C2        1.0  0.93944  0.07876  0.61083  1.0000 -0.1211798272
C   C3        1.0  0.21665  0.76575  0.13475  1.0000 -0.0313525465
C   C4        1.0  0.23425  0.78335  0.63475  1.0000 -0.0313525465
C   C5        1.0  0.05636  0.01770  0.14039  1.0000 0.5608704618
C   C6        1.0  0.98230  0.94364  0.64039  1.0000 0.5608704618
C   C7        1.0  0.95773  0.02047  0.14023  1.0000 -0.0313525465
C   C8        1.0  0.97953  0.04227  0.64023  1.0000 -0.0313525465
C   C9        1.0  0.18702  0.71558  0.10527  1.0000 -0.0930986324
C   C10       1.0  0.28442  0.81298  0.60527  1.0000 -0.0930986324
C   C11       1.0  0.21474  0.86412  0.13494  1.0000 0.5744516185
C   C12       1.0  0.13588  0.78526  0.63494  1.0000 0.5744516185
C   C13       1.0  0.25086  0.72534  0.16476  1.0000 -0.0998592456
C   C14       1.0  0.27466  0.74914  0.66476  1.0000 -0.0998592456
C   C15       1.0  0.22689  0.58351  0.13449  1.0000 0.0671792912
C   C16       1.0  0.41649  0.77311  0.63449  1.0000 0.0671792912
C   C17       1.0  0.40058  0.05462  0.13685  1.0000 0.578639262
C   C18       1.0  0.94538  0.59942  0.63685  1.0000 0.578639262
C   C19       1.0  0.11798  0.15562  0.96638  1.0000 0.15025493
C   C20       1.0  0.84438  0.88202  0.46638  1.0000 0.15025493
C   C21       1.0  0.24263  0.20737  0.13431  1.0000 0.578639262
C   C22       1.0  0.79263  0.75737  0.63431  1.0000 0.578639262
C   C23       1.0  0.04884  0.33716  0.88631  1.0000 0.2076007767
C   C24       1.0  0.66284  0.95116  0.38631  1.0000 0.2076007767
C   C25       1.0  0.13522  0.00318  0.99052  1.0000 -0.1211798272
C   C26       1.0  0.99682  0.86478  0.49052  1.0000 -0.1211798272
C   C27       1.0  0.25661  0.63599  0.16485  1.0000 -0.1517790863
C   C28       1.0  0.36401  0.74339  0.66485  1.0000 -0.1517790863
C   C29       1.0  0.16681  0.97299  0.02219  1.0000 -0.0313525465
C   C30       1.0  0.02701  0.83319  0.52219  1.0000 -0.0313525465
C   C31       1.0  0.99750  0.67790  0.81994  1.0000 0.1386696529
C   C32       1.0  0.32210  0.00250  0.31994  1.0000 0.1386696529
C   C33       1.0  0.49968  0.05372  0.13703  1.0000 -0.0313525465
C   C34       1.0  0.94628  0.50032  0.63703  1.0000 -0.0313525465
C   C35       1.0  0.05017  0.12103  0.94085  1.0000 -0.1784705588
C   C36       1.0  0.87897  0.94983  0.44085  1.0000 -0.1784705588
C   C37       1.0  0.07123  0.27077  0.91318  1.0000 0.023453748
C   C38       1.0  0.72923  0.92877  0.41318  1.0000 0.023453748
C   C39       1.0  0.23350  0.48770  0.13470  1.0000 0.0804257026
C   C40       1.0  0.51230  0.76650  0.63470  1.0000 0.0804257026
C   C41       1.0  0.02818  0.18062  0.91433  1.0000 -0.0998592456
C   C42       1.0  0.81938  0.97182  0.41433  1.0000 -0.0998592456
C   C43       1.0  0.19182  0.62518  0.10505  1.0000 -0.1517790863
C   C44       1.0  0.37482  0.80818  0.60505  1.0000 -0.1517790863
C   C45       1.0  0.83123  0.06757  0.11013  1.0000 -0.1683129886
C   C46       1.0  0.93243  0.16877  0.61013  1.0000 -0.1683129886
C   C47       1.0  0.24239  0.30541  0.13441  1.0000 -0.0411463709
C   C48       1.0  0.69459  0.75761  0.63441  1.0000 -0.0411463709
C   C49       1.0  0.53910  0.04190  0.10607  1.0000 -0.0930986324
C   C50       1.0  0.95810  0.46090  0.60607  1.0000 -0.0930986324
C   C51       1.0  0.02489  0.45531  0.85992  1.0000 0.2432370713
C   C52       1.0  0.54469  0.97511  0.35992  1.0000 0.2432370713
C   C53       1.0  0.77700  0.03360  0.13898  1.0000 0.0804257026
C   C54       1.0  0.96640  0.22300  0.63898  1.0000 0.0804257026
C   C55       1.0  0.24972  0.35908  0.10292  1.0000 -0.0998592456
C   C56       1.0  0.64092  0.75028  0.60292  1.0000 -0.0998592456
C   C57       1.0  0.68082  0.04058  0.13852  1.0000 0.0612680806
C   C58       1.0  0.95942  0.31918  0.63852  1.0000 0.0612680806
C   C59       1.0  0.17835  0.11605  0.02621  1.0000 0.0804257026
C   C60       1.0  0.88395  0.82165  0.52621  1.0000 0.0804257026
C   C61       1.0  0.00200  0.68220  0.88288  1.0000 -0.0492091825
C   C62       1.0  0.31780  0.99800  0.38288  1.0000 -0.0492091825
C   C63       1.0  0.23213  0.34487  0.16605  1.0000 -0.0930986324
C   C64       1.0  0.65513  0.76787  0.66605  1.0000 -0.0930986324
C   C65       1.0  0.24590  0.44910  0.10265  1.0000 -0.1592188527
C   C66       1.0  0.55090  0.75410  0.60265  1.0000 -0.1592188527
C   C67       1.0  0.98208  0.70032  0.75431  1.0000 -0.0084608936
C   C68       1.0  0.29968  0.01792  0.25431  1.0000 -0.0084608936
C   C69       1.0  0.00676  0.59064  0.82157  1.0000 -0.2063163774
C   C70       1.0  0.40936  0.99324  0.32157  1.0000 -0.2063163774
C   C71       1.0  0.01410  0.54810  0.85455  1.0000 0.0671792912
C   C72       1.0  0.45190  0.98590  0.35455  1.0000 0.0671792912
C   C73       1.0  0.90488  0.98652  0.16917  1.0000 -0.1211798272
C   C74       1.0  0.01348  0.09512  0.66917  1.0000 -0.1211798272
C   C75       1.0  0.62830  0.03550  0.10650  1.0000 -0.1517790863
C   C76       1.0  0.96450  0.37170  0.60650  1.0000 -0.1517790863
C   C77       1.0  0.16190  0.24670  0.96614  1.0000 -0.1961080426
C   C78       1.0  0.75330  0.83810  0.46614  1.0000 -0.1961080426
C   C79       1.0  0.13750  0.30470  0.94000  1.0000 -0.0998592456
C   C80       1.0  0.69530  0.86250  0.44000  1.0000 -0.0998592456
C   C81       1.0  0.99600  0.72340  0.85104  1.0000 -0.1961080426
C   C82       1.0  0.27660  0.00400  0.35104  1.0000 -0.1961080426
C   C83       1.0  0.81507  0.99253  0.16874  1.0000 -0.1683129886
C   C84       1.0  0.00747  0.18493  0.66874  1.0000 -0.1683129886
C   C85       1.0  0.22687  0.43353  0.16598  1.0000 -0.1517790863
C   C86       1.0  0.56647  0.77313  0.66598  1.0000 -0.1517790863
C   C87       1.0  0.64140  0.05400  0.16964  1.0000 -0.1592188527
C   C88       1.0  0.94600  0.35860  0.66964  1.0000 -0.1592188527
C   C89       1.0  0.01160  0.59820  0.88420  1.0000 -0.1517790863
C   C90       1.0  0.40180  0.98840  0.38420  1.0000 -0.1517790863
C   C91       1.0  0.55220  0.06060  0.16913  1.0000 -0.0998592456
C   C92       1.0  0.93940  0.44780  0.66913  1.0000 -0.0998592456
C   C93       1.0  0.02130  0.84450  0.74770  1.0000 -0.0313525465
C   C94       1.0  0.15550  0.97870  0.24770  1.0000 -0.0313525465
C   C95       1.0  0.03400  0.82500  0.78290  1.0000 -0.0601060441
C   C96       1.0  0.17500  0.96600  0.28290  1.0000 -0.0601060441
C   C97       1.0  0.01830  0.23710  0.83187  1.0000 -0.3537807831
C   C98       1.0  0.76290  0.98170  0.33187  1.0000 -0.3537807831
C   C99       1.0  0.93070  0.81850  0.74740  1.0000 -0.0492091825
C   C100      1.0  0.18150  0.06930  0.24740  1.0000 -0.0492091825
C   C101      1.0  0.93160  0.79780  0.78240  1.0000 -0.0601060441
C   C102      1.0  0.20220  0.06840  0.28240  1.0000 -0.0601060441
C   C103      1.0  0.06056  0.92124  0.38917  1.0000 -0.1211798272
C   C104      1.0  0.07876  0.93944  0.88917  1.0000 -0.1211798272
C   C105      1.0  0.76575  0.21665  0.36525  1.0000 -0.0313525465
C   C106      1.0  0.78335  0.23425  0.86525  1.0000 -0.0313525465
C   C107      1.0  0.01770  0.05636  0.35961  1.0000 0.5608704618
C   C108      1.0  0.94364  0.98230  0.85961  1.0000 0.5608704618
C   C109      1.0  0.02047  0.95773  0.35977  1.0000 -0.0313525465
C   C110      1.0  0.04227  0.97953  0.85977  1.0000 -0.0313525465
C   C111      1.0  0.71558  0.18702  0.39473  1.0000 -0.0930986324
C   C112      1.0  0.81298  0.28442  0.89473  1.0000 -0.0930986324
C   C113      1.0  0.86412  0.21474  0.36506  1.0000 0.5744516185
C   C114      1.0  0.78526  0.13588  0.86506  1.0000 0.5744516185
C   C115      1.0  0.72534  0.25086  0.33524  1.0000 -0.0998592456
C   C116      1.0  0.74914  0.27466  0.83524  1.0000 -0.0998592456
C   C117      1.0  0.58351  0.22689  0.36551  1.0000 0.0671792912
C   C118      1.0  0.77311  0.41649  0.86551  1.0000 0.0671792912
C   C119      1.0  0.05462  0.40058  0.36315  1.0000 0.578639262
C   C120      1.0  0.59942  0.94538  0.86315  1.0000 0.578639262
C   C121      1.0  0.15562  0.11798  0.53362  1.0000 0.15025493
C   C122      1.0  0.88202  0.84438  0.03362  1.0000 0.15025493
C   C123      1.0  0.20737  0.24263  0.36569  1.0000 0.578639262
C   C124      1.0  0.75737  0.79263  0.86569  1.0000 0.578639262
C   C125      1.0  0.33716  0.04884  0.61369  1.0000 0.2076007767
C   C126      1.0  0.95116  0.66284  0.11369  1.0000 0.2076007767
C   C127      1.0  0.00318  0.13522  0.50948  1.0000 -0.1211798272
C   C128      1.0  0.86478  0.99682  0.00948  1.0000 -0.1211798272
C   C129      1.0  0.63599  0.25661  0.33515  1.0000 -0.1517790863
C   C130      1.0  0.74339  0.36401  0.83515  1.0000 -0.1517790863
C   C131      1.0  0.97299  0.16681  0.47781  1.0000 -0.0313525465
C   C132      1.0  0.83319  0.02701  0.97781  1.0000 -0.0313525465
C   C133      1.0  0.67790  0.99750  0.68006  1.0000 0.1386696529
C   C134      1.0  0.00250  0.32210  0.18006  1.0000 0.1386696529
C   C135      1.0  0.05372  0.49968  0.36297  1.0000 -0.0313525465
C   C136      1.0  0.50032  0.94628  0.86297  1.0000 -0.0313525465
C   C137      1.0  0.12103  0.05017  0.55915  1.0000 -0.1784705588
C   C138      1.0  0.94983  0.87897  0.05915  1.0000 -0.1784705588
C   C139      1.0  0.27077  0.07123  0.58682  1.0000 0.023453748
C   C140      1.0  0.92877  0.72923  0.08682  1.0000 0.023453748
C   C141      1.0  0.48770  0.23350  0.36530  1.0000 0.0804257026
C   C142      1.0  0.76650  0.51230  0.86530  1.0000 0.0804257026
C   C143      1.0  0.18062  0.02818  0.58567  1.0000 -0.0998592456
C   C144      1.0  0.97182  0.81938  0.08567  1.0000 -0.0998592456
C   C145      1.0  0.62518  0.19182  0.39495  1.0000 -0.1517790863
C   C146      1.0  0.80818  0.37482  0.89495  1.0000 -0.1517790863
C   C147      1.0  0.06757  0.83123  0.38987  1.0000 -0.1683129886
C   C148      1.0  0.16877  0.93243  0.88987  1.0000 -0.1683129886
C   C149      1.0  0.30541  0.24239  0.36559  1.0000 -0.0411463709
C   C150      1.0  0.75761  0.69459  0.86559  1.0000 -0.0411463709
C   C151      1.0  0.04190  0.53910  0.39393  1.0000 -0.0930986324
C   C152      1.0  0.46090  0.95810  0.89393  1.0000 -0.0930986324
C   C153      1.0  0.45531  0.02489  0.64008  1.0000 0.2432370713
C   C154      1.0  0.97511  0.54469  0.14008  1.0000 0.2432370713
C   C155      1.0  0.03360  0.77700  0.36102  1.0000 0.0804257026
C   C156      1.0  0.22300  0.96640  0.86102  1.0000 0.0804257026
C   C157      1.0  0.35908  0.24972  0.39708  1.0000 -0.0998592456
C   C158      1.0  0.75028  0.64092  0.89708  1.0000 -0.0998592456
C   C159      1.0  0.04058  0.68082  0.36148  1.0000 0.0612680806
C   C160      1.0  0.31918  0.95942  0.86148  1.0000 0.0612680806
C   C161      1.0  0.11605  0.17835  0.47379  1.0000 0.0804257026
C   C162      1.0  0.82165  0.88395  0.97379  1.0000 0.0804257026
C   C163      1.0  0.68220  0.00200  0.61712  1.0000 -0.0492091825
C   C164      1.0  0.99800  0.31780  0.11712  1.0000 -0.0492091825
C   C165      1.0  0.34487  0.23213  0.33395  1.0000 -0.0930986324
C   C166      1.0  0.76787  0.65513  0.83395  1.0000 -0.0930986324
C   C167      1.0  0.44910  0.24590  0.39735  1.0000 -0.1592188527
C   C168      1.0  0.75410  0.55090  0.89735  1.0000 -0.1592188527
C   C169      1.0  0.70032  0.98208  0.74569  1.0000 -0.0084608936
C   C170      1.0  0.01792  0.29968  0.24569  1.0000 -0.0084608936
C   C171      1.0  0.59064  0.00676  0.67843  1.0000 -0.2063163774
C   C172      1.0  0.99324  0.40936  0.17843  1.0000 -0.2063163774
C   C173      1.0  0.54810  0.01410  0.64545  1.0000 0.0671792912
C   C174      1.0  0.98590  0.45190  0.14545  1.0000 0.0671792912
C   C175      1.0  0.98652  0.90488  0.33083  1.0000 -0.1211798272
C   C176      1.0  0.09512  0.01348  0.83083  1.0000 -0.1211798272
C   C177      1.0  0.03550  0.62830  0.39350  1.0000 -0.1517790863
C   C178      1.0  0.37170  0.96450  0.89350  1.0000 -0.1517790863
C   C179      1.0  0.24670  0.16190  0.53386  1.0000 -0.1961080426
C   C180      1.0  0.83810  0.75330  0.03386  1.0000 -0.1961080426
C   C181      1.0  0.30470  0.13750  0.56000  1.0000 -0.0998592456
C   C182      1.0  0.86250  0.69530  0.06000  1.0000 -0.0998592456
C   C183      1.0  0.72340  0.99600  0.64896  1.0000 -0.1961080426
C   C184      1.0  0.00400  0.27660  0.14896  1.0000 -0.1961080426
C   C185      1.0  0.99253  0.81507  0.33126  1.0000 -0.1683129886
C   C186      1.0  0.18493  0.00747  0.83126  1.0000 -0.1683129886
C   C187      1.0  0.43353  0.22687  0.33402  1.0000 -0.1517790863
C   C188      1.0  0.77313  0.56647  0.83402  1.0000 -0.1517790863
C   C189      1.0  0.05400  0.64140  0.33036  1.0000 -0.1592188527
C   C190      1.0  0.35860  0.94600  0.83036  1.0000 -0.1592188527
C   C191      1.0  0.59820  0.01160  0.61580  1.0000 -0.1517790863
C   C192      1.0  0.98840  0.40180  0.11580  1.0000 -0.1517790863
C   C193      1.0  0.06060  0.55220  0.33087  1.0000 -0.0998592456
C   C194      1.0  0.44780  0.93940  0.83087  1.0000 -0.0998592456
C   C195      1.0  0.84450  0.02130  0.75230  1.0000 -0.0313525465
C   C196      1.0  0.97870  0.15550  0.25230  1.0000 -0.0313525465
C   C197      1.0  0.82500  0.03400  0.71710  1.0000 -0.0601060441
C   C198      1.0  0.96600  0.17500  0.21710  1.0000 -0.0601060441
C   C199      1.0  0.23710  0.01830  0.66813  1.0000 -0.3537807831
C   C200      1.0  0.98170  0.76290  0.16813  1.0000 -0.3537807831
C   C201      1.0  0.81850  0.93070  0.75260  1.0000 -0.0492091825
C   C202      1.0  0.06930  0.18150  0.25260  1.0000 -0.0492091825
C   C203      1.0  0.79780  0.93160  0.71760  1.0000 -0.0601060441
C   C204      1.0  0.06840  0.20220  0.21760  1.0000 -0.0601060441
N   N1        1.0  0.97626  0.76266  0.72981  1.0000 -0.1961080426
N   N2        1.0  0.23734  0.02374  0.22981  1.0000 -0.1934560904
N   N3        1.0  0.14304  0.09466  0.99320  1.0000 0.0125210473
N   N4        1.0  0.90534  0.85696  0.49320  1.0000 0.0125210473
N   N5        1.0  0.19463  0.04431  0.04454  1.0000 -0.2578445593
N   N6        1.0  0.95569  0.80537  0.54454  1.0000 -0.2578445593
N   N7        1.0  0.02391  0.31849  0.85194  1.0000 0.15025493
N   N8        1.0  0.68151  0.97609  0.35194  1.0000 0.15025493
N   N9        1.0  0.00820  0.39480  0.83492  1.0000 -0.3241997728
N   N10       1.0  0.60520  0.99180  0.33492  1.0000 -0.3241997728
N   N11       1.0  0.04978  0.42182  0.89240  1.0000 -0.4292776132
N   N12       1.0  0.57818  0.95022  0.39240  1.0000 -0.4292776132
N   N13       1.0  0.98965  0.72795  0.78694  1.0000 0.0316940403
N   N14       1.0  0.27205  0.01035  0.28694  1.0000 0.0316940403
N   N15       1.0  0.76266  0.97626  0.77019  1.0000 -0.1961080426
N   N16       1.0  0.02374  0.23734  0.27019  1.0000 -0.1934560904
N   N17       1.0  0.09466  0.14304  0.50680  1.0000 0.0125210473
N   N18       1.0  0.85696  0.90534  0.00680  1.0000 0.0125210473
N   N19       1.0  0.04431  0.19463  0.45546  1.0000 -0.2578445593
N   N20       1.0  0.80537  0.95569  0.95546  1.0000 -0.2578445593
N   N21       1.0  0.31849  0.02391  0.64806  1.0000 0.15025493
N   N22       1.0  0.97609  0.68151  0.14806  1.0000 0.15025493
N   N23       1.0  0.39480  0.00820  0.66508  1.0000 -0.3241997728
N   N24       1.0  0.99180  0.60520  0.16508  1.0000 -0.3253264198
N   N25       1.0  0.42182  0.04978  0.60760  1.0000 -0.4292776132
N   N26       1.0  0.95022  0.57818  0.10760  1.0000 -0.4292776132
N   N27       1.0  0.72795  0.98965  0.71306  1.0000 0.0316940403
N   N28       1.0  0.01035  0.27205  0.21306  1.0000 0.0316940403
O   O1        1.0  0.19649  0.90171  0.10581  1.0000 -0.5333939412
O   O2        1.0  0.09829  0.80351  0.60581  1.0000 -0.5333939412
O   O3        1.0  0.35662  0.04358  0.10734  1.0000 -0.5388193
O   O4        1.0  0.95642  0.64338  0.60734  1.0000 -0.5388193
O   O5        1.0  0.25316  0.17628  0.10461  1.0000 -0.5485418209
O   O6        1.0  0.82372  0.74684  0.60461  1.0000 -0.5485418209
O   O7        1.0  0.09418  0.03466  0.11128  1.0000 -0.5388193
O   O8        1.0  0.96534  0.90582  0.61128  1.0000 -0.5388193
O   O9        1.0  0.23264  0.90196  0.16438  1.0000 -0.5388193
O   O10       1.0  0.09804  0.76736  0.66438  1.0000 -0.5388193
O   O11       1.0  0.23021  0.16175  0.16362  1.0000 -0.5562772596
O   O12       1.0  0.83825  0.76979  0.66362  1.0000 -0.5562772596
O   O13       1.0  0.09311  0.99763  0.16997  1.0000 -0.5562772596
O   O14       1.0  0.00237  0.90689  0.66997  1.0000 -0.5562772596
O   O15       1.0  0.36929  0.06435  0.16629  1.0000 -0.5485418209
O   O16       1.0  0.93565  0.63071  0.66629  1.0000 -0.5485418209
O   O17       1.0  0.90171  0.19649  0.39419  1.0000 -0.5333939412
O   O18       1.0  0.80351  0.09829  0.89419  1.0000 -0.5333939412
O   O19       1.0  0.04358  0.35662  0.39266  1.0000 -0.5388193
O   O20       1.0  0.64338  0.95642  0.89266  1.0000 -0.5388193
O   O21       1.0  0.17628  0.25316  0.39539  1.0000 -0.5485418209
O   O22       1.0  0.74684  0.82372  0.89539  1.0000 -0.5485418209
O   O23       1.0  0.03466  0.09418  0.38872  1.0000 -0.5388193
O   O24       1.0  0.90582  0.96534  0.88872  1.0000 -0.5388193
O   O25       1.0  0.90196  0.23264  0.33562  1.0000 -0.5388193
O   O26       1.0  0.76736  0.09804  0.83562  1.0000 -0.5388193
O   O27       1.0  0.16175  0.23021  0.33638  1.0000 -0.5562772596
O   O28       1.0  0.76979  0.83825  0.83638  1.0000 -0.5562772596
O   O29       1.0  0.99763  0.09311  0.33003  1.0000 -0.5562772596
O   O30       1.0  0.90689  0.00237  0.83003  1.0000 -0.5562772596
O   O31       1.0  0.06435  0.36929  0.33371  1.0000 -0.5485418209
O   O32       1.0  0.63071  0.93565  0.83371  1.0000 -0.5485418209
