# DDEC6 charges by PACMAN v1.1 (https://github.com/mtap-research/PACMAN-charge/)
data_2016[Cu][nbo]3[ASR]41
_chemical_formula_sum              "Cu6 H90 C132 O30"
_cell_length_a       21.4707
_cell_length_b       21.4707
_cell_length_c       21.4707
_cell_angle_alpha    110.712
_cell_angle_beta     110.712
_cell_angle_gamma    110.712

_symmetry_space_group_name_H-M    "P 1"
_symmetry_Int_Tables_number       1

loop_
  _symmetry_equiv_pos_as_xyz
  'x, y, z'

loop_
  _atom_site_type_symbol
  _atom_site_label
  _atom_site_symmetry_multiplicity
  _atom_site_fract_x
  _atom_site_fract_y
  _atom_site_fract_z
  _atom_site_occupancy
  _atom_site_charge
Cu  Cu1       1.0  0.57593  0.05332  0.05332  1.0000 0.8663174624
Cu  Cu2       1.0  0.05332  0.05332  0.57593  1.0000 0.8663174624
Cu  Cu3       1.0  0.05332  0.57593  0.05332  1.0000 0.8647912139
Cu  Cu4       1.0  0.94668  0.42407  0.94668  1.0000 0.8663174624
Cu  Cu5       1.0  0.94668  0.94668  0.42407  1.0000 0.8663174624
Cu  Cu6       1.0  0.42407  0.94668  0.94668  1.0000 0.8663174624
H   H1        1.0  0.66090  0.06830  0.90070  1.0000 0.1263991678
H   H2        1.0  0.06830  0.90070  0.66090  1.0000 0.1263991678
H   H3        1.0  0.90070  0.66090  0.06830  1.0000 0.1213042849
H   H4        1.0  0.93170  0.33910  0.09930  1.0000 0.1213042849
H   H5        1.0  0.09930  0.93170  0.33910  1.0000 0.1263991678
H   H6        1.0  0.33910  0.09930  0.93170  1.0000 0.1263991678
H   H7        1.0  0.33910  0.93170  0.09930  1.0000 0.1263991678
H   H8        1.0  0.93170  0.09930  0.33910  1.0000 0.1263991678
H   H9        1.0  0.09930  0.33910  0.93170  1.0000 0.1263991678
H   H10       1.0  0.06830  0.66090  0.90070  1.0000 0.1213042849
H   H11       1.0  0.90070  0.06830  0.66090  1.0000 0.1263991678
H   H12       1.0  0.66090  0.90070  0.06830  1.0000 0.1213042849
H   H13       1.0  0.67860  0.06060  0.79650  1.0000 0.1213042849
H   H14       1.0  0.06060  0.79650  0.67860  1.0000 0.1213042849
H   H15       1.0  0.79650  0.67860  0.06060  1.0000 0.1213042849
H   H16       1.0  0.93940  0.32140  0.20350  1.0000 0.1213042849
H   H17       1.0  0.20350  0.93940  0.32140  1.0000 0.1213042849
H   H18       1.0  0.32140  0.20350  0.93940  1.0000 0.1213042849
H   H19       1.0  0.32140  0.93940  0.20350  1.0000 0.1213042849
H   H20       1.0  0.93940  0.20350  0.32140  1.0000 0.1213042849
H   H21       1.0  0.20350  0.32140  0.93940  1.0000 0.1213042849
H   H22       1.0  0.06060  0.67860  0.79650  1.0000 0.1213042849
H   H23       1.0  0.79650  0.06060  0.67860  1.0000 0.1213042849
H   H24       1.0  0.67860  0.79650  0.06060  1.0000 0.1213042849
H   H25       1.0  0.44140  0.89830  0.63290  1.0000 0.1213042849
H   H26       1.0  0.89830  0.63290  0.44140  1.0000 0.1213042849
H   H27       1.0  0.63290  0.44140  0.89830  1.0000 0.1213042849
H   H28       1.0  0.10170  0.55860  0.36710  1.0000 0.1213042849
H   H29       1.0  0.36710  0.10170  0.55860  1.0000 0.1213042849
H   H30       1.0  0.55860  0.36710  0.10170  1.0000 0.1213042849
H   H31       1.0  0.55860  0.10170  0.36710  1.0000 0.1213042849
H   H32       1.0  0.10170  0.36710  0.55860  1.0000 0.1213042849
H   H33       1.0  0.36710  0.55860  0.10170  1.0000 0.1213042849
H   H34       1.0  0.89830  0.44140  0.63290  1.0000 0.1213042849
H   H35       1.0  0.63290  0.89830  0.44140  1.0000 0.1213042849
H   H36       1.0  0.44140  0.63290  0.89830  1.0000 0.1213042849
H   H37       1.0  0.42270  0.90800  0.73700  1.0000 0.1263991678
H   H38       1.0  0.90800  0.73700  0.42270  1.0000 0.1263991678
H   H39       1.0  0.73700  0.42270  0.90800  1.0000 0.1263991678
H   H40       1.0  0.09200  0.57730  0.26300  1.0000 0.1263991678
H   H41       1.0  0.26300  0.09200  0.57730  1.0000 0.1263991678
H   H42       1.0  0.57730  0.26300  0.09200  1.0000 0.1263991678
H   H43       1.0  0.57730  0.09200  0.26300  1.0000 0.1263991678
H   H44       1.0  0.09200  0.26300  0.57730  1.0000 0.1263991678
H   H45       1.0  0.26300  0.57730  0.09200  1.0000 0.1263991678
H   H46       1.0  0.90800  0.42270  0.73700  1.0000 0.1263991678
H   H47       1.0  0.73700  0.90800  0.42270  1.0000 0.1263991678
H   H48       1.0  0.42270  0.73700  0.90800  1.0000 0.1263991678
H   H49       1.0  0.48010  0.99320  0.59380  1.0000 0.1136662483
H   H50       1.0  0.99320  0.59380  0.48010  1.0000 0.1136662483
H   H51       1.0  0.59380  0.48010  0.99320  1.0000 0.1136662483
H   H52       1.0  0.00680  0.51990  0.40620  1.0000 0.1136662483
H   H53       1.0  0.40620  0.00680  0.51990  1.0000 0.1136662483
H   H54       1.0  0.51990  0.40620  0.00680  1.0000 0.1136662483
H   H55       1.0  0.51990  0.00680  0.40620  1.0000 0.1136662483
H   H56       1.0  0.00680  0.40620  0.51990  1.0000 0.1136662483
H   H57       1.0  0.40620  0.51990  0.00680  1.0000 0.1136662483
H   H58       1.0  0.99320  0.48010  0.59380  1.0000 0.1136662483
H   H59       1.0  0.59380  0.99320  0.48010  1.0000 0.1136662483
H   H60       1.0  0.48010  0.59380  0.99320  1.0000 0.1136662483
H   H61       1.0  0.60530  0.85400  0.65130  1.0000 0.0774299292
H   H62       1.0  0.85400  0.65130  0.60530  1.0000 0.0774299292
H   H63       1.0  0.65130  0.60530  0.85400  1.0000 0.0774299292
H   H64       1.0  0.14600  0.39470  0.34870  1.0000 0.0774299292
H   H65       1.0  0.34870  0.14600  0.39470  1.0000 0.0774299292
H   H66       1.0  0.39470  0.34870  0.14600  1.0000 0.0774299292
H   H67       1.0  0.39470  0.14600  0.34870  1.0000 0.0774299292
H   H68       1.0  0.14600  0.34870  0.39470  1.0000 0.0774299292
H   H69       1.0  0.34870  0.39470  0.14600  1.0000 0.0774299292
H   H70       1.0  0.85400  0.60530  0.65130  1.0000 0.0774299292
H   H71       1.0  0.65130  0.85400  0.60530  1.0000 0.0774299292
H   H72       1.0  0.60530  0.65130  0.85400  1.0000 0.0774299292
H   H73       1.0  0.72715  0.85490  0.72715  1.0000 0.1213042849
H   H74       1.0  0.85490  0.72715  0.72715  1.0000 0.1213042849
H   H75       1.0  0.72715  0.72715  0.85490  1.0000 0.1213042849
H   H76       1.0  0.14510  0.27285  0.27285  1.0000 0.1213042849
H   H77       1.0  0.27285  0.14510  0.27285  1.0000 0.1213042849
H   H78       1.0  0.27285  0.27285  0.14510  1.0000 0.1213042849
H   H79       1.0  0.78120  0.93540  0.73600  1.0000 0.1213042849
H   H80       1.0  0.93540  0.73600  0.78120  1.0000 0.1213042849
H   H81       1.0  0.73600  0.78120  0.93540  1.0000 0.1213042849
H   H82       1.0  0.06460  0.21880  0.26400  1.0000 0.1213042849
H   H83       1.0  0.26400  0.06460  0.21880  1.0000 0.1213042849
H   H84       1.0  0.21880  0.26400  0.06460  1.0000 0.1213042849
H   H85       1.0  0.21880  0.06460  0.26400  1.0000 0.1213042849
H   H86       1.0  0.06460  0.26400  0.21880  1.0000 0.1213042849
H   H87       1.0  0.26400  0.21880  0.06460  1.0000 0.1213042849
H   H88       1.0  0.93540  0.78120  0.73600  1.0000 0.1213042849
H   H89       1.0  0.73600  0.93540  0.78120  1.0000 0.1213042849
H   H90       1.0  0.78120  0.73600  0.93540  1.0000 0.1213042849
C   C1        1.0  0.52698  0.99441  0.89434  1.0000 0.5768012041
C   C2        1.0  0.99441  0.89434  0.52698  1.0000 0.5768012041
C   C3        1.0  0.89434  0.52698  0.99441  1.0000 0.5748568172
C   C4        1.0  0.00559  0.47302  0.10566  1.0000 0.5768012041
C   C5        1.0  0.10566  0.00559  0.47302  1.0000 0.5768012041
C   C6        1.0  0.47302  0.10566  0.00559  1.0000 0.5748568172
C   C7        1.0  0.47302  0.00559  0.10566  1.0000 0.5768012041
C   C8        1.0  0.00559  0.10566  0.47302  1.0000 0.5768012041
C   C9        1.0  0.10566  0.47302  0.00559  1.0000 0.5768012041
C   C10       1.0  0.99441  0.52698  0.89434  1.0000 0.5768012041
C   C11       1.0  0.89434  0.99441  0.52698  1.0000 0.5768012041
C   C12       1.0  0.52698  0.89434  0.99441  1.0000 0.5768012041
C   C13       1.0  0.53815  0.98786  0.82669  1.0000 -0.0178749117
C   C14       1.0  0.98786  0.82669  0.53815  1.0000 -0.0178749117
C   C15       1.0  0.82669  0.53815  0.98786  1.0000 -0.0178749117
C   C16       1.0  0.01214  0.46185  0.17331  1.0000 -0.0178749117
C   C17       1.0  0.17331  0.01214  0.46185  1.0000 -0.0178749117
C   C18       1.0  0.46185  0.17331  0.01214  1.0000 -0.0178749117
C   C19       1.0  0.46185  0.01214  0.17331  1.0000 -0.0178749117
C   C20       1.0  0.01214  0.17331  0.46185  1.0000 -0.0178749117
C   C21       1.0  0.17331  0.46185  0.01214  1.0000 -0.0178749117
C   C22       1.0  0.98786  0.53815  0.82669  1.0000 -0.0178749117
C   C23       1.0  0.82669  0.98786  0.53815  1.0000 -0.0178749117
C   C24       1.0  0.53815  0.82669  0.98786  1.0000 -0.0178749117
C   C25       1.0  0.61680  0.03504  0.84708  1.0000 -0.0906076098
C   C26       1.0  0.03504  0.84708  0.61680  1.0000 -0.0906076098
C   C27       1.0  0.84708  0.61680  0.03504  1.0000 -0.0906076098
C   C28       1.0  0.96496  0.38320  0.15292  1.0000 -0.0906076098
C   C29       1.0  0.15292  0.96496  0.38320  1.0000 -0.0906076098
C   C30       1.0  0.38320  0.15292  0.96496  1.0000 -0.0906076098
C   C31       1.0  0.38320  0.96496  0.15292  1.0000 -0.0906076098
C   C32       1.0  0.96496  0.15292  0.38320  1.0000 -0.0906076098
C   C33       1.0  0.15292  0.38320  0.96496  1.0000 -0.0906076098
C   C34       1.0  0.03504  0.61680  0.84708  1.0000 -0.0906076098
C   C35       1.0  0.84708  0.03504  0.61680  1.0000 -0.0906076098
C   C36       1.0  0.61680  0.84708  0.03504  1.0000 -0.0906076098
C   C37       1.0  0.62650  0.03037  0.78466  1.0000 -0.1469315594
C   C38       1.0  0.03037  0.78466  0.62650  1.0000 -0.1469315594
C   C39       1.0  0.78466  0.62650  0.03037  1.0000 -0.1469315594
C   C40       1.0  0.96963  0.37350  0.21534  1.0000 -0.1469315594
C   C41       1.0  0.21534  0.96963  0.37350  1.0000 -0.1469315594
C   C42       1.0  0.37350  0.21534  0.96963  1.0000 -0.1469315594
C   C43       1.0  0.37350  0.96963  0.21534  1.0000 -0.1469315594
C   C44       1.0  0.96963  0.21534  0.37350  1.0000 -0.1469315594
C   C45       1.0  0.21534  0.37350  0.96963  1.0000 -0.1469315594
C   C46       1.0  0.03037  0.62650  0.78466  1.0000 -0.1469315594
C   C47       1.0  0.78466  0.03037  0.62650  1.0000 -0.1469315594
C   C48       1.0  0.62650  0.78466  0.03037  1.0000 -0.1469315594
C   C49       1.0  0.56353  0.98373  0.70734  1.0000 0.0889431506
C   C50       1.0  0.98373  0.70734  0.56353  1.0000 0.0889431506
C   C51       1.0  0.70734  0.56353  0.98373  1.0000 0.0889431506
C   C52       1.0  0.01627  0.43647  0.29266  1.0000 0.0889431506
C   C53       1.0  0.29266  0.01627  0.43647  1.0000 0.0889431506
C   C54       1.0  0.43647  0.29266  0.01627  1.0000 0.0889431506
C   C55       1.0  0.43647  0.01627  0.29266  1.0000 0.0889431506
C   C56       1.0  0.01627  0.29266  0.43647  1.0000 0.0889431506
C   C57       1.0  0.29266  0.43647  0.01627  1.0000 0.0889431506
C   C58       1.0  0.98373  0.56353  0.70734  1.0000 0.0889431506
C   C59       1.0  0.70734  0.98373  0.56353  1.0000 0.0889431506
C   C60       1.0  0.56353  0.70734  0.98373  1.0000 0.0889431506
C   C61       1.0  0.48501  0.93376  0.68682  1.0000 -0.169494694
C   C62       1.0  0.93376  0.68682  0.48501  1.0000 -0.169494694
C   C63       1.0  0.68682  0.48501  0.93376  1.0000 -0.169494694
C   C64       1.0  0.06624  0.51499  0.31318  1.0000 -0.169494694
C   C65       1.0  0.31318  0.06624  0.51499  1.0000 -0.169494694
C   C66       1.0  0.51499  0.31318  0.06624  1.0000 -0.169494694
C   C67       1.0  0.51499  0.06624  0.31318  1.0000 -0.169494694
C   C68       1.0  0.06624  0.31318  0.51499  1.0000 -0.169494694
C   C69       1.0  0.31318  0.51499  0.06624  1.0000 -0.169494694
C   C70       1.0  0.93376  0.48501  0.68682  1.0000 -0.169494694
C   C71       1.0  0.68682  0.93376  0.48501  1.0000 -0.169494694
C   C72       1.0  0.48501  0.68682  0.93376  1.0000 -0.169494694
C   C73       1.0  0.47461  0.93891  0.74892  1.0000 -0.0906076098
C   C74       1.0  0.93891  0.74892  0.47461  1.0000 -0.0906076098
C   C75       1.0  0.74892  0.47461  0.93891  1.0000 -0.0906076098
C   C76       1.0  0.06109  0.52539  0.25108  1.0000 -0.0906076098
C   C77       1.0  0.25108  0.06109  0.52539  1.0000 -0.0906076098
C   C78       1.0  0.52539  0.25108  0.06109  1.0000 -0.0906076098
C   C79       1.0  0.52539  0.06109  0.25108  1.0000 -0.0906076098
C   C80       1.0  0.06109  0.25108  0.52539  1.0000 -0.0906076098
C   C81       1.0  0.25108  0.52539  0.06109  1.0000 -0.0906076098
C   C82       1.0  0.93891  0.47461  0.74892  1.0000 -0.0906076098
C   C83       1.0  0.74892  0.93891  0.47461  1.0000 -0.0906076098
C   C84       1.0  0.47461  0.74892  0.93891  1.0000 -0.0906076098
C   C85       1.0  0.57313  0.98428  0.64190  1.0000 -0.0178749117
C   C86       1.0  0.98428  0.64190  0.57313  1.0000 -0.0141580679
C   C87       1.0  0.64190  0.57313  0.98428  1.0000 -0.0178749117
C   C88       1.0  0.01572  0.42687  0.35810  1.0000 -0.0141580679
C   C89       1.0  0.35810  0.01572  0.42687  1.0000 -0.0178749117
C   C90       1.0  0.42687  0.35810  0.01572  1.0000 -0.0141580679
C   C91       1.0  0.42687  0.01572  0.35810  1.0000 -0.0141580679
C   C92       1.0  0.01572  0.35810  0.42687  1.0000 -0.0178749117
C   C93       1.0  0.35810  0.42687  0.01572  1.0000 -0.0141580679
C   C94       1.0  0.98428  0.57313  0.64190  1.0000 -0.0141580679
C   C95       1.0  0.64190  0.98428  0.57313  1.0000 -0.0178749117
C   C96       1.0  0.57313  0.64190  0.98428  1.0000 -0.0178749117
C   C97       1.0  0.52107  0.99032  0.58808  1.0000 -0.1909630006
C   C98       1.0  0.99032  0.58808  0.52107  1.0000 -0.1909630006
C   C99       1.0  0.58808  0.52107  0.99032  1.0000 -0.1909630006
C   C100      1.0  0.00968  0.47893  0.41192  1.0000 -0.1909630006
C   C101      1.0  0.41192  0.00968  0.47893  1.0000 -0.1909630006
C   C102      1.0  0.47893  0.41192  0.00968  1.0000 -0.1909630006
C   C103      1.0  0.47893  0.00968  0.41192  1.0000 -0.1909630006
C   C104      1.0  0.00968  0.41192  0.47893  1.0000 -0.1909630006
C   C105      1.0  0.41192  0.47893  0.00968  1.0000 -0.1909630006
C   C106      1.0  0.99032  0.52107  0.58808  1.0000 -0.1909630006
C   C107      1.0  0.58808  0.99032  0.52107  1.0000 -0.1909630006
C   C108      1.0  0.52107  0.58808  0.99032  1.0000 -0.1909630006
C   C109      1.0  0.52545  0.99250  0.52545  1.0000 0.0694375728
C   C110      1.0  0.99250  0.52545  0.52545  1.0000 0.0694375728
C   C111      1.0  0.52545  0.52545  0.99250  1.0000 0.0694375728
C   C112      1.0  0.00750  0.47455  0.47455  1.0000 0.0694375728
C   C113      1.0  0.47455  0.00750  0.47455  1.0000 0.0694375728
C   C114      1.0  0.47455  0.47455  0.00750  1.0000 0.0694375728
C   C115      1.0  0.63399  0.98091  0.63399  1.0000 0.1542251328
C   C116      1.0  0.98091  0.63399  0.63399  1.0000 0.1542251328
C   C117      1.0  0.63399  0.63399  0.98091  1.0000 0.1542251328
C   C118      1.0  0.01909  0.36601  0.36601  1.0000 0.1542251328
C   C119      1.0  0.36601  0.01909  0.36601  1.0000 0.1542251328
C   C120      1.0  0.36601  0.36601  0.01909  1.0000 0.1542251328
C   C121      1.0  0.65590  0.88280  0.65590  1.0000 -0.0337188026
C   C122      1.0  0.88280  0.65590  0.65590  1.0000 -0.0354396157
C   C123      1.0  0.65590  0.65590  0.88280  1.0000 -0.0354396157
C   C124      1.0  0.11720  0.34410  0.34410  1.0000 -0.0354396157
C   C125      1.0  0.34410  0.11720  0.34410  1.0000 -0.0337188026
C   C126      1.0  0.34410  0.34410  0.11720  1.0000 -0.0354396157
C   C127      1.0  0.73275  0.90430  0.73275  1.0000 -0.3742082125
C   C128      1.0  0.90430  0.73275  0.73275  1.0000 -0.3753734386
C   C129      1.0  0.73275  0.73275  0.90430  1.0000 -0.3742082125
C   C130      1.0  0.09570  0.26725  0.26725  1.0000 -0.3753734386
C   C131      1.0  0.26725  0.09570  0.26725  1.0000 -0.3753734386
C   C132      1.0  0.26725  0.26725  0.09570  1.0000 -0.3753734386
O   O1        1.0  0.45392  0.94900  0.87112  1.0000 -0.5374528175
O   O2        1.0  0.94900  0.87112  0.45392  1.0000 -0.5374528175
O   O3        1.0  0.87112  0.45392  0.94900  1.0000 -0.5374528175
O   O4        1.0  0.05100  0.54608  0.12888  1.0000 -0.5374528175
O   O5        1.0  0.12888  0.05100  0.54608  1.0000 -0.5374528175
O   O6        1.0  0.54608  0.12888  0.05100  1.0000 -0.5374528175
O   O7        1.0  0.54608  0.05100  0.12888  1.0000 -0.5374528175
O   O8        1.0  0.05100  0.12888  0.54608  1.0000 -0.5374528175
O   O9        1.0  0.12888  0.54608  0.05100  1.0000 -0.5374528175
O   O10       1.0  0.94900  0.45392  0.87112  1.0000 -0.5374528175
O   O11       1.0  0.87112  0.94900  0.45392  1.0000 -0.5374528175
O   O12       1.0  0.45392  0.87112  0.94900  1.0000 -0.5374528175
O   O13       1.0  0.58579  0.04169  0.96375  1.0000 -0.4936541175
O   O14       1.0  0.04169  0.96375  0.58579  1.0000 -0.4936541175
O   O15       1.0  0.96375  0.58579  0.04169  1.0000 -0.4953919357
O   O16       1.0  0.95831  0.41421  0.03625  1.0000 -0.4936541175
O   O17       1.0  0.03625  0.95831  0.41421  1.0000 -0.4953919357
O   O18       1.0  0.41421  0.03625  0.95831  1.0000 -0.4936541175
O   O19       1.0  0.41421  0.95831  0.03625  1.0000 -0.4936541175
O   O20       1.0  0.95831  0.03625  0.41421  1.0000 -0.4936541175
O   O21       1.0  0.03625  0.41421  0.95831  1.0000 -0.4936541175
O   O22       1.0  0.04169  0.58579  0.96375  1.0000 -0.4953919357
O   O23       1.0  0.96375  0.04169  0.58579  1.0000 -0.4936541175
O   O24       1.0  0.58579  0.96375  0.04169  1.0000 -0.4953919357
O   O25       1.0  0.68812  0.97346  0.68812  1.0000 -0.2362655854
O   O26       1.0  0.97346  0.68812  0.68812  1.0000 -0.2362655854
O   O27       1.0  0.68812  0.68812  0.97346  1.0000 -0.2362655854
O   O28       1.0  0.02654  0.31188  0.31188  1.0000 -0.2362655854
O   O29       1.0  0.31188  0.02654  0.31188  1.0000 -0.2362655854
O   O30       1.0  0.31188  0.31188  0.02654  1.0000 -0.2339136606
