# DDEC6 charges by PACMAN v1.1 (https://github.com/mtap-research/PACMAN-charge/)
data_2016[Ni][scu]3[ASR]1
_chemical_formula_sum              "Ni6 H64 C120 O36"
_cell_length_a       11.5396
_cell_length_b       13.9678
_cell_length_c       27.2662
_cell_angle_alpha    90
_cell_angle_beta     90
_cell_angle_gamma    90

_symmetry_space_group_name_H-M    "P 1"
_symmetry_Int_Tables_number       1

loop_
  _symmetry_equiv_pos_as_xyz
  'x, y, z'

loop_
  _atom_site_type_symbol
  _atom_site_label
  _atom_site_symmetry_multiplicity
  _atom_site_fract_x
  _atom_site_fract_y
  _atom_site_fract_z
  _atom_site_occupancy
  _atom_site_charge
Ni  Ni1       1.0  0.85030  0.28137  0.00000  1.0000 1.0432468946
Ni  Ni2       1.0  0.14970  0.78137  0.50000  1.0000 1.0432468946
Ni  Ni3       1.0  0.14970  0.71863  0.00000  1.0000 1.0432468946
Ni  Ni4       1.0  0.85030  0.21863  0.50000  1.0000 1.0432468946
Ni  Ni5       1.0  0.00000  0.50000  0.00000  1.0000 1.0837334687
Ni  Ni6       1.0  0.00000  0.00000  0.50000  1.0000 1.0837334687
H   H1        1.0  0.27160  0.41380  0.19940  1.0000 0.1203829396
H   H2        1.0  0.72840  0.91380  0.30060  1.0000 0.1203829396
H   H3        1.0  0.72840  0.58620  0.19940  1.0000 0.1203829396
H   H4        1.0  0.27160  0.08620  0.30060  1.0000 0.1203829396
H   H5        1.0  0.72840  0.58620  0.80060  1.0000 0.1203829396
H   H6        1.0  0.27160  0.08620  0.69940  1.0000 0.1203829396
H   H7        1.0  0.27160  0.41380  0.80060  1.0000 0.1203829396
H   H8        1.0  0.72840  0.91380  0.69940  1.0000 0.1203829396
H   H9        1.0  0.17220  0.44760  0.12780  1.0000 0.1373539823
H   H10       1.0  0.82780  0.94760  0.37220  1.0000 0.1373539823
H   H11       1.0  0.82780  0.55240  0.12780  1.0000 0.1373539823
H   H12       1.0  0.17220  0.05240  0.37220  1.0000 0.1373539823
H   H13       1.0  0.82780  0.55240  0.87220  1.0000 0.1373539823
H   H14       1.0  0.17220  0.05240  0.62780  1.0000 0.1373539823
H   H15       1.0  0.17220  0.44760  0.87220  1.0000 0.1373539823
H   H16       1.0  0.82780  0.94760  0.62780  1.0000 0.1373539823
H   H17       1.0  0.14960  0.14260  0.19620  1.0000 0.1289947131
H   H18       1.0  0.85040  0.64260  0.30380  1.0000 0.1289947131
H   H19       1.0  0.85040  0.85740  0.19620  1.0000 0.1289947131
H   H20       1.0  0.14960  0.35740  0.30380  1.0000 0.1289947131
H   H21       1.0  0.85040  0.85740  0.80380  1.0000 0.1289947131
H   H22       1.0  0.14960  0.35740  0.69620  1.0000 0.1289947131
H   H23       1.0  0.14960  0.14260  0.80380  1.0000 0.1289947131
H   H24       1.0  0.85040  0.64260  0.69620  1.0000 0.1289947131
H   H25       1.0  0.04630  0.17850  0.12510  1.0000 0.1289947131
H   H26       1.0  0.95370  0.67850  0.37490  1.0000 0.1289947131
H   H27       1.0  0.95370  0.82150  0.12510  1.0000 0.1289947131
H   H28       1.0  0.04630  0.32150  0.37490  1.0000 0.1289947131
H   H29       1.0  0.95370  0.82150  0.87490  1.0000 0.1289947131
H   H30       1.0  0.04630  0.32150  0.62510  1.0000 0.1289947131
H   H31       1.0  0.04630  0.17850  0.87490  1.0000 0.1289947131
H   H32       1.0  0.95370  0.67850  0.62510  1.0000 0.1289947131
H   H33       1.0  0.45520  0.35200  0.33060  1.0000 0.1289947131
H   H34       1.0  0.54480  0.85200  0.16940  1.0000 0.1289947131
H   H35       1.0  0.54480  0.64800  0.33060  1.0000 0.1289947131
H   H36       1.0  0.45520  0.14800  0.16940  1.0000 0.1289947131
H   H37       1.0  0.54480  0.64800  0.66940  1.0000 0.1289947131
H   H38       1.0  0.45520  0.14800  0.83060  1.0000 0.1289947131
H   H39       1.0  0.45520  0.35200  0.66940  1.0000 0.1289947131
H   H40       1.0  0.54480  0.85200  0.83060  1.0000 0.1289947131
H   H41       1.0  0.51910  0.09280  0.27360  1.0000 0.1203829396
H   H42       1.0  0.48090  0.59280  0.22640  1.0000 0.1203829396
H   H43       1.0  0.48090  0.90720  0.27360  1.0000 0.1203829396
H   H44       1.0  0.51910  0.40720  0.22640  1.0000 0.1203829396
H   H45       1.0  0.48090  0.90720  0.72640  1.0000 0.1203829396
H   H46       1.0  0.51910  0.40720  0.77360  1.0000 0.1203829396
H   H47       1.0  0.51910  0.09280  0.72640  1.0000 0.1203829396
H   H48       1.0  0.48090  0.59280  0.77360  1.0000 0.1203829396
H   H49       1.0  0.63110  0.05580  0.34240  1.0000 0.1203829396
H   H50       1.0  0.36890  0.55580  0.15760  1.0000 0.1203829396
H   H51       1.0  0.36890  0.94420  0.34240  1.0000 0.1203829396
H   H52       1.0  0.63110  0.44420  0.15760  1.0000 0.1203829396
H   H53       1.0  0.36890  0.94420  0.65760  1.0000 0.1203829396
H   H54       1.0  0.63110  0.44420  0.84240  1.0000 0.1203829396
H   H55       1.0  0.63110  0.05580  0.65760  1.0000 0.1203829396
H   H56       1.0  0.36890  0.55580  0.84240  1.0000 0.1203829396
H   H57       1.0  0.57610  0.31900  0.39510  1.0000 0.1289947131
H   H58       1.0  0.42390  0.81900  0.10490  1.0000 0.1289947131
H   H59       1.0  0.42390  0.68100  0.39510  1.0000 0.1289947131
H   H60       1.0  0.57610  0.18100  0.10490  1.0000 0.1289947131
H   H61       1.0  0.42390  0.68100  0.60490  1.0000 0.1289947131
H   H62       1.0  0.57610  0.18100  0.89510  1.0000 0.1289947131
H   H63       1.0  0.57610  0.31900  0.60490  1.0000 0.1289947131
H   H64       1.0  0.42390  0.81900  0.89510  1.0000 0.1289947131
C   C1        1.0  0.03710  0.33870  0.07220  1.0000 0.5868719215
C   C2        1.0  0.96290  0.83870  0.42780  1.0000 0.5868719215
C   C3        1.0  0.96290  0.66130  0.07220  1.0000 0.5868719215
C   C4        1.0  0.03710  0.16130  0.42780  1.0000 0.5868719215
C   C5        1.0  0.96290  0.66130  0.92780  1.0000 0.5868719215
C   C6        1.0  0.03710  0.16130  0.57220  1.0000 0.5868719215
C   C7        1.0  0.03710  0.33870  0.92780  1.0000 0.5868719215
C   C8        1.0  0.96290  0.83870  0.57220  1.0000 0.5868719215
C   C9        1.0  0.22230  0.27470  0.20504  1.0000 0.0766684818
C   C10       1.0  0.77770  0.77470  0.29496  1.0000 0.0766684818
C   C11       1.0  0.77770  0.72530  0.20504  1.0000 0.0766684818
C   C12       1.0  0.22230  0.22530  0.29496  1.0000 0.0766684818
C   C13       1.0  0.77770  0.72530  0.79496  1.0000 0.0766684818
C   C14       1.0  0.22230  0.22530  0.70504  1.0000 0.0766684818
C   C15       1.0  0.22230  0.27470  0.79496  1.0000 0.0766684818
C   C16       1.0  0.77770  0.77470  0.70504  1.0000 0.0766684818
C   C17       1.0  0.47680  0.22720  0.29486  1.0000 0.0766684818
C   C18       1.0  0.52320  0.72720  0.20514  1.0000 0.0766684818
C   C19       1.0  0.52320  0.77280  0.29486  1.0000 0.0766684818
C   C20       1.0  0.47680  0.27280  0.20514  1.0000 0.0766684818
C   C21       1.0  0.52320  0.77280  0.70514  1.0000 0.0766684818
C   C22       1.0  0.47680  0.27280  0.79486  1.0000 0.0766684818
C   C23       1.0  0.47680  0.22720  0.70514  1.0000 0.0766684818
C   C24       1.0  0.52320  0.72720  0.79486  1.0000 0.0766684818
C   C25       1.0  0.28950  0.25000  0.25000  1.0000 -0.0220707017
C   C26       1.0  0.71050  0.75000  0.25000  1.0000 -0.0220707017
C   C27       1.0  0.71050  0.75000  0.75000  1.0000 -0.0220707017
C   C28       1.0  0.28950  0.25000  0.75000  1.0000 -0.0220707017
C   C29       1.0  0.40660  0.25000  0.25000  1.0000 -0.0065235943
C   C30       1.0  0.59340  0.75000  0.25000  1.0000 -0.0065235943
C   C31       1.0  0.59340  0.75000  0.75000  1.0000 -0.0065235943
C   C32       1.0  0.40660  0.25000  0.75000  1.0000 -0.0065235943
C   C33       1.0  0.09880  0.31650  0.11970  1.0000 0.0036499556
C   C34       1.0  0.90120  0.81650  0.38030  1.0000 0.0036499556
C   C35       1.0  0.90120  0.68350  0.11970  1.0000 0.0036499556
C   C36       1.0  0.09880  0.18350  0.38030  1.0000 0.0036499556
C   C37       1.0  0.90120  0.68350  0.88030  1.0000 0.0036499556
C   C38       1.0  0.09880  0.18350  0.61970  1.0000 0.0036499556
C   C39       1.0  0.09880  0.31650  0.88030  1.0000 0.0036499556
C   C40       1.0  0.90120  0.81650  0.61970  1.0000 0.0036499556
C   C41       1.0  0.22620  0.36460  0.18410  1.0000 -0.1488862465
C   C42       1.0  0.77380  0.86460  0.31590  1.0000 -0.1488862465
C   C43       1.0  0.77380  0.63540  0.18410  1.0000 -0.1488862465
C   C44       1.0  0.22620  0.13540  0.31590  1.0000 -0.1488862465
C   C45       1.0  0.77380  0.63540  0.81590  1.0000 -0.1488862465
C   C46       1.0  0.22620  0.13540  0.68410  1.0000 -0.1488862465
C   C47       1.0  0.22620  0.36460  0.81590  1.0000 -0.1488862465
C   C48       1.0  0.77380  0.86460  0.68410  1.0000 -0.1488862465
C   C49       1.0  0.16660  0.38490  0.14200  1.0000 -0.0767313098
C   C50       1.0  0.83340  0.88490  0.35800  1.0000 -0.0767313098
C   C51       1.0  0.83340  0.61510  0.14200  1.0000 -0.0767313098
C   C52       1.0  0.16660  0.11510  0.35800  1.0000 -0.0767313098
C   C53       1.0  0.83340  0.61510  0.85800  1.0000 -0.0767313098
C   C54       1.0  0.16660  0.11510  0.64200  1.0000 -0.0767313098
C   C55       1.0  0.16660  0.38490  0.85800  1.0000 -0.0767313098
C   C56       1.0  0.83340  0.88490  0.64200  1.0000 -0.0767313098
C   C57       1.0  0.15430  0.20570  0.18240  1.0000 -0.1488862465
C   C58       1.0  0.84570  0.70570  0.31760  1.0000 -0.1488862465
C   C59       1.0  0.84570  0.79430  0.18240  1.0000 -0.1488862465
C   C60       1.0  0.15430  0.29430  0.31760  1.0000 -0.1488862465
C   C61       1.0  0.84570  0.79430  0.81760  1.0000 -0.1488862465
C   C62       1.0  0.15430  0.29430  0.68240  1.0000 -0.1488862465
C   C63       1.0  0.15430  0.20570  0.81760  1.0000 -0.1488862465
C   C64       1.0  0.84570  0.70570  0.68240  1.0000 -0.1488862465
C   C65       1.0  0.09320  0.22700  0.14020  1.0000 -0.0901167394
C   C66       1.0  0.90680  0.72700  0.35980  1.0000 -0.0901167394
C   C67       1.0  0.90680  0.77300  0.14020  1.0000 -0.0901167394
C   C68       1.0  0.09320  0.27300  0.35980  1.0000 -0.0901167394
C   C69       1.0  0.90680  0.77300  0.85980  1.0000 -0.0901167394
C   C70       1.0  0.09320  0.27300  0.64020  1.0000 -0.0901167394
C   C71       1.0  0.09320  0.22700  0.85980  1.0000 -0.0901167394
C   C72       1.0  0.90680  0.72700  0.64020  1.0000 -0.0901167394
C   C73       1.0  0.49340  0.29100  0.33190  1.0000 -0.1437541065
C   C74       1.0  0.50660  0.79100  0.16810  1.0000 -0.1437541065
C   C75       1.0  0.50660  0.70900  0.33190  1.0000 -0.1437541065
C   C76       1.0  0.49340  0.20900  0.16810  1.0000 -0.1437541065
C   C77       1.0  0.50660  0.70900  0.66810  1.0000 -0.1437541065
C   C78       1.0  0.49340  0.20900  0.83190  1.0000 -0.1437541065
C   C79       1.0  0.49340  0.29100  0.66810  1.0000 -0.1437541065
C   C80       1.0  0.50660  0.79100  0.83190  1.0000 -0.1437541065
C   C81       1.0  0.52900  0.13970  0.29900  1.0000 -0.1488862465
C   C82       1.0  0.47100  0.63970  0.20100  1.0000 -0.1488862465
C   C83       1.0  0.47100  0.86030  0.29900  1.0000 -0.1488862465
C   C84       1.0  0.52900  0.36030  0.20100  1.0000 -0.1488862465
C   C85       1.0  0.47100  0.86030  0.70100  1.0000 -0.1488862465
C   C86       1.0  0.52900  0.36030  0.79900  1.0000 -0.1488862465
C   C87       1.0  0.52900  0.13970  0.70100  1.0000 -0.1488862465
C   C88       1.0  0.47100  0.63970  0.79900  1.0000 -0.1488862465
C   C89       1.0  0.59640  0.11810  0.33980  1.0000 -0.0901167394
C   C90       1.0  0.40360  0.61810  0.16020  1.0000 -0.0901167394
C   C91       1.0  0.40360  0.88190  0.33980  1.0000 -0.0950934817
C   C92       1.0  0.59640  0.38190  0.16020  1.0000 -0.0901167394
C   C93       1.0  0.40360  0.88190  0.66020  1.0000 -0.0950934817
C   C94       1.0  0.59640  0.38190  0.83980  1.0000 -0.0901167394
C   C95       1.0  0.59640  0.11810  0.66020  1.0000 -0.0901167394
C   C96       1.0  0.40360  0.61810  0.83980  1.0000 -0.0950934817
C   C97       1.0  0.61420  0.18360  0.37619  1.0000 0.0078669747
C   C98       1.0  0.38580  0.68360  0.12381  1.0000 0.0078669747
C   C99       1.0  0.38580  0.81640  0.37619  1.0000 0.0078669747
C   C100      1.0  0.61420  0.31640  0.12381  1.0000 0.0078669747
C   C101      1.0  0.38580  0.81640  0.62381  1.0000 0.0078669747
C   C102      1.0  0.61420  0.31640  0.87619  1.0000 0.0078669747
C   C103      1.0  0.61420  0.18360  0.62381  1.0000 0.0078669747
C   C104      1.0  0.38580  0.68360  0.87619  1.0000 0.0078669747
C   C105      1.0  0.69020  0.15860  0.41947  1.0000 0.5633141095
C   C106      1.0  0.30980  0.65860  0.08053  1.0000 0.5633141095
C   C107      1.0  0.30980  0.84140  0.41947  1.0000 0.5633141095
C   C108      1.0  0.69020  0.34140  0.08053  1.0000 0.5633141095
C   C109      1.0  0.30980  0.84140  0.58053  1.0000 0.5633141095
C   C110      1.0  0.69020  0.34140  0.91947  1.0000 0.5633141095
C   C111      1.0  0.69020  0.15860  0.58053  1.0000 0.5633141095
C   C112      1.0  0.30980  0.65860  0.91947  1.0000 0.5633141095
C   C113      1.0  0.56280  0.27050  0.37080  1.0000 -0.0901167394
C   C114      1.0  0.43720  0.77050  0.12920  1.0000 -0.0901167394
C   C115      1.0  0.43720  0.72950  0.37080  1.0000 -0.0901167394
C   C116      1.0  0.56280  0.22950  0.12920  1.0000 -0.0901167394
C   C117      1.0  0.43720  0.72950  0.62920  1.0000 -0.0901167394
C   C118      1.0  0.56280  0.22950  0.87080  1.0000 -0.0901167394
C   C119      1.0  0.56280  0.27050  0.62920  1.0000 -0.0901167394
C   C120      1.0  0.43720  0.77050  0.87080  1.0000 -0.0901167394
O   O1        1.0  0.84420  0.42950  0.00000  1.0000 -0.3422961166
O   O2        1.0  0.15580  0.92950  0.50000  1.0000 -0.3422961166
O   O3        1.0  0.15580  0.57050  0.00000  1.0000 -0.3422961166
O   O4        1.0  0.84420  0.07050  0.50000  1.0000 -0.3422961166
O   O5        1.0  0.96740  0.27820  0.05617  1.0000 -0.5375009482
O   O6        1.0  0.03260  0.77820  0.44383  1.0000 -0.5375009482
O   O7        1.0  0.03260  0.72180  0.05617  1.0000 -0.5375009482
O   O8        1.0  0.96740  0.22180  0.44383  1.0000 -0.5375009482
O   O9        1.0  0.03260  0.72180  0.94383  1.0000 -0.5375009482
O   O10       1.0  0.96740  0.22180  0.55617  1.0000 -0.5375009482
O   O11       1.0  0.96740  0.27820  0.94383  1.0000 -0.5375009482
O   O12       1.0  0.03260  0.77820  0.55617  1.0000 -0.5375009482
O   O13       1.0  0.06230  0.41570  0.05250  1.0000 -0.4819468265
O   O14       1.0  0.93770  0.91570  0.44750  1.0000 -0.4819468265
O   O15       1.0  0.93770  0.58430  0.05250  1.0000 -0.4819468265
O   O16       1.0  0.06230  0.08430  0.44750  1.0000 -0.4819468265
O   O17       1.0  0.93770  0.58430  0.94750  1.0000 -0.4819468265
O   O18       1.0  0.06230  0.08430  0.55250  1.0000 -0.4819468265
O   O19       1.0  0.06230  0.41570  0.94750  1.0000 -0.4819468265
O   O20       1.0  0.93770  0.91570  0.55250  1.0000 -0.4819468265
O   O21       1.0  0.72170  0.22580  0.44657  1.0000 -0.5322342743
O   O22       1.0  0.27830  0.72580  0.05343  1.0000 -0.5322342743
O   O23       1.0  0.27830  0.77420  0.44657  1.0000 -0.5322342743
O   O24       1.0  0.72170  0.27420  0.05343  1.0000 -0.5322342743
O   O25       1.0  0.27830  0.77420  0.55343  1.0000 -0.5322342743
O   O26       1.0  0.72170  0.27420  0.94657  1.0000 -0.5322342743
O   O27       1.0  0.72170  0.22580  0.55343  1.0000 -0.5322342743
O   O28       1.0  0.27830  0.72580  0.94657  1.0000 -0.5322342743
O   O29       1.0  0.71470  0.07250  0.42521  1.0000 -0.4457165646
O   O30       1.0  0.28530  0.57250  0.07479  1.0000 -0.4457165646
O   O31       1.0  0.28530  0.92750  0.42521  1.0000 -0.4457165646
O   O32       1.0  0.71470  0.42750  0.07479  1.0000 -0.4457165646
O   O33       1.0  0.28530  0.92750  0.57479  1.0000 -0.4457165646
O   O34       1.0  0.71470  0.42750  0.92521  1.0000 -0.4457165646
O   O35       1.0  0.71470  0.07250  0.57479  1.0000 -0.4457165646
O   O36       1.0  0.28530  0.57250  0.92521  1.0000 -0.4447079306
