# DDEC6 charges by PACMAN v1.1 (https://github.com/mtap-research/PACMAN-charge/)
data_2016[Ag][nan]3[ASR]8
_chemical_formula_sum              "Ag64 H256 C384 N64 O128"
_cell_length_a       14.2885
_cell_length_b       23.823
_cell_length_c       30.749
_cell_angle_alpha    90
_cell_angle_beta     90
_cell_angle_gamma    90

_symmetry_space_group_name_H-M    "P 1"
_symmetry_Int_Tables_number       1

loop_
  _symmetry_equiv_pos_as_xyz
  'x, y, z'

loop_
  _atom_site_type_symbol
  _atom_site_label
  _atom_site_symmetry_multiplicity
  _atom_site_fract_x
  _atom_site_fract_y
  _atom_site_fract_z
  _atom_site_occupancy
  _atom_site_charge
Ag  Ag1       1.0  0.35092  0.76665  0.71115  1.0000 0.3661452465
Ag  Ag2       1.0  0.14908  0.73335  0.71115  1.0000 0.3661452465
Ag  Ag3       1.0  0.85092  0.23335  0.78885  1.0000 0.3661452465
Ag  Ag4       1.0  0.64908  0.26665  0.78885  1.0000 0.3661452465
Ag  Ag5       1.0  0.64908  0.23335  0.28885  1.0000 0.3661452465
Ag  Ag6       1.0  0.85092  0.26665  0.28885  1.0000 0.3661452465
Ag  Ag7       1.0  0.14908  0.76665  0.21115  1.0000 0.3661452465
Ag  Ag8       1.0  0.35092  0.73335  0.21115  1.0000 0.3661452465
Ag  Ag9       1.0  0.20101  0.93497  0.51922  1.0000 0.4286179941
Ag  Ag10      1.0  0.29899  0.56503  0.51922  1.0000 0.4286179941
Ag  Ag11      1.0  0.70101  0.06503  0.98078  1.0000 0.4286179941
Ag  Ag12      1.0  0.79899  0.43497  0.98078  1.0000 0.4286179941
Ag  Ag13      1.0  0.79899  0.06503  0.48078  1.0000 0.4286179941
Ag  Ag14      1.0  0.70101  0.43497  0.48078  1.0000 0.4286179941
Ag  Ag15      1.0  0.29899  0.93497  0.01922  1.0000 0.4286179941
Ag  Ag16      1.0  0.20101  0.56503  0.01922  1.0000 0.4286179941
Ag  Ag17      1.0  0.41204  0.72252  0.78948  1.0000 0.3635903214
Ag  Ag18      1.0  0.08796  0.77748  0.78948  1.0000 0.3635903214
Ag  Ag19      1.0  0.91204  0.27748  0.71052  1.0000 0.3635903214
Ag  Ag20      1.0  0.58796  0.22252  0.71052  1.0000 0.3635903214
Ag  Ag21      1.0  0.58796  0.27748  0.21052  1.0000 0.3635903214
Ag  Ag22      1.0  0.91204  0.22252  0.21052  1.0000 0.3635903214
Ag  Ag23      1.0  0.08796  0.72252  0.28948  1.0000 0.3635903214
Ag  Ag24      1.0  0.41204  0.77748  0.28948  1.0000 0.3635903214
Ag  Ag25      1.0  0.52144  0.55562  0.98551  1.0000 0.3919125859
Ag  Ag26      1.0  0.97856  0.94438  0.98551  1.0000 0.3919125859
Ag  Ag27      1.0  0.02144  0.44438  0.51449  1.0000 0.3919125859
Ag  Ag28      1.0  0.47856  0.05562  0.51449  1.0000 0.3919125859
Ag  Ag29      1.0  0.47856  0.44438  0.01449  1.0000 0.3919125859
Ag  Ag30      1.0  0.02144  0.05562  0.01449  1.0000 0.3919125859
Ag  Ag31      1.0  0.97856  0.55562  0.48551  1.0000 0.3919125859
Ag  Ag32      1.0  0.52144  0.94438  0.48551  1.0000 0.3919125859
Ag  Ag33      1.0  0.49982  0.56029  0.47178  1.0000 0.4544856463
Ag  Ag34      1.0  0.00018  0.93971  0.47178  1.0000 0.4544856463
Ag  Ag35      1.0  0.99982  0.43971  0.02822  1.0000 0.4544856463
Ag  Ag36      1.0  0.50018  0.06029  0.02822  1.0000 0.4544856463
Ag  Ag37      1.0  0.50018  0.43971  0.52822  1.0000 0.4551523541
Ag  Ag38      1.0  0.99982  0.06029  0.52822  1.0000 0.4544856463
Ag  Ag39      1.0  0.00018  0.56029  0.97178  1.0000 0.4544856463
Ag  Ag40      1.0  0.49982  0.93971  0.97178  1.0000 0.4544856463
Ag  Ag41      1.0  0.61053  0.73856  0.28382  1.0000 0.3661452465
Ag  Ag42      1.0  0.88947  0.76144  0.28382  1.0000 0.3661452465
Ag  Ag43      1.0  0.11053  0.26144  0.21618  1.0000 0.3661452465
Ag  Ag44      1.0  0.38947  0.23856  0.21618  1.0000 0.3661452465
Ag  Ag45      1.0  0.38947  0.26144  0.71618  1.0000 0.3661452465
Ag  Ag46      1.0  0.11053  0.23856  0.71618  1.0000 0.3661452465
Ag  Ag47      1.0  0.88947  0.73856  0.78382  1.0000 0.3661452465
Ag  Ag48      1.0  0.61053  0.76144  0.78382  1.0000 0.3661452465
Ag  Ag49      1.0  0.65792  0.77684  0.20077  1.0000 0.3422101502
Ag  Ag50      1.0  0.84208  0.72316  0.20077  1.0000 0.3422101502
Ag  Ag51      1.0  0.15792  0.22316  0.29923  1.0000 0.3422101502
Ag  Ag52      1.0  0.34208  0.27684  0.29923  1.0000 0.3422101502
Ag  Ag53      1.0  0.34208  0.22316  0.79923  1.0000 0.3422101502
Ag  Ag54      1.0  0.15792  0.27684  0.79923  1.0000 0.3422101502
Ag  Ag55      1.0  0.84208  0.77684  0.70077  1.0000 0.3422101502
Ag  Ag56      1.0  0.65792  0.72316  0.70077  1.0000 0.3422101502
Ag  Ag57      1.0  0.75148  0.95075  0.00700  1.0000 0.410734943
Ag  Ag58      1.0  0.74852  0.54925  0.00700  1.0000 0.410734943
Ag  Ag59      1.0  0.25148  0.04925  0.49300  1.0000 0.410734943
Ag  Ag60      1.0  0.24852  0.45075  0.49300  1.0000 0.410734943
Ag  Ag61      1.0  0.24852  0.04925  0.99300  1.0000 0.410734943
Ag  Ag62      1.0  0.25148  0.45075  0.99300  1.0000 0.410734943
Ag  Ag63      1.0  0.74852  0.95075  0.50700  1.0000 0.410734943
Ag  Ag64      1.0  0.75148  0.54925  0.50700  1.0000 0.410734943
H   H1        1.0  0.37100  0.76370  0.60080  1.0000 0.11866925
H   H2        1.0  0.12900  0.73630  0.60080  1.0000 0.11866925
H   H3        1.0  0.87100  0.23630  0.89920  1.0000 0.11866925
H   H4        1.0  0.62900  0.26370  0.89920  1.0000 0.11866925
H   H5        1.0  0.62900  0.23630  0.39920  1.0000 0.11866925
H   H6        1.0  0.87100  0.26370  0.39920  1.0000 0.11866925
H   H7        1.0  0.12900  0.76370  0.10080  1.0000 0.11866925
H   H8        1.0  0.37100  0.73630  0.10080  1.0000 0.11866925
H   H9        1.0  0.32810  0.81450  0.54090  1.0000 0.11866925
H   H10       1.0  0.17190  0.68550  0.54090  1.0000 0.11866925
H   H11       1.0  0.82810  0.18550  0.95910  1.0000 0.11866925
H   H12       1.0  0.67190  0.31450  0.95910  1.0000 0.11866925
H   H13       1.0  0.67190  0.18550  0.45910  1.0000 0.11866925
H   H14       1.0  0.82810  0.31450  0.45910  1.0000 0.11866925
H   H15       1.0  0.17190  0.81450  0.04090  1.0000 0.11866925
H   H16       1.0  0.32810  0.68550  0.04090  1.0000 0.11866925
H   H17       1.0  0.19450  0.92050  0.61570  1.0000 0.1115832104
H   H18       1.0  0.30550  0.57950  0.61570  1.0000 0.1115832104
H   H19       1.0  0.69450  0.07950  0.88430  1.0000 0.1115832104
H   H20       1.0  0.80550  0.42050  0.88430  1.0000 0.1115832104
H   H21       1.0  0.80550  0.07950  0.38430  1.0000 0.1115832104
H   H22       1.0  0.69450  0.42050  0.38430  1.0000 0.1115832104
H   H23       1.0  0.30550  0.92050  0.11570  1.0000 0.1115832104
H   H24       1.0  0.19450  0.57950  0.11570  1.0000 0.1115832104
H   H25       1.0  0.23440  0.86920  0.67640  1.0000 0.1270021925
H   H26       1.0  0.26560  0.63080  0.67640  1.0000 0.1270021925
H   H27       1.0  0.73440  0.13080  0.82360  1.0000 0.1270021925
H   H28       1.0  0.76560  0.36920  0.82360  1.0000 0.1270021925
H   H29       1.0  0.76560  0.13080  0.32360  1.0000 0.1270021925
H   H30       1.0  0.73440  0.36920  0.32360  1.0000 0.1270021925
H   H31       1.0  0.26560  0.86920  0.17640  1.0000 0.1270021925
H   H32       1.0  0.23440  0.63080  0.17640  1.0000 0.1270021925
H   H33       1.0  0.37560  0.72980  0.89770  1.0000 0.1270021925
H   H34       1.0  0.12440  0.77020  0.89770  1.0000 0.1270021925
H   H35       1.0  0.87560  0.27020  0.60230  1.0000 0.1270021925
H   H36       1.0  0.62440  0.22980  0.60230  1.0000 0.1270021925
H   H37       1.0  0.62440  0.27020  0.10230  1.0000 0.1270021925
H   H38       1.0  0.87560  0.22980  0.10230  1.0000 0.1270021925
H   H39       1.0  0.12440  0.72980  0.39770  1.0000 0.1270021925
H   H40       1.0  0.37560  0.77020  0.39770  1.0000 0.1270021925
H   H41       1.0  0.41480  0.68240  0.95980  1.0000 0.1115832104
H   H42       1.0  0.08520  0.81760  0.95980  1.0000 0.1115832104
H   H43       1.0  0.91480  0.31760  0.54020  1.0000 0.1115832104
H   H44       1.0  0.58520  0.18240  0.54020  1.0000 0.1115832104
H   H45       1.0  0.58520  0.31760  0.04020  1.0000 0.1115832104
H   H46       1.0  0.91480  0.18240  0.04020  1.0000 0.1115832104
H   H47       1.0  0.08520  0.68240  0.45980  1.0000 0.1115832104
H   H48       1.0  0.41480  0.81760  0.45980  1.0000 0.1115832104
H   H49       1.0  0.58580  0.58500  0.89460  1.0000 0.11866925
H   H50       1.0  0.91420  0.91500  0.89460  1.0000 0.11866925
H   H51       1.0  0.08580  0.41500  0.60540  1.0000 0.11866925
H   H52       1.0  0.41420  0.08500  0.60540  1.0000 0.11866925
H   H53       1.0  0.41420  0.41500  0.10540  1.0000 0.11866925
H   H54       1.0  0.08580  0.08500  0.10540  1.0000 0.11866925
H   H55       1.0  0.91420  0.58500  0.39460  1.0000 0.11866925
H   H56       1.0  0.58580  0.91500  0.39460  1.0000 0.11866925
H   H57       1.0  0.53500  0.62600  0.83020  1.0000 0.11866925
H   H58       1.0  0.96500  0.87400  0.83020  1.0000 0.11866925
H   H59       1.0  0.03500  0.37400  0.66980  1.0000 0.11866925
H   H60       1.0  0.46500  0.12600  0.66980  1.0000 0.11866925
H   H61       1.0  0.46500  0.37400  0.16980  1.0000 0.11866925
H   H62       1.0  0.03500  0.12600  0.16980  1.0000 0.11866925
H   H63       1.0  0.96500  0.62600  0.33020  1.0000 0.11866925
H   H64       1.0  0.53500  0.87400  0.33020  1.0000 0.11866925
H   H65       1.0  0.49630  0.63610  0.31690  1.0000 0.11866925
H   H66       1.0  0.00370  0.86390  0.31690  1.0000 0.11866925
H   H67       1.0  0.99630  0.36390  0.18310  1.0000 0.11866925
H   H68       1.0  0.50370  0.13610  0.18310  1.0000 0.11866925
H   H69       1.0  0.50370  0.36390  0.68310  1.0000 0.11866925
H   H70       1.0  0.99630  0.13610  0.68310  1.0000 0.11866925
H   H71       1.0  0.00370  0.63610  0.81690  1.0000 0.11866925
H   H72       1.0  0.49630  0.86390  0.81690  1.0000 0.11866925
H   H73       1.0  0.45830  0.58010  0.37540  1.0000 0.11866925
H   H74       1.0  0.04170  0.91990  0.37540  1.0000 0.11866925
H   H75       1.0  0.95830  0.41990  0.12460  1.0000 0.11866925
H   H76       1.0  0.54170  0.08010  0.12460  1.0000 0.11866925
H   H77       1.0  0.54170  0.41990  0.62460  1.0000 0.11866925
H   H78       1.0  0.95830  0.08010  0.62460  1.0000 0.11866925
H   H79       1.0  0.04170  0.58010  0.87540  1.0000 0.11866925
H   H80       1.0  0.45830  0.91990  0.87540  1.0000 0.11866925
H   H81       1.0  0.58110  0.68620  0.45400  1.0000 0.11866925
H   H82       1.0  0.91890  0.81380  0.45400  1.0000 0.11866925
H   H83       1.0  0.08110  0.31380  0.04600  1.0000 0.11866925
H   H84       1.0  0.41890  0.18620  0.04600  1.0000 0.11866925
H   H85       1.0  0.41890  0.31380  0.54600  1.0000 0.11866925
H   H86       1.0  0.08110  0.18620  0.54600  1.0000 0.11866925
H   H87       1.0  0.91890  0.68620  0.95400  1.0000 0.11866925
H   H88       1.0  0.58110  0.81380  0.95400  1.0000 0.11866925
H   H89       1.0  0.63030  0.73790  0.39360  1.0000 0.11866925
H   H90       1.0  0.86970  0.76210  0.39360  1.0000 0.11866925
H   H91       1.0  0.13030  0.26210  0.10640  1.0000 0.11866925
H   H92       1.0  0.36970  0.23790  0.10640  1.0000 0.11866925
H   H93       1.0  0.36970  0.26210  0.60640  1.0000 0.11866925
H   H94       1.0  0.13030  0.23790  0.60640  1.0000 0.11866925
H   H95       1.0  0.86970  0.73790  0.89360  1.0000 0.11866925
H   H96       1.0  0.63030  0.76210  0.89360  1.0000 0.11866925
H   H97       1.0  0.17670  0.90830  0.76300  1.0000 0.11866925
H   H98       1.0  0.32330  0.59170  0.76300  1.0000 0.11866925
H   H99       1.0  0.67670  0.09170  0.73700  1.0000 0.11866925
H   H100      1.0  0.82330  0.40830  0.73700  1.0000 0.11866925
H   H101      1.0  0.82330  0.09170  0.23700  1.0000 0.11866925
H   H102      1.0  0.67670  0.40830  0.23700  1.0000 0.11866925
H   H103      1.0  0.32330  0.90830  0.26300  1.0000 0.11866925
H   H104      1.0  0.17670  0.59170  0.26300  1.0000 0.11866925
H   H105      1.0  0.09720  0.98200  0.79770  1.0000 0.1115832104
H   H106      1.0  0.40280  0.51800  0.79770  1.0000 0.1115832104
H   H107      1.0  0.59720  0.01800  0.70230  1.0000 0.1115832104
H   H108      1.0  0.90280  0.48200  0.70230  1.0000 0.1115832104
H   H109      1.0  0.90280  0.01800  0.20230  1.0000 0.1115832104
H   H110      1.0  0.59720  0.48200  0.20230  1.0000 0.1115832104
H   H111      1.0  0.40280  0.98200  0.29770  1.0000 0.1115832104
H   H112      1.0  0.09720  0.51800  0.29770  1.0000 0.1115832104
H   H113      1.0  0.11960  0.99540  0.87340  1.0000 0.1115832104
H   H114      1.0  0.38040  0.50460  0.87340  1.0000 0.1115832104
H   H115      1.0  0.61960  0.00460  0.62660  1.0000 0.1115832104
H   H116      1.0  0.88040  0.49540  0.62660  1.0000 0.1115832104
H   H117      1.0  0.88040  0.00460  0.12660  1.0000 0.1115832104
H   H118      1.0  0.61960  0.49540  0.12660  1.0000 0.1115832104
H   H119      1.0  0.38040  0.99540  0.37340  1.0000 0.1115832104
H   H120      1.0  0.11960  0.50460  0.37340  1.0000 0.1115832104
H   H121      1.0  0.29780  0.86250  0.87630  1.0000 0.1115832104
H   H122      1.0  0.20220  0.63750  0.87630  1.0000 0.1115832104
H   H123      1.0  0.79780  0.13750  0.62370  1.0000 0.1115832104
H   H124      1.0  0.70220  0.36250  0.62370  1.0000 0.1115832104
H   H125      1.0  0.70220  0.13750  0.12370  1.0000 0.1115832104
H   H126      1.0  0.79780  0.36250  0.12370  1.0000 0.1115832104
H   H127      1.0  0.20220  0.86250  0.37630  1.0000 0.1115832104
H   H128      1.0  0.29780  0.63750  0.37630  1.0000 0.1115832104
H   H129      1.0  0.58070  0.57100  0.73120  1.0000 0.11866925
H   H130      1.0  0.91930  0.92900  0.73120  1.0000 0.11866925
H   H131      1.0  0.08070  0.42900  0.76880  1.0000 0.11866925
H   H132      1.0  0.41930  0.07100  0.76880  1.0000 0.11866925
H   H133      1.0  0.41930  0.42900  0.26880  1.0000 0.11866925
H   H134      1.0  0.08070  0.07100  0.26880  1.0000 0.11866925
H   H135      1.0  0.91930  0.57100  0.23120  1.0000 0.11866925
H   H136      1.0  0.58070  0.92900  0.23120  1.0000 0.11866925
H   H137      1.0  0.65230  0.50320  0.68840  1.0000 0.11866925
H   H138      1.0  0.84770  0.99680  0.68840  1.0000 0.11866925
H   H139      1.0  0.15230  0.49680  0.81160  1.0000 0.11866925
H   H140      1.0  0.34770  0.00320  0.81160  1.0000 0.11866925
H   H141      1.0  0.34770  0.49680  0.31160  1.0000 0.11866925
H   H142      1.0  0.15230  0.00320  0.31160  1.0000 0.11866925
H   H143      1.0  0.84770  0.50320  0.18840  1.0000 0.11866925
H   H144      1.0  0.65230  0.99680  0.18840  1.0000 0.11866925
H   H145      1.0  0.63580  0.50210  0.61480  1.0000 0.1115832104
H   H146      1.0  0.86420  0.99790  0.61480  1.0000 0.1115832104
H   H147      1.0  0.13580  0.49790  0.88520  1.0000 0.1115832104
H   H148      1.0  0.36420  0.00210  0.88520  1.0000 0.1115832104
H   H149      1.0  0.36420  0.49790  0.38520  1.0000 0.1115832104
H   H150      1.0  0.13580  0.00210  0.38520  1.0000 0.1115832104
H   H151      1.0  0.86420  0.50210  0.11480  1.0000 0.1115832104
H   H152      1.0  0.63580  0.99790  0.11480  1.0000 0.1115832104
H   H153      1.0  0.46930  0.63860  0.62080  1.0000 0.11866925
H   H154      1.0  0.03070  0.86140  0.62080  1.0000 0.11866925
H   H155      1.0  0.96930  0.36140  0.87920  1.0000 0.11866925
H   H156      1.0  0.53070  0.13860  0.87920  1.0000 0.11866925
H   H157      1.0  0.53070  0.36140  0.37920  1.0000 0.11866925
H   H158      1.0  0.96930  0.13860  0.37920  1.0000 0.11866925
H   H159      1.0  0.03070  0.63860  0.12080  1.0000 0.11866925
H   H160      1.0  0.46930  0.86140  0.12080  1.0000 0.11866925
H   H161      1.0  0.78370  0.87460  0.16170  1.0000 0.11866925
H   H162      1.0  0.71630  0.62540  0.16170  1.0000 0.11866925
H   H163      1.0  0.28370  0.12540  0.33830  1.0000 0.11866925
H   H164      1.0  0.21630  0.37460  0.33830  1.0000 0.11866925
H   H165      1.0  0.21630  0.12540  0.83830  1.0000 0.11866925
H   H166      1.0  0.28370  0.37460  0.83830  1.0000 0.11866925
H   H167      1.0  0.71630  0.87460  0.66170  1.0000 0.11866925
H   H168      1.0  0.78370  0.62540  0.66170  1.0000 0.11866925
H   H169      1.0  0.80910  0.92540  0.09920  1.0000 0.11866925
H   H170      1.0  0.69090  0.57460  0.09920  1.0000 0.11866925
H   H171      1.0  0.30910  0.07460  0.40080  1.0000 0.11866925
H   H172      1.0  0.19090  0.42540  0.40080  1.0000 0.11866925
H   H173      1.0  0.19090  0.07460  0.90080  1.0000 0.11866925
H   H174      1.0  0.30910  0.42540  0.90080  1.0000 0.11866925
H   H175      1.0  0.69090  0.92540  0.59920  1.0000 0.11866925
H   H176      1.0  0.80910  0.57460  0.59920  1.0000 0.11866925
H   H177      1.0  0.66030  0.81910  0.03030  1.0000 0.11866925
H   H178      1.0  0.83970  0.68090  0.03030  1.0000 0.11866925
H   H179      1.0  0.16030  0.18090  0.46970  1.0000 0.11866925
H   H180      1.0  0.33970  0.31910  0.46970  1.0000 0.11866925
H   H181      1.0  0.33970  0.18090  0.96970  1.0000 0.11866925
H   H182      1.0  0.16030  0.31910  0.96970  1.0000 0.11866925
H   H183      1.0  0.83970  0.81910  0.53030  1.0000 0.11866925
H   H184      1.0  0.66030  0.68090  0.53030  1.0000 0.11866925
H   H185      1.0  0.63790  0.76650  0.09150  1.0000 0.11866925
H   H186      1.0  0.86210  0.73350  0.09150  1.0000 0.11866925
H   H187      1.0  0.13790  0.23350  0.40850  1.0000 0.11866925
H   H188      1.0  0.36210  0.26650  0.40850  1.0000 0.11866925
H   H189      1.0  0.36210  0.23350  0.90850  1.0000 0.11866925
H   H190      1.0  0.13790  0.26650  0.90850  1.0000 0.11866925
H   H191      1.0  0.86210  0.76650  0.59150  1.0000 0.11866925
H   H192      1.0  0.63790  0.73350  0.59150  1.0000 0.11866925
H   H193      1.0  0.44120  0.58560  0.24490  1.0000 0.11866925
H   H194      1.0  0.05880  0.91440  0.24490  1.0000 0.11866925
H   H195      1.0  0.94120  0.41440  0.25510  1.0000 0.11866925
H   H196      1.0  0.55880  0.08560  0.25510  1.0000 0.11866925
H   H197      1.0  0.55880  0.41440  0.75510  1.0000 0.11866925
H   H198      1.0  0.94120  0.08560  0.75510  1.0000 0.11866925
H   H199      1.0  0.05880  0.58560  0.74490  1.0000 0.11866925
H   H200      1.0  0.44120  0.91440  0.74490  1.0000 0.11866925
H   H201      1.0  0.35750  0.51310  0.21210  1.0000 0.1115832104
H   H202      1.0  0.14250  0.98690  0.21210  1.0000 0.1115832104
H   H203      1.0  0.85750  0.48690  0.28790  1.0000 0.1115832104
H   H204      1.0  0.64250  0.01310  0.28790  1.0000 0.1115832104
H   H205      1.0  0.64250  0.48690  0.78790  1.0000 0.1115832104
H   H206      1.0  0.85750  0.01310  0.78790  1.0000 0.1115832104
H   H207      1.0  0.14250  0.51310  0.71210  1.0000 0.1115832104
H   H208      1.0  0.35750  0.98690  0.71210  1.0000 0.1115832104
H   H209      1.0  0.36650  0.49750  0.13880  1.0000 0.1115832104
H   H210      1.0  0.13350  0.00250  0.13880  1.0000 0.1115832104
H   H211      1.0  0.86650  0.50250  0.36120  1.0000 0.1115832104
H   H212      1.0  0.63350  0.99750  0.36120  1.0000 0.1115832104
H   H213      1.0  0.63350  0.50250  0.86120  1.0000 0.1115832104
H   H214      1.0  0.86650  0.99750  0.86120  1.0000 0.1115832104
H   H215      1.0  0.13350  0.49750  0.63880  1.0000 0.1115832104
H   H216      1.0  0.36650  0.00250  0.63880  1.0000 0.1115832104
H   H217      1.0  0.53210  0.63340  0.12490  1.0000 0.11866925
H   H218      1.0  0.96790  0.86660  0.12490  1.0000 0.11866925
H   H219      1.0  0.03210  0.36660  0.37510  1.0000 0.11866925
H   H220      1.0  0.46790  0.13340  0.37510  1.0000 0.11866925
H   H221      1.0  0.46790  0.36660  0.87510  1.0000 0.11866925
H   H222      1.0  0.03210  0.13340  0.87510  1.0000 0.11866925
H   H223      1.0  0.96790  0.63340  0.62490  1.0000 0.11866925
H   H224      1.0  0.53210  0.86660  0.62490  1.0000 0.11866925
H   H225      1.0  0.82510  0.92730  0.24750  1.0000 0.11866925
H   H226      1.0  0.67490  0.57270  0.24750  1.0000 0.11866925
H   H227      1.0  0.32510  0.07270  0.25250  1.0000 0.11866925
H   H228      1.0  0.17490  0.42730  0.25250  1.0000 0.11866925
H   H229      1.0  0.17490  0.07270  0.75250  1.0000 0.11866925
H   H230      1.0  0.32510  0.42730  0.75250  1.0000 0.11866925
H   H231      1.0  0.67490  0.92730  0.74750  1.0000 0.11866925
H   H232      1.0  0.82510  0.57270  0.74750  1.0000 0.11866925
H   H233      1.0  0.90600  0.00260  0.28240  1.0000 0.1115832104
H   H234      1.0  0.59400  0.49740  0.28240  1.0000 0.1115832104
H   H235      1.0  0.40600  0.99740  0.21760  1.0000 0.1115832104
H   H236      1.0  0.09400  0.50260  0.21760  1.0000 0.1115832104
H   H237      1.0  0.09400  0.99740  0.71760  1.0000 0.1115832104
H   H238      1.0  0.40600  0.50260  0.71760  1.0000 0.1115832104
H   H239      1.0  0.59400  0.00260  0.78240  1.0000 0.1115832104
H   H240      1.0  0.90600  0.49740  0.78240  1.0000 0.1115832104
H   H241      1.0  0.89210  0.01400  0.35590  1.0000 0.1115832104
H   H242      1.0  0.60790  0.48600  0.35590  1.0000 0.1115832104
H   H243      1.0  0.39210  0.98600  0.14410  1.0000 0.1115832104
H   H244      1.0  0.10790  0.51400  0.14410  1.0000 0.1115832104
H   H245      1.0  0.10790  0.98600  0.64410  1.0000 0.1115832104
H   H246      1.0  0.39210  0.51400  0.64410  1.0000 0.1115832104
H   H247      1.0  0.60790  0.01400  0.85590  1.0000 0.1115832104
H   H248      1.0  0.89210  0.48600  0.85590  1.0000 0.1115832104
H   H249      1.0  0.72780  0.87550  0.36290  1.0000 0.11866925
H   H250      1.0  0.77220  0.62450  0.36290  1.0000 0.11866925
H   H251      1.0  0.22780  0.12450  0.13710  1.0000 0.11866925
H   H252      1.0  0.27220  0.37550  0.13710  1.0000 0.11866925
H   H253      1.0  0.27220  0.12450  0.63710  1.0000 0.11866925
H   H254      1.0  0.22780  0.37550  0.63710  1.0000 0.11866925
H   H255      1.0  0.77220  0.87550  0.86290  1.0000 0.11866925
H   H256      1.0  0.72780  0.62450  0.86290  1.0000 0.11866925
C   C1        1.0  0.33420  0.79640  0.60490  1.0000 0.0515165001
C   C2        1.0  0.16580  0.70360  0.60490  1.0000 0.0515165001
C   C3        1.0  0.83420  0.20360  0.89510  1.0000 0.0515165001
C   C4        1.0  0.66580  0.29640  0.89510  1.0000 0.0515165001
C   C5        1.0  0.66580  0.20360  0.39510  1.0000 0.0515165001
C   C6        1.0  0.83420  0.29640  0.39510  1.0000 0.0515165001
C   C7        1.0  0.16580  0.79640  0.10490  1.0000 0.0515165001
C   C8        1.0  0.33420  0.70360  0.10490  1.0000 0.0515165001
C   C9        1.0  0.30840  0.82690  0.56880  1.0000 -0.0020391092
C   C10       1.0  0.19160  0.67310  0.56880  1.0000 -0.0020391092
C   C11       1.0  0.80840  0.17310  0.93120  1.0000 -0.0020391092
C   C12       1.0  0.69160  0.32690  0.93120  1.0000 -0.0020391092
C   C13       1.0  0.69160  0.17310  0.43120  1.0000 -0.0020391092
C   C14       1.0  0.80840  0.32690  0.43120  1.0000 -0.0020391092
C   C15       1.0  0.19160  0.82690  0.06880  1.0000 -0.0020391092
C   C16       1.0  0.30840  0.67310  0.06880  1.0000 -0.0020391092
C   C17       1.0  0.23130  0.88760  0.61210  1.0000 0.0310481943
C   C18       1.0  0.26870  0.61240  0.61210  1.0000 0.0310481943
C   C19       1.0  0.73130  0.11240  0.88790  1.0000 0.0310481943
C   C20       1.0  0.76870  0.38760  0.88790  1.0000 0.0310481943
C   C21       1.0  0.76870  0.11240  0.38790  1.0000 0.0310481943
C   C22       1.0  0.73130  0.38760  0.38790  1.0000 0.0310481943
C   C23       1.0  0.26870  0.88760  0.11210  1.0000 0.0310481943
C   C24       1.0  0.23130  0.61240  0.11210  1.0000 0.0310481943
C   C25       1.0  0.25540  0.85760  0.64850  1.0000 0.0099745872
C   C26       1.0  0.24460  0.64240  0.64850  1.0000 0.0099745872
C   C27       1.0  0.75540  0.14240  0.85150  1.0000 0.0099745872
C   C28       1.0  0.74460  0.35760  0.85150  1.0000 0.0099745872
C   C29       1.0  0.74460  0.14240  0.35150  1.0000 0.0099745872
C   C30       1.0  0.75540  0.35760  0.35150  1.0000 0.0099745872
C   C31       1.0  0.24460  0.85760  0.14850  1.0000 0.0099745872
C   C32       1.0  0.25540  0.64240  0.14850  1.0000 0.0099745872
C   C33       1.0  0.41740  0.69890  0.89600  1.0000 -0.0173852857
C   C34       1.0  0.08260  0.80110  0.89600  1.0000 -0.0173852857
C   C35       1.0  0.91740  0.30110  0.60400  1.0000 -0.0173852857
C   C36       1.0  0.58260  0.19890  0.60400  1.0000 -0.0173852857
C   C37       1.0  0.58260  0.30110  0.10400  1.0000 -0.0173852857
C   C38       1.0  0.91740  0.19890  0.10400  1.0000 -0.0173852857
C   C39       1.0  0.08260  0.69890  0.39600  1.0000 -0.0173852857
C   C40       1.0  0.41740  0.80110  0.39600  1.0000 -0.0173852857
C   C41       1.0  0.43990  0.67010  0.93290  1.0000 0.037048813
C   C42       1.0  0.06010  0.82990  0.93290  1.0000 0.037048813
C   C43       1.0  0.93990  0.32990  0.56710  1.0000 0.037048813
C   C44       1.0  0.56010  0.17010  0.56710  1.0000 0.037048813
C   C45       1.0  0.56010  0.32990  0.06710  1.0000 0.037048813
C   C46       1.0  0.93990  0.17010  0.06710  1.0000 0.037048813
C   C47       1.0  0.06010  0.67010  0.43290  1.0000 0.037048813
C   C48       1.0  0.43990  0.82990  0.43290  1.0000 0.037048813
C   C49       1.0  0.53780  0.61260  0.89500  1.0000 0.021860957
C   C50       1.0  0.96220  0.88740  0.89500  1.0000 0.021860957
C   C51       1.0  0.03780  0.38740  0.60500  1.0000 0.021860957
C   C52       1.0  0.46220  0.11260  0.60500  1.0000 0.021860957
C   C53       1.0  0.46220  0.38740  0.10500  1.0000 0.021860957
C   C54       1.0  0.03780  0.11260  0.10500  1.0000 0.021860957
C   C55       1.0  0.96220  0.61260  0.39500  1.0000 0.021860957
C   C56       1.0  0.53780  0.88740  0.39500  1.0000 0.021860957
C   C57       1.0  0.51130  0.63970  0.85700  1.0000 0.0515165001
C   C58       1.0  0.98870  0.86030  0.85700  1.0000 0.0515165001
C   C59       1.0  0.01130  0.36030  0.64300  1.0000 0.0515165001
C   C60       1.0  0.48870  0.13970  0.64300  1.0000 0.0515165001
C   C61       1.0  0.48870  0.36030  0.14300  1.0000 0.0515165001
C   C62       1.0  0.01130  0.13970  0.14300  1.0000 0.0515165001
C   C63       1.0  0.98870  0.63970  0.35700  1.0000 0.0515165001
C   C64       1.0  0.51130  0.86030  0.35700  1.0000 0.0515165001
C   C65       1.0  0.51590  0.64730  0.34510  1.0000 0.0714431022
C   C66       1.0  0.98410  0.85270  0.34510  1.0000 0.0714431022
C   C67       1.0  0.01590  0.35270  0.15490  1.0000 0.0714431022
C   C68       1.0  0.48410  0.14730  0.15490  1.0000 0.0714431022
C   C69       1.0  0.48410  0.35270  0.65490  1.0000 0.0714431022
C   C70       1.0  0.01590  0.14730  0.65490  1.0000 0.0714431022
C   C71       1.0  0.98410  0.64730  0.84510  1.0000 0.0714431022
C   C72       1.0  0.51590  0.85270  0.84510  1.0000 0.0714431022
C   C73       1.0  0.49260  0.61370  0.38030  1.0000 0.021860957
C   C74       1.0  0.00740  0.88630  0.38030  1.0000 0.021860957
C   C75       1.0  0.99260  0.38630  0.11970  1.0000 0.021860957
C   C76       1.0  0.50740  0.11370  0.11970  1.0000 0.021860957
C   C77       1.0  0.50740  0.38630  0.61970  1.0000 0.021860957
C   C78       1.0  0.99260  0.11370  0.61970  1.0000 0.021860957
C   C79       1.0  0.00740  0.61370  0.88030  1.0000 0.021860957
C   C80       1.0  0.49260  0.88630  0.88030  1.0000 0.021860957
C   C81       1.0  0.56460  0.67410  0.42560  1.0000 0.021860957
C   C82       1.0  0.93540  0.82590  0.42560  1.0000 0.021860957
C   C83       1.0  0.06460  0.32590  0.07440  1.0000 0.021860957
C   C84       1.0  0.43540  0.17410  0.07440  1.0000 0.021860957
C   C85       1.0  0.43540  0.32590  0.57440  1.0000 0.021860957
C   C86       1.0  0.06460  0.17410  0.57440  1.0000 0.021860957
C   C87       1.0  0.93540  0.67410  0.92560  1.0000 0.021860957
C   C88       1.0  0.56460  0.82590  0.92560  1.0000 0.021860957
C   C89       1.0  0.59120  0.70610  0.38940  1.0000 0.0099745872
C   C90       1.0  0.90880  0.79390  0.38940  1.0000 0.0099745872
C   C91       1.0  0.09120  0.29390  0.11060  1.0000 0.0099745872
C   C92       1.0  0.40880  0.20610  0.11060  1.0000 0.0099745872
C   C93       1.0  0.40880  0.29390  0.61060  1.0000 0.0099745872
C   C94       1.0  0.09120  0.20610  0.61060  1.0000 0.0099745872
C   C95       1.0  0.90880  0.70610  0.88940  1.0000 0.0099745872
C   C96       1.0  0.59120  0.79390  0.88940  1.0000 0.0099745872
C   C97       1.0  0.29070  0.83010  0.79320  1.0000 0.5404761696
C   C98       1.0  0.20930  0.66990  0.79320  1.0000 0.5404761696
C   C99       1.0  0.79070  0.16990  0.70680  1.0000 0.5404761696
C   C100      1.0  0.70930  0.33010  0.70680  1.0000 0.5404761696
C   C101      1.0  0.70930  0.16990  0.20680  1.0000 0.5404761696
C   C102      1.0  0.79070  0.33010  0.20680  1.0000 0.5404761696
C   C103      1.0  0.20930  0.83010  0.29320  1.0000 0.5404761696
C   C104      1.0  0.29070  0.66990  0.29320  1.0000 0.5404761696
C   C105      1.0  0.24160  0.87940  0.81670  1.0000 -0.029778554
C   C106      1.0  0.25840  0.62060  0.81670  1.0000 -0.029778554
C   C107      1.0  0.74160  0.12060  0.68330  1.0000 -0.029778554
C   C108      1.0  0.75840  0.37940  0.68330  1.0000 -0.029778554
C   C109      1.0  0.75840  0.12060  0.18330  1.0000 -0.029778554
C   C110      1.0  0.74160  0.37940  0.18330  1.0000 -0.029778554
C   C111      1.0  0.25840  0.87940  0.31670  1.0000 -0.029778554
C   C112      1.0  0.24160  0.62060  0.31670  1.0000 -0.029778554
C   C113      1.0  0.18440  0.91410  0.79330  1.0000 -0.10899268
C   C114      1.0  0.31560  0.58590  0.79330  1.0000 -0.10899268
C   C115      1.0  0.68440  0.08590  0.70670  1.0000 -0.10899268
C   C116      1.0  0.81560  0.41410  0.70670  1.0000 -0.10899268
C   C117      1.0  0.81560  0.08590  0.20670  1.0000 -0.10899268
C   C118      1.0  0.68440  0.41410  0.20670  1.0000 -0.10899268
C   C119      1.0  0.31560  0.91410  0.29330  1.0000 -0.10899268
C   C120      1.0  0.18440  0.58590  0.29330  1.0000 -0.10899268
C   C121      1.0  0.13760  0.95790  0.81370  1.0000 -0.10899268
C   C122      1.0  0.36240  0.54210  0.81370  1.0000 -0.10899268
C   C123      1.0  0.63760  0.04210  0.68630  1.0000 -0.10899268
C   C124      1.0  0.86240  0.45790  0.68630  1.0000 -0.10899268
C   C125      1.0  0.86240  0.04210  0.18630  1.0000 -0.10899268
C   C126      1.0  0.63760  0.45790  0.18630  1.0000 -0.10899268
C   C127      1.0  0.36240  0.95790  0.31370  1.0000 -0.10899268
C   C128      1.0  0.13760  0.54210  0.31370  1.0000 -0.10899268
C   C129      1.0  0.15160  0.96580  0.85890  1.0000 -0.10899268
C   C130      1.0  0.34840  0.53420  0.85890  1.0000 -0.10899268
C   C131      1.0  0.65160  0.03420  0.64110  1.0000 -0.10899268
C   C132      1.0  0.84840  0.46580  0.64110  1.0000 -0.10899268
C   C133      1.0  0.84840  0.03420  0.14110  1.0000 -0.10899268
C   C134      1.0  0.65160  0.46580  0.14110  1.0000 -0.10899268
C   C135      1.0  0.34840  0.96580  0.35890  1.0000 -0.10899268
C   C136      1.0  0.15160  0.53420  0.35890  1.0000 -0.10899268
C   C137      1.0  0.21040  0.93170  0.88230  1.0000 -0.029778554
C   C138      1.0  0.28960  0.56830  0.88230  1.0000 -0.029778554
C   C139      1.0  0.71040  0.06830  0.61770  1.0000 -0.029778554
C   C140      1.0  0.78960  0.43170  0.61770  1.0000 -0.029778554
C   C141      1.0  0.78960  0.06830  0.11770  1.0000 -0.029778554
C   C142      1.0  0.71040  0.43170  0.11770  1.0000 -0.029778554
C   C143      1.0  0.28960  0.93170  0.38230  1.0000 -0.029778554
C   C144      1.0  0.21040  0.56830  0.38230  1.0000 -0.029778554
C   C145      1.0  0.25710  0.88680  0.86080  1.0000 -0.1383852806
C   C146      1.0  0.24290  0.61320  0.86080  1.0000 -0.1383852806
C   C147      1.0  0.75710  0.11320  0.63920  1.0000 -0.1383852806
C   C148      1.0  0.74290  0.38680  0.63920  1.0000 -0.1383852806
C   C149      1.0  0.74290  0.11320  0.13920  1.0000 -0.1383852806
C   C150      1.0  0.75710  0.38680  0.13920  1.0000 -0.1383852806
C   C151      1.0  0.24290  0.88680  0.36080  1.0000 -0.1383852806
C   C152      1.0  0.25710  0.61320  0.36080  1.0000 -0.1383852806
C   C153      1.0  0.22680  0.94170  0.92990  1.0000 0.5483046387
C   C154      1.0  0.27320  0.55830  0.92990  1.0000 0.5483046387
C   C155      1.0  0.72680  0.05830  0.57010  1.0000 0.5483046387
C   C156      1.0  0.77320  0.44170  0.57010  1.0000 0.5483046387
C   C157      1.0  0.77320  0.05830  0.07010  1.0000 0.5483046387
C   C158      1.0  0.72680  0.44170  0.07010  1.0000 0.5483046387
C   C159      1.0  0.27320  0.94170  0.42990  1.0000 0.5483046387
C   C160      1.0  0.22680  0.55830  0.42990  1.0000 0.5483046387
C   C161      1.0  0.47160  0.65920  0.70580  1.0000 0.530675019
C   C162      1.0  0.02840  0.84080  0.70580  1.0000 0.530675019
C   C163      1.0  0.97160  0.34080  0.79420  1.0000 0.530675019
C   C164      1.0  0.52840  0.15920  0.79420  1.0000 0.530675019
C   C165      1.0  0.52840  0.34080  0.29420  1.0000 0.530675019
C   C166      1.0  0.97160  0.15920  0.29420  1.0000 0.530675019
C   C167      1.0  0.02840  0.65920  0.20580  1.0000 0.530675019
C   C168      1.0  0.47160  0.84080  0.20580  1.0000 0.530675019
C   C169      1.0  0.51350  0.61360  0.68030  1.0000 -0.0525257747
C   C170      1.0  0.98650  0.88640  0.68030  1.0000 -0.0525257747
C   C171      1.0  0.01350  0.38640  0.81970  1.0000 -0.0525257747
C   C172      1.0  0.48650  0.11360  0.81970  1.0000 -0.0525257747
C   C173      1.0  0.48650  0.38640  0.31970  1.0000 -0.0525257747
C   C174      1.0  0.01350  0.11360  0.31970  1.0000 -0.0525257747
C   C175      1.0  0.98650  0.61360  0.18030  1.0000 -0.0525257747
C   C176      1.0  0.51350  0.88640  0.18030  1.0000 -0.0525257747
C   C177      1.0  0.57180  0.57110  0.70060  1.0000 -0.0941141147
C   C178      1.0  0.92820  0.92890  0.70060  1.0000 -0.0941141147
C   C179      1.0  0.07180  0.42890  0.79940  1.0000 -0.0941141147
C   C180      1.0  0.42820  0.07110  0.79940  1.0000 -0.0941141147
C   C181      1.0  0.42820  0.42890  0.29940  1.0000 -0.0941141147
C   C182      1.0  0.07180  0.07110  0.29940  1.0000 -0.0941141147
C   C183      1.0  0.92820  0.57110  0.20060  1.0000 -0.0941141147
C   C184      1.0  0.57180  0.92890  0.20060  1.0000 -0.0941141147
C   C185      1.0  0.61440  0.53100  0.67480  1.0000 -0.10899268
C   C186      1.0  0.88560  0.96900  0.67480  1.0000 -0.10899268
C   C187      1.0  0.11440  0.46900  0.82520  1.0000 -0.10899268
C   C188      1.0  0.38560  0.03100  0.82520  1.0000 -0.10899268
C   C189      1.0  0.38560  0.46900  0.32520  1.0000 -0.10899268
C   C190      1.0  0.11440  0.03100  0.32520  1.0000 -0.10899268
C   C191      1.0  0.88560  0.53100  0.17480  1.0000 -0.10899268
C   C192      1.0  0.61440  0.96900  0.17480  1.0000 -0.10899268
C   C193      1.0  0.60420  0.52960  0.63160  1.0000 -0.10899268
C   C194      1.0  0.89580  0.97040  0.63160  1.0000 -0.10899268
C   C195      1.0  0.10420  0.47040  0.86840  1.0000 -0.10899268
C   C196      1.0  0.39580  0.02960  0.86840  1.0000 -0.10899268
C   C197      1.0  0.39580  0.47040  0.36840  1.0000 -0.10899268
C   C198      1.0  0.10420  0.02960  0.36840  1.0000 -0.10899268
C   C199      1.0  0.89580  0.52960  0.13160  1.0000 -0.10899268
C   C200      1.0  0.60420  0.97040  0.13160  1.0000 -0.10899268
C   C201      1.0  0.54650  0.56920  0.61150  1.0000 -0.040646122
C   C202      1.0  0.95350  0.93080  0.61150  1.0000 -0.040646122
C   C203      1.0  0.04650  0.43080  0.88850  1.0000 -0.040646122
C   C204      1.0  0.45350  0.06920  0.88850  1.0000 -0.040646122
C   C205      1.0  0.45350  0.43080  0.38850  1.0000 -0.040646122
C   C206      1.0  0.04650  0.06920  0.38850  1.0000 -0.040646122
C   C207      1.0  0.95350  0.56920  0.11150  1.0000 -0.040646122
C   C208      1.0  0.54650  0.93080  0.11150  1.0000 -0.040646122
C   C209      1.0  0.50510  0.61080  0.63540  1.0000 -0.1159651319
C   C210      1.0  0.99490  0.88920  0.63540  1.0000 -0.1159651319
C   C211      1.0  0.00510  0.38920  0.86460  1.0000 -0.1159651319
C   C212      1.0  0.49490  0.11080  0.86460  1.0000 -0.1159651319
C   C213      1.0  0.49490  0.38920  0.36460  1.0000 -0.1159651319
C   C214      1.0  0.00510  0.11080  0.36460  1.0000 -0.1159651319
C   C215      1.0  0.99490  0.61080  0.13540  1.0000 -0.1159651319
C   C216      1.0  0.50510  0.88920  0.13540  1.0000 -0.1159651319
C   C217      1.0  0.53190  0.56540  0.56390  1.0000 0.5658733014
C   C218      1.0  0.96810  0.93460  0.56390  1.0000 0.5658733014
C   C219      1.0  0.03190  0.43460  0.93610  1.0000 0.5658733014
C   C220      1.0  0.46810  0.06540  0.93610  1.0000 0.5658733014
C   C221      1.0  0.46810  0.43460  0.43610  1.0000 0.5658733014
C   C222      1.0  0.03190  0.06540  0.43610  1.0000 0.5658733014
C   C223      1.0  0.96810  0.56540  0.06390  1.0000 0.5658733014
C   C224      1.0  0.53190  0.93460  0.06390  1.0000 0.5658733014
C   C225      1.0  0.75710  0.86270  0.13500  1.0000 0.021860957
C   C226      1.0  0.74290  0.63730  0.13500  1.0000 0.021860957
C   C227      1.0  0.25710  0.13730  0.36500  1.0000 0.021860957
C   C228      1.0  0.24290  0.36270  0.36500  1.0000 0.021860957
C   C229      1.0  0.24290  0.13730  0.86500  1.0000 0.021860957
C   C230      1.0  0.25710  0.36270  0.86500  1.0000 0.021860957
C   C231      1.0  0.74290  0.86270  0.63500  1.0000 0.021860957
C   C232      1.0  0.75710  0.63730  0.63500  1.0000 0.021860957
C   C233      1.0  0.77310  0.89190  0.09720  1.0000 0.037048813
C   C234      1.0  0.72690  0.60810  0.09720  1.0000 0.037048813
C   C235      1.0  0.27310  0.10810  0.40280  1.0000 0.037048813
C   C236      1.0  0.22690  0.39190  0.40280  1.0000 0.037048813
C   C237      1.0  0.22690  0.10810  0.90280  1.0000 0.037048813
C   C238      1.0  0.27310  0.39190  0.90280  1.0000 0.037048813
C   C239      1.0  0.72690  0.89190  0.59720  1.0000 0.037048813
C   C240      1.0  0.77310  0.60810  0.59720  1.0000 0.037048813
C   C241      1.0  0.68760  0.83070  0.05690  1.0000 0.0007993814
C   C242      1.0  0.81240  0.66930  0.05690  1.0000 0.0007993814
C   C243      1.0  0.18760  0.16930  0.44310  1.0000 0.0007993814
C   C244      1.0  0.31240  0.33070  0.44310  1.0000 0.0007993814
C   C245      1.0  0.31240  0.16930  0.94310  1.0000 0.0007993814
C   C246      1.0  0.18760  0.33070  0.94310  1.0000 0.0007993814
C   C247      1.0  0.81240  0.83070  0.55690  1.0000 0.0007993814
C   C248      1.0  0.68760  0.66930  0.55690  1.0000 0.0007993814
C   C249      1.0  0.67210  0.80060  0.09390  1.0000 0.037048813
C   C250      1.0  0.82790  0.69940  0.09390  1.0000 0.037048813
C   C251      1.0  0.17210  0.19940  0.40610  1.0000 0.037048813
C   C252      1.0  0.32790  0.30060  0.40610  1.0000 0.037048813
C   C253      1.0  0.32790  0.19940  0.90610  1.0000 0.037048813
C   C254      1.0  0.17210  0.30060  0.90610  1.0000 0.037048813
C   C255      1.0  0.82790  0.80060  0.59390  1.0000 0.037048813
C   C256      1.0  0.67210  0.69940  0.59390  1.0000 0.037048813
C   C257      1.0  0.54200  0.66930  0.20640  1.0000 0.530675019
C   C258      1.0  0.95800  0.83070  0.20640  1.0000 0.530675019
C   C259      1.0  0.04200  0.33070  0.29360  1.0000 0.530675019
C   C260      1.0  0.45800  0.16930  0.29360  1.0000 0.530675019
C   C261      1.0  0.45800  0.33070  0.79360  1.0000 0.530675019
C   C262      1.0  0.04200  0.16930  0.79360  1.0000 0.530675019
C   C263      1.0  0.95800  0.66930  0.70640  1.0000 0.530675019
C   C264      1.0  0.54200  0.83070  0.70640  1.0000 0.530675019
C   C265      1.0  0.49290  0.61860  0.18700  1.0000 -0.0173852857
C   C266      1.0  0.00710  0.88140  0.18700  1.0000 -0.0173852857
C   C267      1.0  0.99290  0.38140  0.31300  1.0000 -0.0173852857
C   C268      1.0  0.50710  0.11860  0.31300  1.0000 -0.0173852857
C   C269      1.0  0.50710  0.38140  0.81300  1.0000 -0.0173852857
C   C270      1.0  0.99290  0.11860  0.81300  1.0000 -0.0173852857
C   C271      1.0  0.00710  0.61860  0.68700  1.0000 -0.0173852857
C   C272      1.0  0.49290  0.88140  0.68700  1.0000 -0.0173852857
C   C273      1.0  0.44220  0.58090  0.21420  1.0000 -0.10899268
C   C274      1.0  0.05780  0.91910  0.21420  1.0000 -0.10899268
C   C275      1.0  0.94220  0.41910  0.28580  1.0000 -0.10899268
C   C276      1.0  0.55780  0.08090  0.28580  1.0000 -0.10899268
C   C277      1.0  0.55780  0.41910  0.78580  1.0000 -0.10899268
C   C278      1.0  0.94220  0.08090  0.78580  1.0000 -0.10899268
C   C279      1.0  0.05780  0.58090  0.71420  1.0000 -0.10899268
C   C280      1.0  0.44220  0.91910  0.71420  1.0000 -0.10899268
C   C281      1.0  0.39460  0.53730  0.19470  1.0000 -0.0992090173
C   C282      1.0  0.10540  0.96270  0.19470  1.0000 -0.0992090173
C   C283      1.0  0.89460  0.46270  0.30530  1.0000 -0.0992090173
C   C284      1.0  0.60540  0.03730  0.30530  1.0000 -0.0992090173
C   C285      1.0  0.60540  0.46270  0.80530  1.0000 -0.0992090173
C   C286      1.0  0.89460  0.03730  0.80530  1.0000 -0.0992090173
C   C287      1.0  0.10540  0.53730  0.69470  1.0000 -0.0992090173
C   C288      1.0  0.39460  0.96270  0.69470  1.0000 -0.0992090173
C   C289      1.0  0.39940  0.52820  0.15130  1.0000 -0.10899268
C   C290      1.0  0.10060  0.97180  0.15130  1.0000 -0.10899268
C   C291      1.0  0.89940  0.47180  0.34870  1.0000 -0.10899268
C   C292      1.0  0.60060  0.02820  0.34870  1.0000 -0.10899268
C   C293      1.0  0.60060  0.47180  0.84870  1.0000 -0.10899268
C   C294      1.0  0.89940  0.02820  0.84870  1.0000 -0.10899268
C   C295      1.0  0.10060  0.52820  0.65130  1.0000 -0.10899268
C   C296      1.0  0.39940  0.97180  0.65130  1.0000 -0.10899268
C   C297      1.0  0.45250  0.56350  0.12480  1.0000 -0.029778554
C   C298      1.0  0.04750  0.93650  0.12480  1.0000 -0.029778554
C   C299      1.0  0.95250  0.43650  0.37520  1.0000 -0.029778554
C   C300      1.0  0.54750  0.06350  0.37520  1.0000 -0.029778554
C   C301      1.0  0.54750  0.43650  0.87520  1.0000 -0.029778554
C   C302      1.0  0.95250  0.06350  0.87520  1.0000 -0.029778554
C   C303      1.0  0.04750  0.56350  0.62480  1.0000 -0.029778554
C   C304      1.0  0.45250  0.93650  0.62480  1.0000 -0.029778554
C   C305      1.0  0.49740  0.60870  0.14300  1.0000 -0.1383852806
C   C306      1.0  0.00260  0.89130  0.14300  1.0000 -0.1383852806
C   C307      1.0  0.99740  0.39130  0.35700  1.0000 -0.1383852806
C   C308      1.0  0.50260  0.10870  0.35700  1.0000 -0.1383852806
C   C309      1.0  0.50260  0.39130  0.85700  1.0000 -0.1383852806
C   C310      1.0  0.99740  0.10870  0.85700  1.0000 -0.1383852806
C   C311      1.0  0.00260  0.60870  0.64300  1.0000 -0.1383852806
C   C312      1.0  0.49740  0.89130  0.64300  1.0000 -0.1383852806
C   C313      1.0  0.46120  0.55110  0.07670  1.0000 0.5578927536
C   C314      1.0  0.03880  0.94890  0.07670  1.0000 0.5578927536
C   C315      1.0  0.96120  0.44890  0.42330  1.0000 0.5578927536
C   C316      1.0  0.53880  0.05110  0.42330  1.0000 0.5578927536
C   C317      1.0  0.53880  0.44890  0.92330  1.0000 0.5578927536
C   C318      1.0  0.96120  0.05110  0.92330  1.0000 0.5578927536
C   C319      1.0  0.03880  0.55110  0.57670  1.0000 0.5578927536
C   C320      1.0  0.46120  0.94890  0.57670  1.0000 0.5578927536
C   C321      1.0  0.72410  0.84560  0.28030  1.0000 0.5404761696
C   C322      1.0  0.77590  0.65440  0.28030  1.0000 0.5404761696
C   C323      1.0  0.22410  0.15440  0.21970  1.0000 0.5404761696
C   C324      1.0  0.27590  0.34560  0.21970  1.0000 0.5404761696
C   C325      1.0  0.27590  0.15440  0.71970  1.0000 0.5404761696
C   C326      1.0  0.22410  0.34560  0.71970  1.0000 0.5404761696
C   C327      1.0  0.77590  0.84560  0.78030  1.0000 0.5404761696
C   C328      1.0  0.72410  0.65440  0.78030  1.0000 0.5404761696
C   C329      1.0  0.77350  0.89560  0.30290  1.0000 -0.0146120797
C   C330      1.0  0.72650  0.60440  0.30290  1.0000 -0.0146120797
C   C331      1.0  0.27350  0.10440  0.19710  1.0000 -0.0146120797
C   C332      1.0  0.22650  0.39560  0.19710  1.0000 -0.0146120797
C   C333      1.0  0.22650  0.10440  0.69710  1.0000 -0.0173852857
C   C334      1.0  0.27350  0.39560  0.69710  1.0000 -0.0173852857
C   C335      1.0  0.72650  0.89560  0.80290  1.0000 -0.0173852857
C   C336      1.0  0.77350  0.60440  0.80290  1.0000 -0.0173852857
C   C337      1.0  0.82220  0.93190  0.27820  1.0000 -0.0992090173
C   C338      1.0  0.67780  0.56810  0.27820  1.0000 -0.0992090173
C   C339      1.0  0.32220  0.06810  0.22180  1.0000 -0.0992090173
C   C340      1.0  0.17780  0.43190  0.22180  1.0000 -0.0992090173
C   C341      1.0  0.17780  0.06810  0.72180  1.0000 -0.0992090173
C   C342      1.0  0.32220  0.43190  0.72180  1.0000 -0.0992090173
C   C343      1.0  0.67780  0.93190  0.77820  1.0000 -0.0992090173
C   C344      1.0  0.82220  0.56810  0.77820  1.0000 -0.0992090173
C   C345      1.0  0.86930  0.97710  0.29890  1.0000 -0.10899268
C   C346      1.0  0.63070  0.52290  0.29890  1.0000 -0.10899268
C   C347      1.0  0.36930  0.02290  0.20110  1.0000 -0.10899268
C   C348      1.0  0.13070  0.47710  0.20110  1.0000 -0.10899268
C   C349      1.0  0.13070  0.02290  0.70110  1.0000 -0.10899268
C   C350      1.0  0.36930  0.47710  0.70110  1.0000 -0.10899268
C   C351      1.0  0.63070  0.97710  0.79890  1.0000 -0.10899268
C   C352      1.0  0.86930  0.52290  0.79890  1.0000 -0.10899268
C   C353      1.0  0.86130  0.98340  0.34220  1.0000 -0.10899268
C   C354      1.0  0.63870  0.51660  0.34220  1.0000 -0.10899268
C   C355      1.0  0.36130  0.01660  0.15780  1.0000 -0.10899268
C   C356      1.0  0.13870  0.48340  0.15780  1.0000 -0.10899268
C   C357      1.0  0.13870  0.01660  0.65780  1.0000 -0.10899268
C   C358      1.0  0.36130  0.48340  0.65780  1.0000 -0.10899268
C   C359      1.0  0.63870  0.98340  0.84220  1.0000 -0.10899268
C   C360      1.0  0.86130  0.51660  0.84220  1.0000 -0.10899268
C   C361      1.0  0.80950  0.94660  0.36770  1.0000 -0.029778554
C   C362      1.0  0.69050  0.55340  0.36770  1.0000 -0.029778554
C   C363      1.0  0.30950  0.05340  0.13230  1.0000 -0.029778554
C   C364      1.0  0.19050  0.44660  0.13230  1.0000 -0.029778554
C   C365      1.0  0.19050  0.05340  0.63230  1.0000 -0.029778554
C   C366      1.0  0.30950  0.44660  0.63230  1.0000 -0.029778554
C   C367      1.0  0.69050  0.94660  0.86770  1.0000 -0.029778554
C   C368      1.0  0.80950  0.55340  0.86770  1.0000 -0.029778554
C   C369      1.0  0.76420  0.90140  0.34670  1.0000 -0.1383852806
C   C370      1.0  0.73580  0.59860  0.34670  1.0000 -0.1383852806
C   C371      1.0  0.26420  0.09860  0.15330  1.0000 -0.1383852806
C   C372      1.0  0.23580  0.40140  0.15330  1.0000 -0.1383852806
C   C373      1.0  0.23580  0.09860  0.65330  1.0000 -0.1345271255
C   C374      1.0  0.26420  0.40140  0.65330  1.0000 -0.1345271255
C   C375      1.0  0.73580  0.90140  0.84670  1.0000 -0.1383852806
C   C376      1.0  0.76420  0.59860  0.84670  1.0000 -0.1345271255
C   C377      1.0  0.79980  0.95550  0.41550  1.0000 0.5404761696
C   C378      1.0  0.70020  0.54450  0.41550  1.0000 0.5404761696
C   C379      1.0  0.29980  0.04450  0.08450  1.0000 0.5404761696
C   C380      1.0  0.20020  0.45550  0.08450  1.0000 0.5404761696
C   C381      1.0  0.20020  0.04450  0.58450  1.0000 0.5404761696
C   C382      1.0  0.29980  0.45550  0.58450  1.0000 0.5404761696
C   C383      1.0  0.70020  0.95550  0.91550  1.0000 0.5404761696
C   C384      1.0  0.79980  0.54450  0.91550  1.0000 0.5404761696
N   N1        1.0  0.31060  0.81030  0.64430  1.0000 -0.1668158706
N   N2        1.0  0.18940  0.68970  0.64430  1.0000 -0.1668158706
N   N3        1.0  0.81060  0.18970  0.85570  1.0000 -0.1668158706
N   N4        1.0  0.68940  0.31030  0.85570  1.0000 -0.1668158706
N   N5        1.0  0.68940  0.18970  0.35570  1.0000 -0.1668158706
N   N6        1.0  0.81060  0.31030  0.35570  1.0000 -0.1668158706
N   N7        1.0  0.18940  0.81030  0.14430  1.0000 -0.1668158706
N   N8        1.0  0.31060  0.68970  0.14430  1.0000 -0.1668158706
N   N9        1.0  0.25660  0.87320  0.57190  1.0000 -0.1383852806
N   N10       1.0  0.24340  0.62680  0.57190  1.0000 -0.1383852806
N   N11       1.0  0.75660  0.12680  0.92810  1.0000 -0.1383852806
N   N12       1.0  0.74340  0.37320  0.92810  1.0000 -0.1383852806
N   N13       1.0  0.74340  0.12680  0.42810  1.0000 -0.1383852806
N   N14       1.0  0.75660  0.37320  0.42810  1.0000 -0.1383852806
N   N15       1.0  0.24340  0.87320  0.07190  1.0000 -0.1383852806
N   N16       1.0  0.25660  0.62680  0.07190  1.0000 -0.1383852806
N   N17       1.0  0.45490  0.68360  0.85620  1.0000 -0.159453489
N   N18       1.0  0.04510  0.81640  0.85620  1.0000 -0.159453489
N   N19       1.0  0.95490  0.31640  0.64380  1.0000 -0.159453489
N   N20       1.0  0.54510  0.18360  0.64380  1.0000 -0.159453489
N   N21       1.0  0.54510  0.31640  0.14380  1.0000 -0.159453489
N   N22       1.0  0.95490  0.18360  0.14380  1.0000 -0.159453489
N   N23       1.0  0.04510  0.68360  0.35620  1.0000 -0.159453489
N   N24       1.0  0.45490  0.81640  0.35620  1.0000 -0.159453489
N   N25       1.0  0.49500  0.62600  0.93240  1.0000 -0.1513433442
N   N26       1.0  0.00500  0.87400  0.93240  1.0000 -0.1513433442
N   N27       1.0  0.99500  0.37400  0.56760  1.0000 -0.1513433442
N   N28       1.0  0.50500  0.12600  0.56760  1.0000 -0.1513433442
N   N29       1.0  0.50500  0.37400  0.06760  1.0000 -0.1513433442
N   N30       1.0  0.99500  0.12600  0.06760  1.0000 -0.1513433442
N   N31       1.0  0.00500  0.62600  0.43240  1.0000 -0.1513433442
N   N32       1.0  0.49500  0.87400  0.43240  1.0000 -0.1513433442
N   N33       1.0  0.56280  0.69290  0.34920  1.0000 -0.159453489
N   N34       1.0  0.93720  0.80710  0.34920  1.0000 -0.159453489
N   N35       1.0  0.06280  0.30710  0.15080  1.0000 -0.159453489
N   N36       1.0  0.43720  0.19290  0.15080  1.0000 -0.159453489
N   N37       1.0  0.43720  0.30710  0.65080  1.0000 -0.159453489
N   N38       1.0  0.06280  0.19290  0.65080  1.0000 -0.159453489
N   N39       1.0  0.93720  0.69290  0.84920  1.0000 -0.159453489
N   N40       1.0  0.56280  0.80710  0.84920  1.0000 -0.159453489
N   N41       1.0  0.51650  0.62700  0.42030  1.0000 -0.1383852806
N   N42       1.0  0.98350  0.87300  0.42030  1.0000 -0.1383852806
N   N43       1.0  0.01650  0.37300  0.07970  1.0000 -0.1383852806
N   N44       1.0  0.48350  0.12700  0.07970  1.0000 -0.1383852806
N   N45       1.0  0.48350  0.37300  0.57970  1.0000 -0.1383852806
N   N46       1.0  0.01650  0.12700  0.57970  1.0000 -0.1383852806
N   N47       1.0  0.98350  0.62700  0.92030  1.0000 -0.1383852806
N   N48       1.0  0.51650  0.87300  0.92030  1.0000 -0.1383852806
N   N49       1.0  0.70150  0.81570  0.13300  1.0000 -0.1513433442
N   N50       1.0  0.79850  0.68430  0.13300  1.0000 -0.1513433442
N   N51       1.0  0.20150  0.18430  0.36700  1.0000 -0.1513433442
N   N52       1.0  0.29850  0.31570  0.36700  1.0000 -0.1513433442
N   N53       1.0  0.29850  0.18430  0.86700  1.0000 -0.1513433442
N   N54       1.0  0.20150  0.31570  0.86700  1.0000 -0.1513433442
N   N55       1.0  0.79850  0.81570  0.63300  1.0000 -0.1513433442
N   N56       1.0  0.70150  0.68430  0.63300  1.0000 -0.1513433442
N   N57       1.0  0.74200  0.87700  0.05830  1.0000 -0.1513433442
N   N58       1.0  0.75800  0.62300  0.05830  1.0000 -0.1513433442
N   N59       1.0  0.24200  0.12300  0.44170  1.0000 -0.1513433442
N   N60       1.0  0.25800  0.37700  0.44170  1.0000 -0.1513433442
N   N61       1.0  0.25800  0.12300  0.94170  1.0000 -0.1513433442
N   N62       1.0  0.24200  0.37700  0.94170  1.0000 -0.1513433442
N   N63       1.0  0.75800  0.87700  0.55830  1.0000 -0.1513433442
N   N64       1.0  0.74200  0.62300  0.55830  1.0000 -0.1513433442
O   O1        1.0  0.27620  0.82660  0.75360  1.0000 -0.5099268298
O   O2        1.0  0.22380  0.67340  0.75360  1.0000 -0.5099268298
O   O3        1.0  0.77620  0.17340  0.74640  1.0000 -0.5099268298
O   O4        1.0  0.72380  0.32660  0.74640  1.0000 -0.5099268298
O   O5        1.0  0.72380  0.17340  0.24640  1.0000 -0.5099268298
O   O6        1.0  0.77620  0.32660  0.24640  1.0000 -0.5099268298
O   O7        1.0  0.22380  0.82660  0.25360  1.0000 -0.5099268298
O   O8        1.0  0.27620  0.67340  0.25360  1.0000 -0.5099268298
O   O9        1.0  0.34060  0.79790  0.81600  1.0000 -0.5099268298
O   O10       1.0  0.15940  0.70210  0.81600  1.0000 -0.5099268298
O   O11       1.0  0.84060  0.20210  0.68400  1.0000 -0.5099268298
O   O12       1.0  0.65940  0.29790  0.68400  1.0000 -0.5099268298
O   O13       1.0  0.65940  0.20210  0.18400  1.0000 -0.5099268298
O   O14       1.0  0.84060  0.29790  0.18400  1.0000 -0.5099268298
O   O15       1.0  0.15940  0.79790  0.31600  1.0000 -0.5099268298
O   O16       1.0  0.34060  0.70210  0.31600  1.0000 -0.5099268298
O   O17       1.0  0.28280  0.90950  0.94980  1.0000 -0.5421376538
O   O18       1.0  0.21720  0.59050  0.94980  1.0000 -0.5421376538
O   O19       1.0  0.78280  0.09050  0.55020  1.0000 -0.5421376538
O   O20       1.0  0.71720  0.40950  0.55020  1.0000 -0.5421376538
O   O21       1.0  0.71720  0.09050  0.05020  1.0000 -0.5421376538
O   O22       1.0  0.78280  0.40950  0.05020  1.0000 -0.5421376538
O   O23       1.0  0.21720  0.90950  0.44980  1.0000 -0.5421376538
O   O24       1.0  0.28280  0.59050  0.44980  1.0000 -0.5421376538
O   O25       1.0  0.18550  0.98380  0.94550  1.0000 -0.5520195699
O   O26       1.0  0.31450  0.51620  0.94550  1.0000 -0.5520195699
O   O27       1.0  0.68550  0.01620  0.55450  1.0000 -0.5520195699
O   O28       1.0  0.81450  0.48380  0.55450  1.0000 -0.5520195699
O   O29       1.0  0.81450  0.01620  0.05450  1.0000 -0.5520195699
O   O30       1.0  0.68550  0.48380  0.05450  1.0000 -0.5520195699
O   O31       1.0  0.31450  0.98380  0.44550  1.0000 -0.5520195699
O   O32       1.0  0.18550  0.51620  0.44550  1.0000 -0.5520195699
O   O33       1.0  0.42880  0.69530  0.68410  1.0000 -0.4986951734
O   O34       1.0  0.07120  0.80470  0.68410  1.0000 -0.4986951734
O   O35       1.0  0.92880  0.30470  0.81590  1.0000 -0.4986951734
O   O36       1.0  0.57120  0.19530  0.81590  1.0000 -0.4986951734
O   O37       1.0  0.57120  0.30470  0.31590  1.0000 -0.4986951734
O   O38       1.0  0.92880  0.19530  0.31590  1.0000 -0.4986951734
O   O39       1.0  0.07120  0.69530  0.18410  1.0000 -0.4986951734
O   O40       1.0  0.42880  0.80470  0.18410  1.0000 -0.4986951734
O   O41       1.0  0.48000  0.65910  0.74630  1.0000 -0.5099268298
O   O42       1.0  0.02000  0.84090  0.74630  1.0000 -0.5099268298
O   O43       1.0  0.98000  0.34090  0.75370  1.0000 -0.5099268298
O   O44       1.0  0.52000  0.15910  0.75370  1.0000 -0.5099268298
O   O45       1.0  0.52000  0.34090  0.25370  1.0000 -0.5099268298
O   O46       1.0  0.98000  0.15910  0.25370  1.0000 -0.5099268298
O   O47       1.0  0.02000  0.65910  0.24630  1.0000 -0.5099268298
O   O48       1.0  0.48000  0.84090  0.24630  1.0000 -0.5099268298
O   O49       1.0  0.57210  0.52850  0.54060  1.0000 -0.5520195699
O   O50       1.0  0.92790  0.97150  0.54060  1.0000 -0.5520195699
O   O51       1.0  0.07210  0.47150  0.95940  1.0000 -0.5520195699
O   O52       1.0  0.42790  0.02850  0.95940  1.0000 -0.5520195699
O   O53       1.0  0.42790  0.47150  0.45940  1.0000 -0.5520195699
O   O54       1.0  0.07210  0.02850  0.45940  1.0000 -0.5520195699
O   O55       1.0  0.92790  0.52850  0.04060  1.0000 -0.5520195699
O   O56       1.0  0.57210  0.97150  0.04060  1.0000 -0.5520195699
O   O57       1.0  0.47590  0.60120  0.54520  1.0000 -0.5738584783
O   O58       1.0  0.02410  0.89880  0.54520  1.0000 -0.5738584783
O   O59       1.0  0.97590  0.39880  0.95480  1.0000 -0.5738584783
O   O60       1.0  0.52410  0.10120  0.95480  1.0000 -0.5738584783
O   O61       1.0  0.52410  0.39880  0.45480  1.0000 -0.5738584783
O   O62       1.0  0.97590  0.10120  0.45480  1.0000 -0.5738584783
O   O63       1.0  0.02410  0.60120  0.04520  1.0000 -0.5738584783
O   O64       1.0  0.47590  0.89880  0.04520  1.0000 -0.5738584783
O   O65       1.0  0.58380  0.69990  0.18040  1.0000 -0.4828445103
O   O66       1.0  0.91620  0.80010  0.18040  1.0000 -0.4828445103
O   O67       1.0  0.08380  0.30010  0.31960  1.0000 -0.4828445103
O   O68       1.0  0.41620  0.19990  0.31960  1.0000 -0.4828445103
O   O69       1.0  0.41620  0.30010  0.81960  1.0000 -0.4828445103
O   O70       1.0  0.08380  0.19990  0.81960  1.0000 -0.4828445103
O   O71       1.0  0.91620  0.69990  0.68040  1.0000 -0.4828445103
O   O72       1.0  0.58380  0.80010  0.68040  1.0000 -0.4828445103
O   O73       1.0  0.53370  0.67560  0.24710  1.0000 -0.5219544431
O   O74       1.0  0.96630  0.82440  0.24710  1.0000 -0.5219544431
O   O75       1.0  0.03370  0.32440  0.25290  1.0000 -0.5219544431
O   O76       1.0  0.46630  0.17560  0.25290  1.0000 -0.5219544431
O   O77       1.0  0.46630  0.32440  0.75290  1.0000 -0.5219544431
O   O78       1.0  0.03370  0.17560  0.75290  1.0000 -0.5219544431
O   O79       1.0  0.96630  0.67560  0.74710  1.0000 -0.5219544431
O   O80       1.0  0.53370  0.82440  0.74710  1.0000 -0.5219544431
O   O81       1.0  0.51160  0.58420  0.05270  1.0000 -0.5219544431
O   O82       1.0  0.98840  0.91580  0.05270  1.0000 -0.5219544431
O   O83       1.0  0.01160  0.41580  0.44730  1.0000 -0.5219544431
O   O84       1.0  0.48840  0.08420  0.44730  1.0000 -0.5219544431
O   O85       1.0  0.48840  0.41580  0.94730  1.0000 -0.5219544431
O   O86       1.0  0.01160  0.08420  0.94730  1.0000 -0.5219544431
O   O87       1.0  0.98840  0.58420  0.55270  1.0000 -0.5219544431
O   O88       1.0  0.51160  0.91580  0.55270  1.0000 -0.5219544431
O   O89       1.0  0.42420  0.50690  0.06220  1.0000 -0.5219544431
O   O90       1.0  0.07580  0.99310  0.06220  1.0000 -0.5219544431
O   O91       1.0  0.92420  0.49310  0.43780  1.0000 -0.5219544431
O   O92       1.0  0.57580  0.00690  0.43780  1.0000 -0.5219544431
O   O93       1.0  0.57580  0.49310  0.93780  1.0000 -0.5219544431
O   O94       1.0  0.92420  0.00690  0.93780  1.0000 -0.5219544431
O   O95       1.0  0.07580  0.50690  0.56220  1.0000 -0.5219544431
O   O96       1.0  0.42420  0.99310  0.56220  1.0000 -0.5219544431
O   O97       1.0  0.72660  0.84320  0.24000  1.0000 -0.4930089649
O   O98       1.0  0.77340  0.65680  0.24000  1.0000 -0.4930089649
O   O99       1.0  0.22660  0.15680  0.26000  1.0000 -0.4930089649
O   O100      1.0  0.27340  0.34320  0.26000  1.0000 -0.4930089649
O   O101      1.0  0.27340  0.15680  0.76000  1.0000 -0.4930089649
O   O102      1.0  0.22660  0.34320  0.76000  1.0000 -0.4930089649
O   O103      1.0  0.77340  0.84320  0.74000  1.0000 -0.4930089649
O   O104      1.0  0.72660  0.65680  0.74000  1.0000 -0.4930089649
O   O105      1.0  0.68530  0.81100  0.30610  1.0000 -0.5099268298
O   O106      1.0  0.81470  0.68900  0.30610  1.0000 -0.5099268298
O   O107      1.0  0.18530  0.18900  0.19390  1.0000 -0.5099268298
O   O108      1.0  0.31470  0.31100  0.19390  1.0000 -0.5099268298
O   O109      1.0  0.31470  0.18900  0.69390  1.0000 -0.5099268298
O   O110      1.0  0.18530  0.31100  0.69390  1.0000 -0.5099268298
O   O111      1.0  0.81470  0.81100  0.80610  1.0000 -0.5099268298
O   O112      1.0  0.68530  0.68900  0.80610  1.0000 -0.5099268298
O   O113      1.0  0.75580  0.91980  0.43740  1.0000 -0.5099268298
O   O114      1.0  0.74420  0.58020  0.43740  1.0000 -0.5099268298
O   O115      1.0  0.25580  0.08020  0.06260  1.0000 -0.5099268298
O   O116      1.0  0.24420  0.41980  0.06260  1.0000 -0.5099268298
O   O117      1.0  0.24420  0.08020  0.56260  1.0000 -0.5099268298
O   O118      1.0  0.25580  0.41980  0.56260  1.0000 -0.5099268298
O   O119      1.0  0.74420  0.91980  0.93740  1.0000 -0.5099268298
O   O120      1.0  0.75580  0.58020  0.93740  1.0000 -0.5099268298
O   O121      1.0  0.84620  0.99550  0.43210  1.0000 -0.5520195699
O   O122      1.0  0.65380  0.50450  0.43210  1.0000 -0.5520195699
O   O123      1.0  0.34620  0.00450  0.06790  1.0000 -0.5520195699
O   O124      1.0  0.15380  0.49550  0.06790  1.0000 -0.5520195699
O   O125      1.0  0.15380  0.00450  0.56790  1.0000 -0.5520195699
O   O126      1.0  0.34620  0.49550  0.56790  1.0000 -0.5520195699
O   O127      1.0  0.65380  0.99550  0.93210  1.0000 -0.5520195699
O   O128      1.0  0.84620  0.50450  0.93210  1.0000 -0.5520195699
