# DDEC6 charges by PACMAN v1.1 (https://github.com/mtap-research/PACMAN-charge/)
data_2016[Cu][nbo]3[ASR]10
_chemical_formula_sum              "Cu6 H78 C126 O30"
_cell_length_a       21.5787
_cell_length_b       21.5787
_cell_length_c       21.5787
_cell_angle_alpha    108.69
_cell_angle_beta     108.69
_cell_angle_gamma    108.69

_symmetry_space_group_name_H-M    "P 1"
_symmetry_Int_Tables_number       1

loop_
  _symmetry_equiv_pos_as_xyz
  'x, y, z'

loop_
  _atom_site_type_symbol
  _atom_site_label
  _atom_site_symmetry_multiplicity
  _atom_site_fract_x
  _atom_site_fract_y
  _atom_site_fract_z
  _atom_site_occupancy
  _atom_site_charge
Cu  Cu1       1.0  0.57007  0.04466  0.04466  1.0000 0.8396110958
Cu  Cu2       1.0  0.04466  0.04466  0.57007  1.0000 0.8396110958
Cu  Cu3       1.0  0.04466  0.57007  0.04466  1.0000 0.8396110958
Cu  Cu4       1.0  0.95534  0.42993  0.95534  1.0000 0.8396110958
Cu  Cu5       1.0  0.95534  0.95534  0.42993  1.0000 0.8396110958
Cu  Cu6       1.0  0.42993  0.95534  0.95534  1.0000 0.8396110958
H   H1        1.0  0.64770  0.88710  0.06780  1.0000 0.1294314056
H   H2        1.0  0.88710  0.06780  0.64770  1.0000 0.1294314056
H   H3        1.0  0.06780  0.64770  0.88710  1.0000 0.1294314056
H   H4        1.0  0.11290  0.35230  0.93220  1.0000 0.1294314056
H   H5        1.0  0.93220  0.11290  0.35230  1.0000 0.1294314056
H   H6        1.0  0.35230  0.93220  0.11290  1.0000 0.1294314056
H   H7        1.0  0.35230  0.11290  0.93220  1.0000 0.1294314056
H   H8        1.0  0.11290  0.93220  0.35230  1.0000 0.1294314056
H   H9        1.0  0.93220  0.35230  0.11290  1.0000 0.1294314056
H   H10       1.0  0.88710  0.64770  0.06780  1.0000 0.1294314056
H   H11       1.0  0.06780  0.88710  0.64770  1.0000 0.1294314056
H   H12       1.0  0.64770  0.06780  0.88710  1.0000 0.1294314056
H   H13       1.0  0.66600  0.78560  0.05890  1.0000 0.1200223109
H   H14       1.0  0.78560  0.05890  0.66600  1.0000 0.1200223109
H   H15       1.0  0.05890  0.66600  0.78560  1.0000 0.1200223109
H   H16       1.0  0.21440  0.33400  0.94110  1.0000 0.1200223109
H   H17       1.0  0.94110  0.21440  0.33400  1.0000 0.1200223109
H   H18       1.0  0.33400  0.94110  0.21440  1.0000 0.1200223109
H   H19       1.0  0.33400  0.21440  0.94110  1.0000 0.1200223109
H   H20       1.0  0.21440  0.94110  0.33400  1.0000 0.1200223109
H   H21       1.0  0.94110  0.33400  0.21440  1.0000 0.1200223109
H   H22       1.0  0.78560  0.66600  0.05890  1.0000 0.1200223109
H   H23       1.0  0.05890  0.78560  0.66600  1.0000 0.1200223109
H   H24       1.0  0.66600  0.05890  0.78560  1.0000 0.1200223109
H   H25       1.0  0.45430  0.65010  0.91680  1.0000 0.1124786049
H   H26       1.0  0.65010  0.91680  0.45430  1.0000 0.1124786049
H   H27       1.0  0.91680  0.45430  0.65010  1.0000 0.1124786049
H   H28       1.0  0.34990  0.54570  0.08320  1.0000 0.1124786049
H   H29       1.0  0.08320  0.34990  0.54570  1.0000 0.1200223109
H   H30       1.0  0.54570  0.08320  0.34990  1.0000 0.1124786049
H   H31       1.0  0.54570  0.34990  0.08320  1.0000 0.1200223109
H   H32       1.0  0.34990  0.08320  0.54570  1.0000 0.1124786049
H   H33       1.0  0.08320  0.54570  0.34990  1.0000 0.1124786049
H   H34       1.0  0.65010  0.45430  0.91680  1.0000 0.1124786049
H   H35       1.0  0.91680  0.65010  0.45430  1.0000 0.1200223109
H   H36       1.0  0.45430  0.91680  0.65010  1.0000 0.1124786049
H   H37       1.0  0.43460  0.74950  0.91930  1.0000 0.1294314056
H   H38       1.0  0.74950  0.91930  0.43460  1.0000 0.1294314056
H   H39       1.0  0.91930  0.43460  0.74950  1.0000 0.1294314056
H   H40       1.0  0.25050  0.56540  0.08070  1.0000 0.1294314056
H   H41       1.0  0.08070  0.25050  0.56540  1.0000 0.1294314056
H   H42       1.0  0.56540  0.08070  0.25050  1.0000 0.1294314056
H   H43       1.0  0.56540  0.25050  0.08070  1.0000 0.1294314056
H   H44       1.0  0.25050  0.08070  0.56540  1.0000 0.1294314056
H   H45       1.0  0.08070  0.56540  0.25050  1.0000 0.1294314056
H   H46       1.0  0.74950  0.43460  0.91930  1.0000 0.1294314056
H   H47       1.0  0.91930  0.74950  0.43460  1.0000 0.1294314056
H   H48       1.0  0.43460  0.91930  0.74950  1.0000 0.1294314056
H   H49       1.0  0.48160  0.59530  0.99800  1.0000 0.1124786049
H   H50       1.0  0.59530  0.99800  0.48160  1.0000 0.1124786049
H   H51       1.0  0.99800  0.48160  0.59530  1.0000 0.1124786049
H   H52       1.0  0.40470  0.51840  0.00200  1.0000 0.1124786049
H   H53       1.0  0.00200  0.40470  0.51840  1.0000 0.1124786049
H   H54       1.0  0.51840  0.00200  0.40470  1.0000 0.1124786049
H   H55       1.0  0.51840  0.40470  0.00200  1.0000 0.1124786049
H   H56       1.0  0.40470  0.00200  0.51840  1.0000 0.1124786049
H   H57       1.0  0.00200  0.51840  0.40470  1.0000 0.1124786049
H   H58       1.0  0.59530  0.48160  0.99800  1.0000 0.1124786049
H   H59       1.0  0.99800  0.59530  0.48160  1.0000 0.1124786049
H   H60       1.0  0.48160  0.99800  0.59530  1.0000 0.1124786049
H   H61       1.0  0.71500  0.71500  0.91940  1.0000 0.1124786049
H   H62       1.0  0.71500  0.91940  0.71500  1.0000 0.1124786049
H   H63       1.0  0.91940  0.71500  0.71500  1.0000 0.1124786049
H   H64       1.0  0.28500  0.28500  0.08060  1.0000 0.1124786049
H   H65       1.0  0.08060  0.28500  0.28500  1.0000 0.1124786049
H   H66       1.0  0.28500  0.08060  0.28500  1.0000 0.1124786049
H   H67       1.0  0.67440  0.62970  0.89320  1.0000 0.1017417146
H   H68       1.0  0.62970  0.89320  0.67440  1.0000 0.1017417146
H   H69       1.0  0.89320  0.67440  0.62970  1.0000 0.1017417146
H   H70       1.0  0.37030  0.32560  0.10680  1.0000 0.1017417146
H   H71       1.0  0.10680  0.37030  0.32560  1.0000 0.1017417146
H   H72       1.0  0.32560  0.10680  0.37030  1.0000 0.1017417146
H   H73       1.0  0.32560  0.37030  0.10680  1.0000 0.1017417146
H   H74       1.0  0.37030  0.10680  0.32560  1.0000 0.1017417146
H   H75       1.0  0.10680  0.32560  0.37030  1.0000 0.1017417146
H   H76       1.0  0.62970  0.67440  0.89320  1.0000 0.1017417146
H   H77       1.0  0.89320  0.62970  0.67440  1.0000 0.1017417146
H   H78       1.0  0.67440  0.89320  0.62970  1.0000 0.1017417146
C   C1        1.0  0.52435  0.89206  0.99449  1.0000 0.5709177133
C   C2        1.0  0.89206  0.99449  0.52435  1.0000 0.5709177133
C   C3        1.0  0.99449  0.52435  0.89206  1.0000 0.5709177133
C   C4        1.0  0.10794  0.47565  0.00551  1.0000 0.5709177133
C   C5        1.0  0.00551  0.10794  0.47565  1.0000 0.5709177133
C   C6        1.0  0.47565  0.00551  0.10794  1.0000 0.5709177133
C   C7        1.0  0.47565  0.10794  0.00551  1.0000 0.5709177133
C   C8        1.0  0.10794  0.00551  0.47565  1.0000 0.5709177133
C   C9        1.0  0.00551  0.47565  0.10794  1.0000 0.5709177133
C   C10       1.0  0.89206  0.52435  0.99449  1.0000 0.5709177133
C   C11       1.0  0.99449  0.89206  0.52435  1.0000 0.5709177133
C   C12       1.0  0.52435  0.99449  0.89206  1.0000 0.5709177133
C   C13       1.0  0.53836  0.82847  0.99277  1.0000 -0.0448612793
C   C14       1.0  0.82847  0.99277  0.53836  1.0000 -0.0458309309
C   C15       1.0  0.99277  0.53836  0.82847  1.0000 -0.0458309309
C   C16       1.0  0.17153  0.46164  0.00723  1.0000 -0.0458309309
C   C17       1.0  0.00723  0.17153  0.46164  1.0000 -0.0458309309
C   C18       1.0  0.46164  0.00723  0.17153  1.0000 -0.0458309309
C   C19       1.0  0.46164  0.17153  0.00723  1.0000 -0.0458309309
C   C20       1.0  0.17153  0.00723  0.46164  1.0000 -0.0448612793
C   C21       1.0  0.00723  0.46164  0.17153  1.0000 -0.0458309309
C   C22       1.0  0.82847  0.53836  0.99277  1.0000 -0.0448612793
C   C23       1.0  0.99277  0.82847  0.53836  1.0000 -0.0458309309
C   C24       1.0  0.53836  0.99277  0.82847  1.0000 -0.0448612793
C   C25       1.0  0.60831  0.83933  0.03616  1.0000 -0.0896402224
C   C26       1.0  0.83933  0.03616  0.60831  1.0000 -0.0896402224
C   C27       1.0  0.03616  0.60831  0.83933  1.0000 -0.0896402224
C   C28       1.0  0.16067  0.39169  0.96384  1.0000 -0.0896402224
C   C29       1.0  0.96384  0.16067  0.39169  1.0000 -0.0896402224
C   C30       1.0  0.39169  0.96384  0.16067  1.0000 -0.0896402224
C   C31       1.0  0.39169  0.16067  0.96384  1.0000 -0.0896402224
C   C32       1.0  0.16067  0.96384  0.39169  1.0000 -0.0896402224
C   C33       1.0  0.96384  0.39169  0.16067  1.0000 -0.0896402224
C   C34       1.0  0.83933  0.60831  0.03616  1.0000 -0.0896402224
C   C35       1.0  0.03616  0.83933  0.60831  1.0000 -0.0896402224
C   C36       1.0  0.60831  0.03616  0.83933  1.0000 -0.0896402224
C   C37       1.0  0.61835  0.77774  0.03161  1.0000 -0.1491013304
C   C38       1.0  0.77774  0.03161  0.61835  1.0000 -0.1491013304
C   C39       1.0  0.03161  0.61835  0.77774  1.0000 -0.1491013304
C   C40       1.0  0.22226  0.38165  0.96839  1.0000 -0.1491013304
C   C41       1.0  0.96839  0.22226  0.38165  1.0000 -0.1491013304
C   C42       1.0  0.38165  0.96839  0.22226  1.0000 -0.1491013304
C   C43       1.0  0.38165  0.22226  0.96839  1.0000 -0.1491013304
C   C44       1.0  0.22226  0.96839  0.38165  1.0000 -0.1491013304
C   C45       1.0  0.96839  0.38165  0.22226  1.0000 -0.1491013304
C   C46       1.0  0.77774  0.61835  0.03161  1.0000 -0.1491013304
C   C47       1.0  0.03161  0.77774  0.61835  1.0000 -0.1491013304
C   C48       1.0  0.61835  0.03161  0.77774  1.0000 -0.1491013304
C   C49       1.0  0.56310  0.70774  0.99006  1.0000 0.0786325002
C   C50       1.0  0.70774  0.99006  0.56310  1.0000 0.0786325002
C   C51       1.0  0.99006  0.56310  0.70774  1.0000 0.0786325002
C   C52       1.0  0.29226  0.43690  0.00994  1.0000 0.0786325002
C   C53       1.0  0.00994  0.29226  0.43690  1.0000 0.0786325002
C   C54       1.0  0.43690  0.00994  0.29226  1.0000 0.0786325002
C   C55       1.0  0.43690  0.29226  0.00994  1.0000 0.0786325002
C   C56       1.0  0.29226  0.00994  0.43690  1.0000 0.0786325002
C   C57       1.0  0.00994  0.43690  0.29226  1.0000 0.0786325002
C   C58       1.0  0.70774  0.56310  0.99006  1.0000 0.0786325002
C   C59       1.0  0.99006  0.70774  0.56310  1.0000 0.0786325002
C   C60       1.0  0.56310  0.99006  0.70774  1.0000 0.0786325002
C   C61       1.0  0.49375  0.69786  0.94719  1.0000 -0.1686117847
C   C62       1.0  0.69786  0.94719  0.49375  1.0000 -0.1686117847
C   C63       1.0  0.94719  0.49375  0.69786  1.0000 -0.1686117847
C   C64       1.0  0.30214  0.50625  0.05281  1.0000 -0.1686117847
C   C65       1.0  0.05281  0.30214  0.50625  1.0000 -0.1686117847
C   C66       1.0  0.50625  0.05281  0.30214  1.0000 -0.1686117847
C   C67       1.0  0.50625  0.30214  0.05281  1.0000 -0.1686117847
C   C68       1.0  0.30214  0.05281  0.50625  1.0000 -0.1686117847
C   C69       1.0  0.05281  0.50625  0.30214  1.0000 -0.1686117847
C   C70       1.0  0.69786  0.49375  0.94719  1.0000 -0.1686117847
C   C71       1.0  0.94719  0.69786  0.49375  1.0000 -0.1686117847
C   C72       1.0  0.49375  0.94719  0.69786  1.0000 -0.1686117847
C   C73       1.0  0.48171  0.75768  0.94861  1.0000 -0.0896402224
C   C74       1.0  0.75768  0.94861  0.48171  1.0000 -0.0896402224
C   C75       1.0  0.94861  0.48171  0.75768  1.0000 -0.0896402224
C   C76       1.0  0.24232  0.51829  0.05139  1.0000 -0.0896402224
C   C77       1.0  0.05139  0.24232  0.51829  1.0000 -0.0896402224
C   C78       1.0  0.51829  0.05139  0.24232  1.0000 -0.0896402224
C   C79       1.0  0.51829  0.24232  0.05139  1.0000 -0.0896402224
C   C80       1.0  0.24232  0.05139  0.51829  1.0000 -0.0896402224
C   C81       1.0  0.05139  0.51829  0.24232  1.0000 -0.0896402224
C   C82       1.0  0.75768  0.48171  0.94861  1.0000 -0.0896402224
C   C83       1.0  0.94861  0.75768  0.48171  1.0000 -0.0896402224
C   C84       1.0  0.48171  0.94861  0.75768  1.0000 -0.0896402224
C   C85       1.0  0.57408  0.64338  0.99124  1.0000 -0.0172614431
C   C86       1.0  0.64338  0.99124  0.57408  1.0000 -0.0172614431
C   C87       1.0  0.99124  0.57408  0.64338  1.0000 -0.0172614431
C   C88       1.0  0.35662  0.42592  0.00876  1.0000 -0.0172614431
C   C89       1.0  0.00876  0.35662  0.42592  1.0000 -0.0172614431
C   C90       1.0  0.42592  0.00876  0.35662  1.0000 -0.0172614431
C   C91       1.0  0.42592  0.35662  0.00876  1.0000 -0.0172614431
C   C92       1.0  0.35662  0.00876  0.42592  1.0000 -0.0172614431
C   C93       1.0  0.00876  0.42592  0.35662  1.0000 -0.0172614431
C   C94       1.0  0.64338  0.57408  0.99124  1.0000 -0.0172614431
C   C95       1.0  0.99124  0.64338  0.57408  1.0000 -0.0172614431
C   C96       1.0  0.57408  0.99124  0.64338  1.0000 -0.0172614431
C   C97       1.0  0.52235  0.59005  0.99640  1.0000 -0.2010034495
C   C98       1.0  0.59005  0.99640  0.52235  1.0000 -0.2010034495
C   C99       1.0  0.99640  0.52235  0.59005  1.0000 -0.2010034495
C   C100      1.0  0.40995  0.47765  0.00360  1.0000 -0.2010034495
C   C101      1.0  0.00360  0.40995  0.47765  1.0000 -0.2010034495
C   C102      1.0  0.47765  0.00360  0.40995  1.0000 -0.2010034495
C   C103      1.0  0.47765  0.40995  0.00360  1.0000 -0.2010034495
C   C104      1.0  0.40995  0.00360  0.47765  1.0000 -0.2010034495
C   C105      1.0  0.00360  0.47765  0.40995  1.0000 -0.2010034495
C   C106      1.0  0.59005  0.52235  0.99640  1.0000 -0.2010034495
C   C107      1.0  0.99640  0.59005  0.52235  1.0000 -0.2010034495
C   C108      1.0  0.52235  0.99640  0.59005  1.0000 -0.2010034495
C   C109      1.0  0.52926  0.52926  0.99928  1.0000 0.0719206781
C   C110      1.0  0.52926  0.99928  0.52926  1.0000 0.0719206781
C   C111      1.0  0.99928  0.52926  0.52926  1.0000 0.0719206781
C   C112      1.0  0.47074  0.47074  0.00072  1.0000 0.0719206781
C   C113      1.0  0.00072  0.47074  0.47074  1.0000 0.0719206781
C   C114      1.0  0.47074  0.00072  0.47074  1.0000 0.0719206781
C   C115      1.0  0.63284  0.63284  0.98712  1.0000 0.1200223109
C   C116      1.0  0.63284  0.98712  0.63284  1.0000 0.1200223109
C   C117      1.0  0.98712  0.63284  0.63284  1.0000 0.1200223109
C   C118      1.0  0.36716  0.36716  0.01288  1.0000 0.1200223109
C   C119      1.0  0.01288  0.36716  0.36716  1.0000 0.1200223109
C   C120      1.0  0.36716  0.01288  0.36716  1.0000 0.1200223109
C   C121      1.0  0.67645  0.67645  0.91850  1.0000 -0.2063261244
C   C122      1.0  0.67645  0.91850  0.67645  1.0000 -0.2063261244
C   C123      1.0  0.91850  0.67645  0.67645  1.0000 -0.2063261244
C   C124      1.0  0.32355  0.32355  0.08150  1.0000 -0.2063261244
C   C125      1.0  0.08150  0.32355  0.32355  1.0000 -0.2063261244
C   C126      1.0  0.32355  0.08150  0.32355  1.0000 -0.2063261244
O   O1        1.0  0.46075  0.88008  0.95859  1.0000 -0.4885310623
O   O2        1.0  0.88008  0.95859  0.46075  1.0000 -0.4885310623
O   O3        1.0  0.95859  0.46075  0.88008  1.0000 -0.4885310623
O   O4        1.0  0.11992  0.53925  0.04141  1.0000 -0.4885310623
O   O5        1.0  0.04141  0.11992  0.53925  1.0000 -0.4885310623
O   O6        1.0  0.53925  0.04141  0.11992  1.0000 -0.4885310623
O   O7        1.0  0.53925  0.11992  0.04141  1.0000 -0.4885310623
O   O8        1.0  0.11992  0.04141  0.53925  1.0000 -0.4885310623
O   O9        1.0  0.04141  0.53925  0.11992  1.0000 -0.4885310623
O   O10       1.0  0.88008  0.46075  0.95859  1.0000 -0.4885310623
O   O11       1.0  0.95859  0.88008  0.46075  1.0000 -0.4885310623
O   O12       1.0  0.46075  0.95859  0.88008  1.0000 -0.4885310623
O   O13       1.0  0.57784  0.95467  0.03277  1.0000 -0.4844348901
O   O14       1.0  0.95467  0.03277  0.57784  1.0000 -0.4844348901
O   O15       1.0  0.03277  0.57784  0.95467  1.0000 -0.4844348901
O   O16       1.0  0.04533  0.42216  0.96723  1.0000 -0.4844348901
O   O17       1.0  0.96723  0.04533  0.42216  1.0000 -0.4844348901
O   O18       1.0  0.42216  0.96723  0.04533  1.0000 -0.4885310623
O   O19       1.0  0.42216  0.04533  0.96723  1.0000 -0.4844348901
O   O20       1.0  0.04533  0.96723  0.42216  1.0000 -0.4885310623
O   O21       1.0  0.96723  0.42216  0.04533  1.0000 -0.4844348901
O   O22       1.0  0.95467  0.57784  0.03277  1.0000 -0.4885310623
O   O23       1.0  0.03277  0.95467  0.57784  1.0000 -0.4844348901
O   O24       1.0  0.57784  0.03277  0.95467  1.0000 -0.4844348901
O   O25       1.0  0.69110  0.69110  0.98940  1.0000 -0.1822346149
O   O26       1.0  0.69110  0.98940  0.69110  1.0000 -0.1822346149
O   O27       1.0  0.98940  0.69110  0.69110  1.0000 -0.1822346149
O   O28       1.0  0.30890  0.30890  0.01060  1.0000 -0.1822346149
O   O29       1.0  0.01060  0.30890  0.30890  1.0000 -0.1822346149
O   O30       1.0  0.30890  0.01060  0.30890  1.0000 -0.1822346149
