# DDEC6 charges by PACMAN v1.1 (https://github.com/mtap-research/PACMAN-charge/)
data_2016[Zn][nts]3[ASR]1
_chemical_formula_sum              "Zn24 H144 C264 N48 O120"
_cell_length_a       31.1464
_cell_length_b       31.1464
_cell_length_c       31.1464
_cell_angle_alpha    121.174
_cell_angle_beta     121.174
_cell_angle_gamma    87.9777

_symmetry_space_group_name_H-M    "P 1"
_symmetry_Int_Tables_number       1

loop_
  _symmetry_equiv_pos_as_xyz
  'x, y, z'

loop_
  _atom_site_type_symbol
  _atom_site_label
  _atom_site_symmetry_multiplicity
  _atom_site_fract_x
  _atom_site_fract_y
  _atom_site_fract_z
  _atom_site_occupancy
  _atom_site_charge
Zn  Zn1       1.0  0.84182  0.57162  0.41344  1.0000 0.9392340144
Zn  Zn2       1.0  0.57162  0.15818  0.72980  1.0000 0.9392340144
Zn  Zn3       1.0  0.15818  0.42838  0.58656  1.0000 0.9392340144
Zn  Zn4       1.0  0.42838  0.84182  0.27020  1.0000 0.9392340144
Zn  Zn5       1.0  0.74633  0.55326  0.29959  1.0000 0.9392340144
Zn  Zn6       1.0  0.55326  0.25367  0.80693  1.0000 0.9392340144
Zn  Zn7       1.0  0.25367  0.44674  0.70041  1.0000 0.9392340144
Zn  Zn8       1.0  0.44674  0.74633  0.19307  1.0000 0.9392340144
Zn  Zn9       1.0  0.47646  0.72353  0.94367  1.0000 0.9392340144
Zn  Zn10      1.0  0.72353  0.77986  0.24707  1.0000 0.9392340144
Zn  Zn11      1.0  0.77986  0.53279  0.05633  1.0000 0.9392340144
Zn  Zn12      1.0  0.53279  0.47646  0.75293  1.0000 0.9392340144
Zn  Zn13      1.0  0.52354  0.27647  0.05633  1.0000 0.9392340144
Zn  Zn14      1.0  0.27647  0.22014  0.75293  1.0000 0.9392340144
Zn  Zn15      1.0  0.22014  0.46721  0.94367  1.0000 0.9392340144
Zn  Zn16      1.0  0.46721  0.52354  0.24707  1.0000 0.9392340144
Zn  Zn17      1.0  0.46323  0.80747  0.92274  1.0000 0.9392340144
Zn  Zn18      1.0  0.80747  0.88473  0.34424  1.0000 0.9392340144
Zn  Zn19      1.0  0.88473  0.54049  0.07726  1.0000 0.9392340144
Zn  Zn20      1.0  0.54049  0.46323  0.65576  1.0000 0.9392340144
Zn  Zn21      1.0  0.53677  0.19253  0.07726  1.0000 0.9392340144
Zn  Zn22      1.0  0.19253  0.11527  0.65576  1.0000 0.9392340144
Zn  Zn23      1.0  0.11527  0.45951  0.92274  1.0000 0.9392340144
Zn  Zn24      1.0  0.45951  0.53677  0.34424  1.0000 0.9392340144
H   H1        1.0  0.96750  0.86610  0.57540  1.0000 0.280356502
H   H2        1.0  0.86610  0.29070  0.89860  1.0000 0.280356502
H   H3        1.0  0.29070  0.39210  0.42460  1.0000 0.280356502
H   H4        1.0  0.39210  0.96750  0.10140  1.0000 0.280356502
H   H5        1.0  0.03250  0.13390  0.42460  1.0000 0.280356502
H   H6        1.0  0.13390  0.70930  0.10140  1.0000 0.280356502
H   H7        1.0  0.70930  0.60790  0.57540  1.0000 0.280356502
H   H8        1.0  0.60790  0.03250  0.89860  1.0000 0.280356502
H   H9        1.0  0.04250  0.88850  0.64880  1.0000 0.280356502
H   H10       1.0  0.88850  0.23970  0.84600  1.0000 0.280356502
H   H11       1.0  0.23970  0.39370  0.35120  1.0000 0.280356502
H   H12       1.0  0.39370  0.04250  0.15400  1.0000 0.2693168327
H   H13       1.0  0.95750  0.11150  0.35120  1.0000 0.280356502
H   H14       1.0  0.11150  0.76030  0.15400  1.0000 0.280356502
H   H15       1.0  0.76030  0.60630  0.64880  1.0000 0.280356502
H   H16       1.0  0.60630  0.95750  0.84600  1.0000 0.280356502
H   H17       1.0  0.31070  0.00570  0.85720  1.0000 0.2693168327
H   H18       1.0  0.00570  0.14850  0.69500  1.0000 0.2693168327
H   H19       1.0  0.14850  0.45350  0.14280  1.0000 0.2693168327
H   H20       1.0  0.45350  0.31070  0.30500  1.0000 0.2693168327
H   H21       1.0  0.68930  0.99430  0.14280  1.0000 0.2693168327
H   H22       1.0  0.99430  0.85150  0.30500  1.0000 0.2693168327
H   H23       1.0  0.85150  0.54650  0.85720  1.0000 0.2693168327
H   H24       1.0  0.54650  0.68930  0.69500  1.0000 0.2693168327
H   H25       1.0  0.26200  0.93710  0.81670  1.0000 0.2693168327
H   H26       1.0  0.93710  0.12040  0.67510  1.0000 0.2693168327
H   H27       1.0  0.12040  0.44530  0.18330  1.0000 0.2636661614
H   H28       1.0  0.44530  0.26200  0.32490  1.0000 0.2693168327
H   H29       1.0  0.73800  0.06290  0.18330  1.0000 0.2693168327
H   H30       1.0  0.06290  0.87960  0.32490  1.0000 0.2693168327
H   H31       1.0  0.87960  0.55470  0.81670  1.0000 0.2693168327
H   H32       1.0  0.55470  0.73800  0.67510  1.0000 0.2636661614
H   H33       1.0  0.12320  0.72740  0.66220  1.0000 0.280356502
H   H34       1.0  0.72740  0.06520  0.60420  1.0000 0.280356502
H   H35       1.0  0.06520  0.46100  0.33780  1.0000 0.280356502
H   H36       1.0  0.46100  0.12320  0.39580  1.0000 0.280356502
H   H37       1.0  0.87680  0.27260  0.33780  1.0000 0.280356502
H   H38       1.0  0.27260  0.93480  0.39580  1.0000 0.280356502
H   H39       1.0  0.93480  0.53900  0.66220  1.0000 0.280356502
H   H40       1.0  0.53900  0.87680  0.60420  1.0000 0.280356502
H   H41       1.0  0.15770  0.67230  0.67380  1.0000 0.280356502
H   H42       1.0  0.67230  0.99850  0.51460  1.0000 0.280356502
H   H43       1.0  0.99850  0.48390  0.32620  1.0000 0.280356502
H   H44       1.0  0.48390  0.15770  0.48540  1.0000 0.280356502
H   H45       1.0  0.84230  0.32770  0.32620  1.0000 0.280356502
H   H46       1.0  0.32770  0.00150  0.48540  1.0000 0.280356502
H   H47       1.0  0.00150  0.51610  0.67380  1.0000 0.280356502
H   H48       1.0  0.51610  0.84230  0.51460  1.0000 0.280356502
H   H49       1.0  0.78170  0.71070  0.34560  1.0000 0.1391923107
H   H50       1.0  0.71070  0.36510  0.92900  1.0000 0.1391923107
H   H51       1.0  0.36510  0.43610  0.65440  1.0000 0.1391923107
H   H52       1.0  0.43610  0.78170  0.07100  1.0000 0.1391923107
H   H53       1.0  0.21830  0.28930  0.65440  1.0000 0.1391923107
H   H54       1.0  0.28930  0.63490  0.07100  1.0000 0.1391923107
H   H55       1.0  0.63490  0.56390  0.34560  1.0000 0.1391923107
H   H56       1.0  0.56390  0.21830  0.92900  1.0000 0.1391923107
H   H57       1.0  0.90040  0.84950  0.47430  1.0000 0.1326963837
H   H58       1.0  0.84950  0.37520  0.94910  1.0000 0.1326963837
H   H59       1.0  0.37520  0.42610  0.52570  1.0000 0.1326963837
H   H60       1.0  0.42610  0.90040  0.05090  1.0000 0.1326963837
H   H61       1.0  0.09960  0.15050  0.52570  1.0000 0.1326963837
H   H62       1.0  0.15050  0.62480  0.05090  1.0000 0.1326963837
H   H63       1.0  0.62480  0.57390  0.47430  1.0000 0.1326963837
H   H64       1.0  0.57390  0.09960  0.94910  1.0000 0.1326963837
H   H65       1.0  0.90520  0.73360  0.50200  1.0000 0.1391923107
H   H66       1.0  0.73360  0.23160  0.82840  1.0000 0.1391923107
H   H67       1.0  0.23160  0.40320  0.49800  1.0000 0.1391923107
H   H68       1.0  0.40320  0.90520  0.17160  1.0000 0.1391923107
H   H69       1.0  0.09480  0.26640  0.49800  1.0000 0.1391923107
H   H70       1.0  0.26640  0.76840  0.17160  1.0000 0.1391923107
H   H71       1.0  0.76840  0.59680  0.50200  1.0000 0.1391923107
H   H72       1.0  0.59680  0.09480  0.82840  1.0000 0.1391923107
H   H73       1.0  0.37020  0.19090  0.88690  1.0000 0.1391923107
H   H74       1.0  0.19090  0.30400  0.82070  1.0000 0.1391923107
H   H75       1.0  0.30400  0.48330  0.11310  1.0000 0.1391923107
H   H76       1.0  0.48330  0.37020  0.17930  1.0000 0.1391923107
H   H77       1.0  0.62980  0.80910  0.11310  1.0000 0.1391923107
H   H78       1.0  0.80910  0.69600  0.17930  1.0000 0.1391923107
H   H79       1.0  0.69600  0.51670  0.88690  1.0000 0.1326963837
H   H80       1.0  0.51670  0.62980  0.82070  1.0000 0.1391923107
H   H81       1.0  0.37740  0.08820  0.93060  1.0000 0.1391923107
H   H82       1.0  0.08820  0.15760  0.71080  1.0000 0.1326963837
H   H83       1.0  0.15760  0.44680  0.06940  1.0000 0.1391923107
H   H84       1.0  0.44680  0.37740  0.28920  1.0000 0.1326963837
H   H85       1.0  0.62260  0.91180  0.06940  1.0000 0.1391923107
H   H86       1.0  0.91180  0.84240  0.28920  1.0000 0.1326963837
H   H87       1.0  0.84240  0.55320  0.93060  1.0000 0.1391923107
H   H88       1.0  0.55320  0.62260  0.71080  1.0000 0.1391923107
H   H89       1.0  0.24820  0.05460  0.76820  1.0000 0.1391923107
H   H90       1.0  0.05460  0.28640  0.80640  1.0000 0.1391923107
H   H91       1.0  0.28640  0.48000  0.23180  1.0000 0.1391923107
H   H92       1.0  0.48000  0.24820  0.19360  1.0000 0.1391923107
H   H93       1.0  0.75180  0.94540  0.23180  1.0000 0.1391923107
H   H94       1.0  0.94540  0.71360  0.19360  1.0000 0.1391923107
H   H95       1.0  0.71360  0.52000  0.76820  1.0000 0.1391923107
H   H96       1.0  0.52000  0.75180  0.80640  1.0000 0.1391923107
H   H97       1.0  0.32350  0.60570  0.78040  1.0000 0.1391923107
H   H98       1.0  0.60570  0.82530  0.28220  1.0000 0.1391923107
H   H99       1.0  0.82530  0.54310  0.21960  1.0000 0.1391923107
H   H100      1.0  0.54310  0.32350  0.71780  1.0000 0.1391923107
H   H101      1.0  0.67650  0.39430  0.21960  1.0000 0.1391923107
H   H102      1.0  0.39430  0.17470  0.71780  1.0000 0.1391923107
H   H103      1.0  0.17470  0.45690  0.78040  1.0000 0.1391923107
H   H104      1.0  0.45690  0.67650  0.28220  1.0000 0.1391923107
H   H105      1.0  0.17870  0.59490  0.65600  1.0000 0.1391923107
H   H106      1.0  0.59490  0.93890  0.41620  1.0000 0.1391923107
H   H107      1.0  0.93890  0.52270  0.34400  1.0000 0.1391923107
H   H108      1.0  0.52270  0.17870  0.58380  1.0000 0.1391923107
H   H109      1.0  0.82130  0.40510  0.34400  1.0000 0.1391923107
H   H110      1.0  0.40510  0.06110  0.58380  1.0000 0.1391923107
H   H111      1.0  0.06110  0.47730  0.65600  1.0000 0.1391923107
H   H112      1.0  0.47730  0.82130  0.41620  1.0000 0.1391923107
H   H113      1.0  0.29800  0.73610  0.78670  1.0000 0.1391923107
H   H114      1.0  0.73610  0.94940  0.43810  1.0000 0.1391923107
H   H115      1.0  0.94940  0.51130  0.21330  1.0000 0.1391923107
H   H116      1.0  0.51130  0.29800  0.56190  1.0000 0.1391923107
H   H117      1.0  0.70200  0.26390  0.21330  1.0000 0.1391923107
H   H118      1.0  0.26390  0.05060  0.56190  1.0000 0.1391923107
H   H119      1.0  0.05060  0.48870  0.78670  1.0000 0.1391923107
H   H120      1.0  0.48870  0.70200  0.43810  1.0000 0.1391923107
H   H121      1.0  0.13190  0.92920  0.71590  1.0000 0.1391923107
H   H122      1.0  0.92920  0.21330  0.79730  1.0000 0.1391923107
H   H123      1.0  0.21330  0.41600  0.28410  1.0000 0.1391923107
H   H124      1.0  0.41600  0.13190  0.20270  1.0000 0.1391923107
H   H125      1.0  0.86810  0.07080  0.28410  1.0000 0.1391923107
H   H126      1.0  0.07080  0.78670  0.20270  1.0000 0.1391923107
H   H127      1.0  0.78670  0.58400  0.71590  1.0000 0.1391923107
H   H128      1.0  0.58400  0.86810  0.79730  1.0000 0.1391923107
H   H129      1.0  0.23150  0.84910  0.76720  1.0000 0.1457321935
H   H130      1.0  0.84910  0.08190  0.61760  1.0000 0.1457321935
H   H131      1.0  0.08190  0.46430  0.23280  1.0000 0.1391923107
H   H132      1.0  0.46430  0.23150  0.38240  1.0000 0.1457321935
H   H133      1.0  0.76850  0.15090  0.23280  1.0000 0.1457321935
H   H134      1.0  0.15090  0.91810  0.38240  1.0000 0.1457321935
H   H135      1.0  0.91810  0.53570  0.76720  1.0000 0.1391923107
H   H136      1.0  0.53570  0.76850  0.61760  1.0000 0.1391923107
H   H137      1.0  0.06950  0.76998  0.63288  1.0000 0.1457321935
H   H138      1.0  0.76998  0.13710  0.70048  1.0000 0.1457321935
H   H139      1.0  0.13710  0.43662  0.36712  1.0000 0.1457321935
H   H140      1.0  0.43662  0.06950  0.29952  1.0000 0.1457321935
H   H141      1.0  0.93050  0.23002  0.36712  1.0000 0.1457321935
H   H142      1.0  0.23002  0.86290  0.29952  1.0000 0.1457321935
H   H143      1.0  0.86290  0.56338  0.63288  1.0000 0.1457321935
H   H144      1.0  0.56338  0.93050  0.70048  1.0000 0.1457321935
C   C1        1.0  0.82039  0.65828  0.39551  1.0000 0.5909938095
C   C2        1.0  0.65828  0.26277  0.83789  1.0000 0.5909938095
C   C3        1.0  0.26277  0.42488  0.60449  1.0000 0.5909938095
C   C4        1.0  0.42488  0.82039  0.16211  1.0000 0.5909938095
C   C5        1.0  0.17961  0.34172  0.60449  1.0000 0.5909938095
C   C6        1.0  0.34172  0.73723  0.16211  1.0000 0.5909938095
C   C7        1.0  0.73723  0.57512  0.39551  1.0000 0.5909938095
C   C8        1.0  0.57512  0.17961  0.83789  1.0000 0.5909938095
C   C9        1.0  0.81117  0.80337  0.36720  1.0000 0.5909938095
C   C10       1.0  0.80337  0.43617  0.99220  1.0000 0.5909938095
C   C11       1.0  0.43617  0.44397  0.63280  1.0000 0.5909938095
C   C12       1.0  0.44397  0.81117  0.00780  1.0000 0.5909938095
C   C13       1.0  0.18883  0.19663  0.63280  1.0000 0.5909938095
C   C14       1.0  0.19663  0.56383  0.00780  1.0000 0.5909938095
C   C15       1.0  0.56383  0.55603  0.36720  1.0000 0.5909938095
C   C16       1.0  0.55603  0.18883  0.99220  1.0000 0.5909938095
C   C17       1.0  0.84182  0.71472  0.42010  1.0000 -0.0295358482
C   C18       1.0  0.71472  0.29462  0.87290  1.0000 -0.0295358482
C   C19       1.0  0.29462  0.42172  0.57990  1.0000 -0.0295358482
C   C20       1.0  0.42172  0.84182  0.12710  1.0000 -0.0295358482
C   C21       1.0  0.15818  0.28528  0.57990  1.0000 -0.0295358482
C   C22       1.0  0.28528  0.70538  0.12710  1.0000 -0.0295358482
C   C23       1.0  0.70538  0.57828  0.42010  1.0000 -0.0295358482
C   C24       1.0  0.57828  0.15818  0.87290  1.0000 -0.0295358482
C   C25       1.0  0.81481  0.73301  0.38460  1.0000 -0.0993191573
C   C26       1.0  0.73301  0.34841  0.91820  1.0000 -0.0993191573
C   C27       1.0  0.34841  0.43021  0.61540  1.0000 -0.0993191573
C   C28       1.0  0.43021  0.81481  0.08180  1.0000 -0.0993191573
C   C29       1.0  0.18519  0.26699  0.61540  1.0000 -0.0946814706
C   C30       1.0  0.26699  0.65159  0.08180  1.0000 -0.0993191573
C   C31       1.0  0.65159  0.56979  0.38460  1.0000 -0.0946814706
C   C32       1.0  0.56979  0.18519  0.91820  1.0000 -0.0946814706
C   C33       1.0  0.83675  0.78485  0.40650  1.0000 -0.0427915221
C   C34       1.0  0.78485  0.37835  0.94810  1.0000 -0.0427915221
C   C35       1.0  0.37835  0.43025  0.59350  1.0000 -0.0427915221
C   C36       1.0  0.43025  0.83675  0.05190  1.0000 -0.0427915221
C   C37       1.0  0.16325  0.21515  0.59350  1.0000 -0.0427915221
C   C38       1.0  0.21515  0.62165  0.05190  1.0000 -0.0427915221
C   C39       1.0  0.62165  0.56975  0.40650  1.0000 -0.0427915221
C   C40       1.0  0.56975  0.16325  0.94810  1.0000 -0.0427915221
C   C41       1.0  0.88428  0.81578  0.46110  1.0000 -0.1786388009
C   C42       1.0  0.81578  0.35468  0.93150  1.0000 -0.1786388009
C   C43       1.0  0.35468  0.42318  0.53890  1.0000 -0.1786388009
C   C44       1.0  0.42318  0.88428  0.06850  1.0000 -0.1786388009
C   C45       1.0  0.11572  0.18422  0.53890  1.0000 -0.1786388009
C   C46       1.0  0.18422  0.64532  0.06850  1.0000 -0.1786388009
C   C47       1.0  0.64532  0.57682  0.46110  1.0000 -0.1786388009
C   C48       1.0  0.57682  0.11572  0.93150  1.0000 -0.1786388009
C   C49       1.0  0.91143  0.79733  0.50030  1.0000 0.2357929881
C   C50       1.0  0.79733  0.29703  0.88590  1.0000 0.2357929881
C   C51       1.0  0.29703  0.41113  0.49970  1.0000 0.2357929881
C   C52       1.0  0.41113  0.91143  0.11410  1.0000 0.2357929881
C   C53       1.0  0.08857  0.20267  0.49970  1.0000 0.2357929881
C   C54       1.0  0.20267  0.70297  0.11410  1.0000 0.2357929881
C   C55       1.0  0.70297  0.58887  0.50030  1.0000 0.2357929881
C   C56       1.0  0.58887  0.08857  0.88590  1.0000 0.2357929881
C   C57       1.0  0.88852  0.74652  0.47760  1.0000 -0.1692371146
C   C58       1.0  0.74652  0.26892  0.85800  1.0000 -0.1692371146
C   C59       1.0  0.26892  0.41092  0.52240  1.0000 -0.1692371146
C   C60       1.0  0.41092  0.88852  0.14200  1.0000 -0.1692371146
C   C61       1.0  0.11148  0.25348  0.52240  1.0000 -0.1692371146
C   C62       1.0  0.25348  0.73108  0.14200  1.0000 -0.1692371146
C   C63       1.0  0.73108  0.58908  0.47760  1.0000 -0.1692371146
C   C64       1.0  0.58908  0.11148  0.85800  1.0000 -0.1692371146
C   C65       1.0  0.27727  0.13957  0.77670  1.0000 0.5909938095
C   C66       1.0  0.13957  0.36287  0.86230  1.0000 0.5909938095
C   C67       1.0  0.36287  0.50057  0.22330  1.0000 0.5909938095
C   C68       1.0  0.50057  0.27727  0.13770  1.0000 0.5909938095
C   C69       1.0  0.72273  0.86043  0.22330  1.0000 0.5909938095
C   C70       1.0  0.86043  0.63713  0.13770  1.0000 0.5909938095
C   C71       1.0  0.63713  0.49943  0.77670  1.0000 0.5909938095
C   C72       1.0  0.49943  0.72273  0.86230  1.0000 0.5909938095
C   C73       1.0  0.43662  0.17682  0.97160  1.0000 0.5909938095
C   C74       1.0  0.17682  0.20522  0.74020  1.0000 0.5909938095
C   C75       1.0  0.20522  0.46502  0.02840  1.0000 0.5909938095
C   C76       1.0  0.46502  0.43662  0.25980  1.0000 0.5909938095
C   C77       1.0  0.56338  0.82318  0.02840  1.0000 0.5909938095
C   C78       1.0  0.82318  0.79478  0.25980  1.0000 0.5909938095
C   C79       1.0  0.79478  0.53498  0.97160  1.0000 0.5909938095
C   C80       1.0  0.53498  0.56338  0.74020  1.0000 0.5909938095
C   C81       1.0  0.30505  0.12485  0.82040  1.0000 -0.0295358482
C   C82       1.0  0.12485  0.30445  0.81980  1.0000 -0.0295358482
C   C83       1.0  0.30445  0.48465  0.17960  1.0000 -0.0295358482
C   C84       1.0  0.48465  0.30505  0.18020  1.0000 -0.0295358482
C   C85       1.0  0.69495  0.87515  0.17960  1.0000 -0.0295358482
C   C86       1.0  0.87515  0.69555  0.18020  1.0000 -0.0295358482
C   C87       1.0  0.69555  0.51535  0.82040  1.0000 -0.0295358482
C   C88       1.0  0.51535  0.69495  0.81980  1.0000 -0.0295358482
C   C89       1.0  0.35447  0.15787  0.87560  1.0000 -0.0993191573
C   C90       1.0  0.15787  0.28227  0.80340  1.0000 -0.0993191573
C   C91       1.0  0.28227  0.47887  0.12440  1.0000 -0.1069065136
C   C92       1.0  0.47887  0.35447  0.19660  1.0000 -0.1069065136
C   C93       1.0  0.64553  0.84213  0.12440  1.0000 -0.1069065136
C   C94       1.0  0.84213  0.71773  0.19660  1.0000 -0.1069065136
C   C95       1.0  0.71773  0.52113  0.87560  1.0000 -0.0993191573
C   C96       1.0  0.52113  0.64553  0.80340  1.0000 -0.0993191573
C   C97       1.0  0.38114  0.14154  0.91500  1.0000 -0.0219276172
C   C98       1.0  0.14154  0.22654  0.76040  1.0000 -0.0219276172
C   C99       1.0  0.22654  0.46614  0.08500  1.0000 -0.0219276172
C   C100      1.0  0.46614  0.38114  0.23960  1.0000 -0.0219276172
C   C101      1.0  0.61886  0.85846  0.08500  1.0000 -0.0219276172
C   C102      1.0  0.85846  0.77346  0.23960  1.0000 -0.0219276172
C   C103      1.0  0.77346  0.53386  0.91500  1.0000 -0.0219276172
C   C104      1.0  0.53386  0.61886  0.76040  1.0000 -0.0219276172
C   C105      1.0  0.35919  0.09709  0.90230  1.0000 -0.1786388009
C   C106      1.0  0.09709  0.19479  0.73790  1.0000 -0.1786388009
C   C107      1.0  0.19479  0.45689  0.09770  1.0000 -0.1786388009
C   C108      1.0  0.45689  0.35919  0.26210  1.0000 -0.1786388009
C   C109      1.0  0.64081  0.90291  0.09770  1.0000 -0.1786388009
C   C110      1.0  0.90291  0.80521  0.26210  1.0000 -0.1786388009
C   C111      1.0  0.80521  0.54311  0.90230  1.0000 -0.1786388009
C   C112      1.0  0.54311  0.64081  0.73790  1.0000 -0.1786388009
C   C113      1.0  0.30940  0.06350  0.84750  1.0000 0.2266834463
C   C114      1.0  0.06350  0.21600  0.75410  1.0000 0.2266834463
C   C115      1.0  0.21600  0.46190  0.15250  1.0000 0.2266834463
C   C116      1.0  0.46190  0.30940  0.24590  1.0000 0.2266834463
C   C117      1.0  0.69060  0.93650  0.15250  1.0000 0.2266834463
C   C118      1.0  0.93650  0.78400  0.24590  1.0000 0.2204059811
C   C119      1.0  0.78400  0.53810  0.84750  1.0000 0.2266834463
C   C120      1.0  0.53810  0.69060  0.75410  1.0000 0.2266834463
C   C121      1.0  0.28200  0.07740  0.80580  1.0000 -0.1645515178
C   C122      1.0  0.07740  0.27160  0.79540  1.0000 -0.1692371146
C   C123      1.0  0.27160  0.47620  0.19420  1.0000 -0.1692371146
C   C124      1.0  0.47620  0.28200  0.20460  1.0000 -0.1692371146
C   C125      1.0  0.71800  0.92260  0.19420  1.0000 -0.1692371146
C   C126      1.0  0.92260  0.72840  0.20460  1.0000 -0.1692371146
C   C127      1.0  0.72840  0.52380  0.80580  1.0000 -0.1645515178
C   C128      1.0  0.52380  0.71800  0.79540  1.0000 -0.1692371146
C   C129      1.0  0.37558  0.70628  0.83950  1.0000 0.5909938095
C   C130      1.0  0.70628  0.86678  0.33070  1.0000 0.5909938095
C   C131      1.0  0.86678  0.53608  0.16050  1.0000 0.5909938095
C   C132      1.0  0.53608  0.37558  0.66930  1.0000 0.5909938095
C   C133      1.0  0.62442  0.29372  0.16050  1.0000 0.5909938095
C   C134      1.0  0.29372  0.13322  0.66930  1.0000 0.5909938095
C   C135      1.0  0.13322  0.46392  0.83950  1.0000 0.5909938095
C   C136      1.0  0.46392  0.62442  0.33070  1.0000 0.5909938095
C   C137      1.0  0.23170  0.53430  0.68500  1.0000 0.5909938095
C   C138      1.0  0.53430  0.84930  0.30260  1.0000 0.5909938095
C   C139      1.0  0.84930  0.54670  0.31500  1.0000 0.5909938095
C   C140      1.0  0.54670  0.23170  0.69740  1.0000 0.5909938095
C   C141      1.0  0.76830  0.46570  0.31500  1.0000 0.5909938095
C   C142      1.0  0.46570  0.15070  0.69740  1.0000 0.5909938095
C   C143      1.0  0.15070  0.45330  0.68500  1.0000 0.5909938095
C   C144      1.0  0.45330  0.76830  0.30260  1.0000 0.5909938095
C   C145      1.0  0.31859  0.67539  0.78900  1.0000 -0.0295358482
C   C146      1.0  0.67539  0.88639  0.35680  1.0000 -0.0295358482
C   C147      1.0  0.88639  0.52959  0.21100  1.0000 -0.0295358482
C   C148      1.0  0.52959  0.31859  0.64320  1.0000 -0.0295358482
C   C149      1.0  0.68141  0.32461  0.21100  1.0000 -0.0295358482
C   C150      1.0  0.32461  0.11361  0.64320  1.0000 -0.0295358482
C   C151      1.0  0.11361  0.47041  0.78900  1.0000 -0.0295358482
C   C152      1.0  0.47041  0.68141  0.35680  1.0000 -0.0295358482
C   C153      1.0  0.30010  0.62160  0.76330  1.0000 -0.1069065136
C   C154      1.0  0.62160  0.85830  0.32150  1.0000 -0.1069065136
C   C155      1.0  0.85830  0.53680  0.23670  1.0000 -0.1069065136
C   C156      1.0  0.53680  0.30010  0.67850  1.0000 -0.1069065136
C   C157      1.0  0.69990  0.37840  0.23670  1.0000 -0.1069065136
C   C158      1.0  0.37840  0.14170  0.67850  1.0000 -0.1069065136
C   C159      1.0  0.14170  0.46320  0.76330  1.0000 -0.1069065136
C   C160      1.0  0.46320  0.69990  0.32150  1.0000 -0.1069065136
C   C161      1.0  0.24915  0.59265  0.71430  1.0000 -0.0295358482
C   C162      1.0  0.59265  0.87835  0.34350  1.0000 -0.0295358482
C   C163      1.0  0.87835  0.53485  0.28570  1.0000 -0.0295358482
C   C164      1.0  0.53485  0.24915  0.65650  1.0000 -0.0295358482
C   C165      1.0  0.75085  0.40735  0.28570  1.0000 -0.0295358482
C   C166      1.0  0.40735  0.12165  0.65650  1.0000 -0.0295358482
C   C167      1.0  0.12165  0.46515  0.71430  1.0000 -0.0295358482
C   C168      1.0  0.46515  0.75085  0.34350  1.0000 -0.0295358482
C   C169      1.0  0.21450  0.61550  0.69040  1.0000 -0.1962039505
C   C170      1.0  0.61550  0.92510  0.40100  1.0000 -0.1962039505
C   C171      1.0  0.92510  0.52410  0.30960  1.0000 -0.1962039505
C   C172      1.0  0.52410  0.21450  0.59900  1.0000 -0.1946275845
C   C173      1.0  0.78550  0.38450  0.30960  1.0000 -0.1962039505
C   C174      1.0  0.38450  0.07490  0.59900  1.0000 -0.1946275845
C   C175      1.0  0.07490  0.47590  0.69040  1.0000 -0.1962039505
C   C176      1.0  0.47590  0.78550  0.40100  1.0000 -0.1946275845
C   C177      1.0  0.23220  0.66880  0.71680  1.0000 0.2204059811
C   C178      1.0  0.66880  0.95200  0.43660  1.0000 0.2204059811
C   C179      1.0  0.95200  0.51540  0.28320  1.0000 0.2204059811
C   C180      1.0  0.51540  0.23220  0.56340  1.0000 0.2204059811
C   C181      1.0  0.76780  0.33120  0.28320  1.0000 0.2204059811
C   C182      1.0  0.33120  0.04800  0.56340  1.0000 0.2204059811
C   C183      1.0  0.04800  0.48460  0.71680  1.0000 0.2204059811
C   C184      1.0  0.48460  0.76780  0.43660  1.0000 0.2204059811
C   C185      1.0  0.28570  0.69940  0.76790  1.0000 -0.1530291316
C   C186      1.0  0.69940  0.93150  0.41370  1.0000 -0.1530291316
C   C187      1.0  0.93150  0.51780  0.23210  1.0000 -0.1530291316
C   C188      1.0  0.51780  0.28570  0.58630  1.0000 -0.1530291316
C   C189      1.0  0.71430  0.30060  0.23210  1.0000 -0.1530291316
C   C190      1.0  0.30060  0.06850  0.58630  1.0000 -0.1530291316
C   C191      1.0  0.06850  0.48220  0.76790  1.0000 -0.1530291316
C   C192      1.0  0.48220  0.71430  0.41370  1.0000 -0.1530291316
C   C193      1.0  0.99870  0.81360  0.58350  1.0000 0.5909938095
C   C194      1.0  0.81360  0.23010  0.81490  1.0000 0.5986610231
C   C195      1.0  0.23010  0.41520  0.41650  1.0000 0.5909938095
C   C196      1.0  0.41520  0.99870  0.18510  1.0000 0.5986610231
C   C197      1.0  0.00130  0.18640  0.41650  1.0000 0.5986610231
C   C198      1.0  0.18640  0.76990  0.18510  1.0000 0.5986610231
C   C199      1.0  0.76990  0.58480  0.58350  1.0000 0.5909938095
C   C200      1.0  0.58480  0.00130  0.81490  1.0000 0.5986610231
C   C201      1.0  0.23680  0.98380  0.79500  1.0000 0.5822425569
C   C202      1.0  0.98380  0.18880  0.74700  1.0000 0.5822425569
C   C203      1.0  0.18880  0.44180  0.20500  1.0000 0.5822425569
C   C204      1.0  0.44180  0.23680  0.25300  1.0000 0.5822425569
C   C205      1.0  0.76320  0.01620  0.20500  1.0000 0.5822425569
C   C206      1.0  0.01620  0.81120  0.25300  1.0000 0.5822425569
C   C207      1.0  0.81120  0.55820  0.79500  1.0000 0.5822425569
C   C208      1.0  0.55820  0.76320  0.74700  1.0000 0.5909938095
C   C209      1.0  0.20130  0.74410  0.71800  1.0000 0.5986610231
C   C210      1.0  0.74410  0.02610  0.54280  1.0000 0.5986610231
C   C211      1.0  0.02610  0.48330  0.28200  1.0000 0.5986610231
C   C212      1.0  0.48330  0.20130  0.45720  1.0000 0.5986610231
C   C213      1.0  0.79870  0.25590  0.28200  1.0000 0.5986610231
C   C214      1.0  0.25590  0.97390  0.45720  1.0000 0.5986610231
C   C215      1.0  0.97390  0.51670  0.71800  1.0000 0.5986610231
C   C216      1.0  0.51670  0.79870  0.54280  1.0000 0.5986610231
C   C217      1.0  0.09434  0.85014  0.67000  1.0000 0.3063572188
C   C218      1.0  0.85014  0.18014  0.75580  1.0000 0.3041037644
C   C219      1.0  0.18014  0.42434  0.33000  1.0000 0.3041037644
C   C220      1.0  0.42434  0.09434  0.24420  1.0000 0.3041037644
C   C221      1.0  0.90566  0.14986  0.33000  1.0000 0.3041037644
C   C222      1.0  0.14986  0.81986  0.24420  1.0000 0.3063572188
C   C223      1.0  0.81986  0.57566  0.67000  1.0000 0.3063572188
C   C224      1.0  0.57566  0.90566  0.75580  1.0000 0.3063572188
C   C225      1.0  0.13702  0.89742  0.71180  1.0000 -0.3204491203
C   C226      1.0  0.89742  0.18562  0.76040  1.0000 -0.3204491203
C   C227      1.0  0.18562  0.42522  0.28820  1.0000 -0.3204491203
C   C228      1.0  0.42522  0.13702  0.23960  1.0000 -0.3204491203
C   C229      1.0  0.86298  0.10258  0.28820  1.0000 -0.3204491203
C   C230      1.0  0.10258  0.81438  0.23960  1.0000 -0.3204491203
C   C231      1.0  0.81438  0.57478  0.71180  1.0000 -0.3204491203
C   C232      1.0  0.57478  0.86298  0.76040  1.0000 -0.3204491203
C   C233      1.0  0.18802  0.89482  0.74740  1.0000 0.280356502
C   C234      1.0  0.89482  0.14742  0.70680  1.0000 0.280356502
C   C235      1.0  0.14742  0.44062  0.25260  1.0000 0.280356502
C   C236      1.0  0.44062  0.18802  0.29320  1.0000 0.280356502
C   C237      1.0  0.81198  0.10518  0.25260  1.0000 0.280356502
C   C238      1.0  0.10518  0.85258  0.29320  1.0000 0.280356502
C   C239      1.0  0.85258  0.55938  0.74740  1.0000 0.280356502
C   C240      1.0  0.55938  0.81198  0.70680  1.0000 0.280356502
C   C241      1.0  0.19685  0.84955  0.74270  1.0000 -0.3204491203
C   C242      1.0  0.84955  0.10685  0.65270  1.0000 -0.3204491203
C   C243      1.0  0.10685  0.45415  0.25730  1.0000 -0.3204491203
C   C244      1.0  0.45415  0.19685  0.34730  1.0000 -0.3204491203
C   C245      1.0  0.80315  0.15045  0.25730  1.0000 -0.3204491203
C   C246      1.0  0.15045  0.89315  0.34730  1.0000 -0.3204491203
C   C247      1.0  0.89315  0.54585  0.74270  1.0000 -0.3204491203
C   C248      1.0  0.54585  0.80315  0.65270  1.0000 -0.3204491203
C   C249      1.0  0.15230  0.80350  0.69980  1.0000 0.3063572188
C   C250      1.0  0.80350  0.10370  0.65120  1.0000 0.3063572188
C   C251      1.0  0.10370  0.45250  0.30020  1.0000 0.3063572188
C   C252      1.0  0.45250  0.15230  0.34880  1.0000 0.3063572188
C   C253      1.0  0.84770  0.19650  0.30020  1.0000 0.3063572188
C   C254      1.0  0.19650  0.89630  0.34880  1.0000 0.3063572188
C   C255      1.0  0.89630  0.54750  0.69980  1.0000 0.3063572188
C   C256      1.0  0.54750  0.84770  0.65120  1.0000 0.3041037644
C   C257      1.0  0.09890  0.80130  0.66140  1.0000 -0.3328609122
C   C258      1.0  0.80130  0.13990  0.70240  1.0000 -0.3328609122
C   C259      1.0  0.13990  0.43750  0.33860  1.0000 -0.3328609122
C   C260      1.0  0.43750  0.09890  0.29760  1.0000 -0.3328609122
C   C261      1.0  0.90110  0.19870  0.33860  1.0000 -0.3328609122
C   C262      1.0  0.19870  0.86010  0.29760  1.0000 -0.3328609122
C   C263      1.0  0.86010  0.56250  0.66140  1.0000 -0.3328609122
C   C264      1.0  0.56250  0.90110  0.70240  1.0000 -0.3328609122
N   N1        1.0  0.96093  0.83183  0.55690  1.0000 -0.4378688976
N   N2        1.0  0.83183  0.27493  0.87090  1.0000 -0.4378688976
N   N3        1.0  0.27493  0.40403  0.44310  1.0000 -0.4378688976
N   N4        1.0  0.40403  0.96093  0.12910  1.0000 -0.4378688976
N   N5        1.0  0.03907  0.16817  0.44310  1.0000 -0.4378688976
N   N6        1.0  0.16817  0.72507  0.12910  1.0000 -0.4378688976
N   N7        1.0  0.72507  0.59597  0.55690  1.0000 -0.4378688976
N   N8        1.0  0.59597  0.03907  0.87090  1.0000 -0.4378688976
N   N9        1.0  0.04430  0.85620  0.63590  1.0000 -0.4378688976
N   N10       1.0  0.85620  0.22030  0.81190  1.0000 -0.4378688976
N   N11       1.0  0.22030  0.40840  0.36410  1.0000 -0.4378688976
N   N12       1.0  0.40840  0.04430  0.18810  1.0000 -0.4378688976
N   N13       1.0  0.95570  0.14380  0.36410  1.0000 -0.4378688976
N   N14       1.0  0.14380  0.77970  0.18810  1.0000 -0.4307373696
N   N15       1.0  0.77970  0.59160  0.63590  1.0000 -0.4378688976
N   N16       1.0  0.59160  0.95570  0.81190  1.0000 -0.4378688976
N   N17       1.0  0.28779  0.01579  0.83540  1.0000 -0.4378688976
N   N18       1.0  0.01579  0.18039  0.72800  1.0000 -0.4307373696
N   N19       1.0  0.18039  0.45239  0.16460  1.0000 -0.4378688976
N   N20       1.0  0.45239  0.28779  0.27200  1.0000 -0.4307373696
N   N21       1.0  0.71221  0.98421  0.16460  1.0000 -0.4378688976
N   N22       1.0  0.98421  0.81961  0.27200  1.0000 -0.4307373696
N   N23       1.0  0.81961  0.54761  0.83540  1.0000 -0.4378688976
N   N24       1.0  0.54761  0.71221  0.72800  1.0000 -0.4378688976
N   N25       1.0  0.23307  0.93907  0.79020  1.0000 -0.4307373696
N   N26       1.0  0.93907  0.14887  0.70600  1.0000 -0.4307373696
N   N27       1.0  0.14887  0.44287  0.20980  1.0000 -0.4307373696
N   N28       1.0  0.44287  0.23307  0.29400  1.0000 -0.4219828163
N   N29       1.0  0.76693  0.06093  0.20980  1.0000 -0.4219828163
N   N30       1.0  0.06093  0.85113  0.29400  1.0000 -0.4219828163
N   N31       1.0  0.85113  0.55713  0.79020  1.0000 -0.4307373696
N   N32       1.0  0.55713  0.76693  0.70600  1.0000 -0.4307373696
N   N33       1.0  0.15320  0.75340  0.68840  1.0000 -0.4307373696
N   N34       1.0  0.75340  0.06500  0.60020  1.0000 -0.4307373696
N   N35       1.0  0.06500  0.46480  0.31160  1.0000 -0.4307373696
N   N36       1.0  0.46480  0.15320  0.39980  1.0000 -0.4307373696
N   N37       1.0  0.84680  0.24660  0.31160  1.0000 -0.4378688976
N   N38       1.0  0.24660  0.93500  0.39980  1.0000 -0.4307373696
N   N39       1.0  0.93500  0.53520  0.68840  1.0000 -0.4307373696
N   N40       1.0  0.53520  0.84680  0.60020  1.0000 -0.4307373696
N   N41       1.0  0.19100  0.69220  0.69860  1.0000 -0.447131973
N   N42       1.0  0.69220  0.99360  0.50120  1.0000 -0.4378688976
N   N43       1.0  0.99360  0.49240  0.30140  1.0000 -0.447131973
N   N44       1.0  0.49240  0.19100  0.49880  1.0000 -0.447131973
N   N45       1.0  0.80900  0.30780  0.30140  1.0000 -0.447131973
N   N46       1.0  0.30780  0.00640  0.49880  1.0000 -0.447131973
N   N47       1.0  0.00640  0.50760  0.69860  1.0000 -0.4378688976
N   N48       1.0  0.50760  0.80900  0.50120  1.0000 -0.447131973
O   O1        1.0  0.84767  0.64290  0.42709  1.0000 -0.5321598084
O   O2        1.0  0.64290  0.21581  0.79523  1.0000 -0.5321598084
O   O3        1.0  0.21581  0.42058  0.57291  1.0000 -0.5321598084
O   O4        1.0  0.42058  0.84767  0.20477  1.0000 -0.5321598084
O   O5        1.0  0.15233  0.35710  0.57291  1.0000 -0.5321598084
O   O6        1.0  0.35710  0.78419  0.20477  1.0000 -0.5321598084
O   O7        1.0  0.78419  0.57942  0.42709  1.0000 -0.5321598084
O   O8        1.0  0.57942  0.15233  0.79523  1.0000 -0.5321598084
O   O9        1.0  0.77693  0.63200  0.34569  1.0000 -0.5195634877
O   O10       1.0  0.63200  0.28631  0.85507  1.0000 -0.5195634877
O   O11       1.0  0.28631  0.43124  0.65431  1.0000 -0.5195634877
O   O12       1.0  0.43124  0.77693  0.14493  1.0000 -0.5195634877
O   O13       1.0  0.22307  0.36800  0.65431  1.0000 -0.5195634877
O   O14       1.0  0.36800  0.71369  0.14493  1.0000 -0.5195634877
O   O15       1.0  0.71369  0.56876  0.34569  1.0000 -0.5195634877
O   O16       1.0  0.56876  0.22307  0.85507  1.0000 -0.5195634877
O   O17       1.0  0.76526  0.77406  0.31850  1.0000 -0.5468759571
O   O18       1.0  0.77406  0.45556  0.00880  1.0000 -0.5408719709
O   O19       1.0  0.45556  0.44676  0.68150  1.0000 -0.5408719709
O   O20       1.0  0.44676  0.76526  0.99120  1.0000 -0.5408719709
O   O21       1.0  0.23474  0.22594  0.68150  1.0000 -0.5408719709
O   O22       1.0  0.22594  0.54444  0.99120  1.0000 -0.5408719709
O   O23       1.0  0.54444  0.55324  0.31850  1.0000 -0.5408719709
O   O24       1.0  0.55324  0.23474  0.00880  1.0000 -0.5468759571
O   O25       1.0  0.83375  0.84868  0.38781  1.0000 -0.5408719709
O   O26       1.0  0.84868  0.46087  0.01493  1.0000 -0.5408719709
O   O27       1.0  0.46087  0.44594  0.61219  1.0000 -0.5408719709
O   O28       1.0  0.44594  0.83375  0.98507  1.0000 -0.5408719709
O   O29       1.0  0.16625  0.15132  0.61219  1.0000 -0.5408719709
O   O30       1.0  0.15132  0.53913  0.98507  1.0000 -0.5408719709
O   O31       1.0  0.53913  0.55406  0.38781  1.0000 -0.5408719709
O   O32       1.0  0.55406  0.16625  0.01493  1.0000 -0.5408719709
O   O33       1.0  0.23769  0.10528  0.72327  1.0000 -0.5408719709
O   O34       1.0  0.10528  0.38201  0.86759  1.0000 -0.5408719709
O   O35       1.0  0.38201  0.51442  0.27673  1.0000 -0.5321598084
O   O36       1.0  0.51442  0.23769  0.13241  1.0000 -0.5321598084
O   O37       1.0  0.76231  0.89472  0.27673  1.0000 -0.5321598084
O   O38       1.0  0.89472  0.61799  0.13241  1.0000 -0.5321598084
O   O39       1.0  0.61799  0.48558  0.72327  1.0000 -0.5321598084
O   O40       1.0  0.48558  0.76231  0.86759  1.0000 -0.5321598084
O   O41       1.0  0.29534  0.18607  0.79825  1.0000 -0.5321598084
O   O42       1.0  0.18607  0.38782  0.89073  1.0000 -0.5321598084
O   O43       1.0  0.38782  0.49709  0.20175  1.0000 -0.5321598084
O   O44       1.0  0.49709  0.29534  0.10927  1.0000 -0.5321598084
O   O45       1.0  0.70466  0.81393  0.20175  1.0000 -0.5321598084
O   O46       1.0  0.81393  0.61218  0.10927  1.0000 -0.5321598084
O   O47       1.0  0.61218  0.50291  0.79825  1.0000 -0.5321598084
O   O48       1.0  0.50291  0.70466  0.89073  1.0000 -0.5321598084
O   O49       1.0  0.45361  0.21900  0.98337  1.0000 -0.5106876632
O   O50       1.0  0.21900  0.23563  0.76539  1.0000 -0.5106876632
O   O51       1.0  0.23563  0.47024  0.01663  1.0000 -0.5106876632
O   O52       1.0  0.47024  0.45361  0.23461  1.0000 -0.5106876632
O   O53       1.0  0.54639  0.78100  0.01663  1.0000 -0.5106876632
O   O54       1.0  0.78100  0.76437  0.23461  1.0000 -0.5106876632
O   O55       1.0  0.76437  0.52976  0.98337  1.0000 -0.5106876632
O   O56       1.0  0.52976  0.54639  0.76539  1.0000 -0.5106876632
O   O57       1.0  0.45916  0.15982  0.00436  1.0000 -0.5468759571
O   O58       1.0  0.15982  0.15546  0.70066  1.0000 -0.5468759571
O   O59       1.0  0.15546  0.45480  0.99564  1.0000 -0.5468759571
O   O60       1.0  0.45480  0.45916  0.29934  1.0000 -0.5468759571
O   O61       1.0  0.54084  0.84018  0.99564  1.0000 -0.5468759571
O   O62       1.0  0.84018  0.84454  0.29934  1.0000 -0.5468759571
O   O63       1.0  0.84454  0.54520  0.00436  1.0000 -0.5468759571
O   O64       1.0  0.54520  0.54084  0.70066  1.0000 -0.5468759571
O   O65       1.0  0.38980  0.75276  0.85646  1.0000 -0.5408719709
O   O66       1.0  0.75276  0.89630  0.36296  1.0000 -0.5408719709
O   O67       1.0  0.89630  0.53334  0.14354  1.0000 -0.5408719709
O   O68       1.0  0.53334  0.38980  0.63704  1.0000 -0.5408719709
O   O69       1.0  0.61020  0.24724  0.14354  1.0000 -0.5408719709
O   O70       1.0  0.24724  0.10370  0.63704  1.0000 -0.5408719709
O   O71       1.0  0.10370  0.46666  0.85646  1.0000 -0.5408719709
O   O72       1.0  0.46666  0.61020  0.36296  1.0000 -0.5408719709
O   O73       1.0  0.40347  0.68626  0.86581  1.0000 -0.5408719709
O   O74       1.0  0.68626  0.82045  0.28279  1.0000 -0.5408719709
O   O75       1.0  0.82045  0.53766  0.13419  1.0000 -0.5408719709
O   O76       1.0  0.53766  0.40347  0.71721  1.0000 -0.5408719709
O   O77       1.0  0.59653  0.31374  0.13419  1.0000 -0.5408719709
O   O78       1.0  0.31374  0.17955  0.71721  1.0000 -0.5408719709
O   O79       1.0  0.17955  0.46234  0.86581  1.0000 -0.5408719709
O   O80       1.0  0.46234  0.59653  0.28279  1.0000 -0.5408719709
O   O81       1.0  0.25952  0.51852  0.71598  1.0000 -0.5321598084
O   O82       1.0  0.51852  0.80254  0.25900  1.0000 -0.5321598084
O   O83       1.0  0.80254  0.54354  0.28402  1.0000 -0.5321598084
O   O84       1.0  0.54354  0.25952  0.74100  1.0000 -0.5321598084
O   O85       1.0  0.74048  0.48148  0.28402  1.0000 -0.5321598084
O   O86       1.0  0.48148  0.19746  0.74100  1.0000 -0.5321598084
O   O87       1.0  0.19746  0.45646  0.71598  1.0000 -0.5321598084
O   O88       1.0  0.45646  0.74048  0.25900  1.0000 -0.5321598084
O   O89       1.0  0.18797  0.50693  0.63346  1.0000 -0.5408719709
O   O90       1.0  0.50693  0.87347  0.31896  1.0000 -0.5408719709
O   O91       1.0  0.87347  0.55451  0.36654  1.0000 -0.5408719709
O   O92       1.0  0.55451  0.18797  0.68104  1.0000 -0.5408719709
O   O93       1.0  0.81203  0.49307  0.36654  1.0000 -0.5408719709
O   O94       1.0  0.49307  0.12653  0.68104  1.0000 -0.5408719709
O   O95       1.0  0.12653  0.44549  0.63346  1.0000 -0.5408719709
O   O96       1.0  0.44549  0.81203  0.31896  1.0000 -0.5321598084
O   O97       1.0  0.99570  0.76780  0.56390  1.0000 -0.4994394974
O   O98       1.0  0.76780  0.20390  0.77210  1.0000 -0.4994394974
O   O99       1.0  0.20390  0.43180  0.43610  1.0000 -0.4994394974
O   O100      1.0  0.43180  0.99570  0.22790  1.0000 -0.4994394974
O   O101      1.0  0.00430  0.23220  0.43610  1.0000 -0.4994394974
O   O102      1.0  0.23220  0.79610  0.22790  1.0000 -0.4994394974
O   O103      1.0  0.79610  0.56820  0.56390  1.0000 -0.4994394974
O   O104      1.0  0.56820  0.00430  0.77210  1.0000 -0.4994394974
O   O105      1.0  0.20261  0.99191  0.75950  1.0000 -0.5106876632
O   O106      1.0  0.99191  0.23241  0.78930  1.0000 -0.5106876632
O   O107      1.0  0.23241  0.44311  0.24050  1.0000 -0.5106876632
O   O108      1.0  0.44311  0.20261  0.21070  1.0000 -0.4994394974
O   O109      1.0  0.79739  0.00809  0.24050  1.0000 -0.5106876632
O   O110      1.0  0.00809  0.76759  0.21070  1.0000 -0.4994394974
O   O111      1.0  0.76759  0.55689  0.75950  1.0000 -0.5106876632
O   O112      1.0  0.55689  0.79739  0.78930  1.0000 -0.5106876632
O   O113      1.0  0.24180  0.77980  0.76280  1.0000 -0.4994394974
O   O114      1.0  0.77980  0.01700  0.53800  1.0000 -0.4994394974
O   O115      1.0  0.01700  0.47900  0.23720  1.0000 -0.4994394974
O   O116      1.0  0.47900  0.24180  0.46200  1.0000 -0.4994394974
O   O117      1.0  0.75820  0.22020  0.23720  1.0000 -0.5106876632
O   O118      1.0  0.22020  0.98300  0.46200  1.0000 -0.5106876632
O   O119      1.0  0.98300  0.52100  0.76280  1.0000 -0.4994394974
O   O120      1.0  0.52100  0.75820  0.53800  1.0000 -0.4994394974
