# DDEC6 charges by PACMAN v1.1 (https://github.com/mtap-research/PACMAN-charge/)
data_2016[Co][nan]3[ASR]2
_chemical_formula_sum              "Co18 H192 C324 N24 O72"
_cell_length_a       24.0626
_cell_length_b       24.0626
_cell_length_c       24.0626
_cell_angle_alpha    104.344
_cell_angle_beta     104.344
_cell_angle_gamma    104.344

_symmetry_space_group_name_H-M    "P 1"
_symmetry_Int_Tables_number       1

loop_
  _symmetry_equiv_pos_as_xyz
  'x, y, z'

loop_
  _atom_site_type_symbol
  _atom_site_label
  _atom_site_symmetry_multiplicity
  _atom_site_fract_x
  _atom_site_fract_y
  _atom_site_fract_z
  _atom_site_occupancy
  _atom_site_charge
Co  Co1       1.0  0.26676  0.75000  0.23324  1.0000 1.1010996846
Co  Co2       1.0  0.75000  0.23324  0.26676  1.0000 1.1010996846
Co  Co3       1.0  0.23324  0.26676  0.75000  1.0000 1.1010996846
Co  Co4       1.0  0.17331  0.81416  0.15486  1.0000 0.8691005357
Co  Co5       1.0  0.81416  0.15486  0.17331  1.0000 0.8691005357
Co  Co6       1.0  0.15486  0.17331  0.81416  1.0000 0.8691005357
Co  Co7       1.0  0.32669  0.34514  0.68584  1.0000 0.8691005357
Co  Co8       1.0  0.34514  0.68584  0.32669  1.0000 0.8691005357
Co  Co9       1.0  0.68584  0.32669  0.34514  1.0000 0.8691005357
Co  Co10      1.0  0.73324  0.25000  0.76676  1.0000 1.1010996846
Co  Co11      1.0  0.25000  0.76676  0.73324  1.0000 1.1010996846
Co  Co12      1.0  0.76676  0.73324  0.25000  1.0000 1.1010996846
Co  Co13      1.0  0.82669  0.18584  0.84514  1.0000 0.8691005357
Co  Co14      1.0  0.18584  0.84514  0.82669  1.0000 0.8691005357
Co  Co15      1.0  0.84514  0.82669  0.18584  1.0000 0.8691005357
Co  Co16      1.0  0.67331  0.65486  0.31416  1.0000 0.8691005357
Co  Co17      1.0  0.65486  0.31416  0.67331  1.0000 0.8691005357
Co  Co18      1.0  0.31416  0.67331  0.65486  1.0000 0.8691005357
H   H1        1.0  0.17890  0.52100  0.06940  1.0000 0.1120842914
H   H2        1.0  0.52100  0.06940  0.17890  1.0000 0.1120842914
H   H3        1.0  0.06940  0.17890  0.52100  1.0000 0.1120842914
H   H4        1.0  0.32110  0.43060  0.97900  1.0000 0.1120842914
H   H5        1.0  0.43060  0.97900  0.32110  1.0000 0.1120842914
H   H6        1.0  0.97900  0.32110  0.43060  1.0000 0.1120842914
H   H7        1.0  0.18460  0.61580  0.12760  1.0000 0.1190388215
H   H8        1.0  0.61580  0.12760  0.18460  1.0000 0.1190388215
H   H9        1.0  0.12760  0.18460  0.61580  1.0000 0.1190388215
H   H10       1.0  0.31540  0.37240  0.88420  1.0000 0.1190388215
H   H11       1.0  0.37240  0.88420  0.31540  1.0000 0.1190388215
H   H12       1.0  0.88420  0.31540  0.37240  1.0000 0.1190388215
H   H13       1.0  0.15320  0.96160  0.04120  1.0000 0.1304912429
H   H14       1.0  0.96160  0.04120  0.15320  1.0000 0.1304912429
H   H15       1.0  0.04120  0.15320  0.96160  1.0000 0.1304912429
H   H16       1.0  0.34680  0.45880  0.53840  1.0000 0.1304912429
H   H17       1.0  0.45880  0.53840  0.34680  1.0000 0.1304912429
H   H18       1.0  0.53840  0.34680  0.45880  1.0000 0.1304912429
H   H19       1.0  0.05610  0.96100  0.15450  1.0000 0.1304912429
H   H20       1.0  0.96100  0.15450  0.05610  1.0000 0.1304912429
H   H21       1.0  0.15450  0.05610  0.96100  1.0000 0.1304912429
H   H22       1.0  0.44390  0.34550  0.53900  1.0000 0.1304912429
H   H23       1.0  0.34550  0.53900  0.44390  1.0000 0.1304912429
H   H24       1.0  0.53900  0.44390  0.34550  1.0000 0.1304912429
H   H25       1.0  0.14330  0.33500  0.94870  1.0000 0.1190388215
H   H26       1.0  0.33500  0.94870  0.14330  1.0000 0.1190388215
H   H27       1.0  0.94870  0.14330  0.33500  1.0000 0.1190388215
H   H28       1.0  0.35670  0.55130  0.16500  1.0000 0.1190388215
H   H29       1.0  0.55130  0.16500  0.35670  1.0000 0.1190388215
H   H30       1.0  0.16500  0.35670  0.55130  1.0000 0.1190388215
H   H31       1.0  0.08970  0.88650  0.17920  1.0000 0.1120842914
H   H32       1.0  0.88650  0.17920  0.08970  1.0000 0.1120842914
H   H33       1.0  0.17920  0.08970  0.88650  1.0000 0.1120842914
H   H34       1.0  0.41030  0.32080  0.61350  1.0000 0.1120842914
H   H35       1.0  0.32080  0.61350  0.41030  1.0000 0.1120842914
H   H36       1.0  0.61350  0.41030  0.32080  1.0000 0.1120842914
H   H37       1.0  0.18680  0.41200  0.82880  1.0000 0.1304912429
H   H38       1.0  0.41200  0.82880  0.18680  1.0000 0.1304912429
H   H39       1.0  0.82880  0.18680  0.41200  1.0000 0.1304912429
H   H40       1.0  0.31320  0.67120  0.08800  1.0000 0.1304912429
H   H41       1.0  0.67120  0.08800  0.31320  1.0000 0.1304912429
H   H42       1.0  0.08800  0.31320  0.67120  1.0000 0.1304912429
H   H43       1.0  0.13690  0.65980  0.97650  1.0000 0.1120842914
H   H44       1.0  0.65980  0.97650  0.13690  1.0000 0.1120842914
H   H45       1.0  0.97650  0.13690  0.65980  1.0000 0.1120842914
H   H46       1.0  0.36310  0.52350  0.84020  1.0000 0.1120842914
H   H47       1.0  0.52350  0.84020  0.36310  1.0000 0.1120842914
H   H48       1.0  0.84020  0.36310  0.52350  1.0000 0.1120842914
H   H49       1.0  0.01510  0.52560  0.17700  1.0000 0.1190388215
H   H50       1.0  0.52560  0.17700  0.01510  1.0000 0.1190388215
H   H51       1.0  0.17700  0.01510  0.52560  1.0000 0.1190388215
H   H52       1.0  0.48490  0.32300  0.97440  1.0000 0.1190388215
H   H53       1.0  0.32300  0.97440  0.48490  1.0000 0.1190388215
H   H54       1.0  0.97440  0.48490  0.32300  1.0000 0.1190388215
H   H55       1.0  0.17950  0.50150  0.88340  1.0000 0.1120842914
H   H56       1.0  0.50150  0.88340  0.17950  1.0000 0.1120842914
H   H57       1.0  0.88340  0.17950  0.50150  1.0000 0.1120842914
H   H58       1.0  0.32050  0.61660  0.99850  1.0000 0.1120842914
H   H59       1.0  0.61660  0.99850  0.32050  1.0000 0.1120842914
H   H60       1.0  0.99850  0.32050  0.61660  1.0000 0.1120842914
H   H61       1.0  0.13290  0.56580  0.91910  1.0000 0.1120842914
H   H62       1.0  0.56580  0.91910  0.13290  1.0000 0.1120842914
H   H63       1.0  0.91910  0.13290  0.56580  1.0000 0.1120842914
H   H64       1.0  0.36710  0.58090  0.93420  1.0000 0.1120842914
H   H65       1.0  0.58090  0.93420  0.36710  1.0000 0.1120842914
H   H66       1.0  0.93420  0.36710  0.58090  1.0000 0.1120842914
H   H67       1.0  0.13790  0.42500  0.00420  1.0000 0.1120842914
H   H68       1.0  0.42500  0.00420  0.13790  1.0000 0.1190388215
H   H69       1.0  0.00420  0.13790  0.42500  1.0000 0.1190388215
H   H70       1.0  0.36210  0.49580  0.07500  1.0000 0.1190388215
H   H71       1.0  0.49580  0.07500  0.36210  1.0000 0.1190388215
H   H72       1.0  0.07500  0.36210  0.49580  1.0000 0.1190388215
H   H73       1.0  0.18470  0.88800  0.07040  1.0000 0.1190388215
H   H74       1.0  0.88800  0.07040  0.18470  1.0000 0.1190388215
H   H75       1.0  0.07040  0.18470  0.88800  1.0000 0.1190388215
H   H76       1.0  0.31530  0.42960  0.61200  1.0000 0.1190388215
H   H77       1.0  0.42960  0.61200  0.31530  1.0000 0.1190388215
H   H78       1.0  0.61200  0.31530  0.42960  1.0000 0.1190388215
H   H79       1.0  0.10440  0.60100  0.19080  1.0000 0.1304912429
H   H80       1.0  0.60100  0.19080  0.10440  1.0000 0.1304912429
H   H81       1.0  0.19080  0.10440  0.60100  1.0000 0.1304912429
H   H82       1.0  0.39560  0.30920  0.89900  1.0000 0.1304912429
H   H83       1.0  0.30920  0.89900  0.39560  1.0000 0.1304912429
H   H84       1.0  0.89900  0.39560  0.30920  1.0000 0.1304912429
H   H85       1.0  0.08900  0.51620  0.34020  1.0000 0.1190388215
H   H86       1.0  0.51620  0.34020  0.08900  1.0000 0.1190388215
H   H87       1.0  0.34020  0.08900  0.51620  1.0000 0.1190388215
H   H88       1.0  0.41100  0.15980  0.98380  1.0000 0.1190388215
H   H89       1.0  0.15980  0.98380  0.41100  1.0000 0.1190388215
H   H90       1.0  0.98380  0.41100  0.15980  1.0000 0.1190388215
H   H91       1.0  0.17800  0.58860  0.35220  1.0000 0.1190388215
H   H92       1.0  0.58860  0.35220  0.17800  1.0000 0.1190388215
H   H93       1.0  0.35220  0.17800  0.58860  1.0000 0.1190388215
H   H94       1.0  0.32200  0.14780  0.91140  1.0000 0.1190388215
H   H95       1.0  0.14780  0.91140  0.32200  1.0000 0.1190388215
H   H96       1.0  0.91140  0.32200  0.14780  1.0000 0.1190388215
H   H97       1.0  0.82110  0.47900  0.93060  1.0000 0.1120842914
H   H98       1.0  0.47900  0.93060  0.82110  1.0000 0.1120842914
H   H99       1.0  0.93060  0.82110  0.47900  1.0000 0.1120842914
H   H100      1.0  0.67890  0.56940  0.02100  1.0000 0.1120842914
H   H101      1.0  0.56940  0.02100  0.67890  1.0000 0.1120842914
H   H102      1.0  0.02100  0.67890  0.56940  1.0000 0.1120842914
H   H103      1.0  0.81540  0.38420  0.87240  1.0000 0.1190388215
H   H104      1.0  0.38420  0.87240  0.81540  1.0000 0.1190388215
H   H105      1.0  0.87240  0.81540  0.38420  1.0000 0.1190388215
H   H106      1.0  0.68460  0.62760  0.11580  1.0000 0.1190388215
H   H107      1.0  0.62760  0.11580  0.68460  1.0000 0.1190388215
H   H108      1.0  0.11580  0.68460  0.62760  1.0000 0.1190388215
H   H109      1.0  0.84680  0.03840  0.95880  1.0000 0.1304912429
H   H110      1.0  0.03840  0.95880  0.84680  1.0000 0.1304912429
H   H111      1.0  0.95880  0.84680  0.03840  1.0000 0.1304912429
H   H112      1.0  0.65320  0.54120  0.46160  1.0000 0.1304912429
H   H113      1.0  0.54120  0.46160  0.65320  1.0000 0.1304912429
H   H114      1.0  0.46160  0.65320  0.54120  1.0000 0.1304912429
H   H115      1.0  0.94390  0.03900  0.84550  1.0000 0.1304912429
H   H116      1.0  0.03900  0.84550  0.94390  1.0000 0.1304912429
H   H117      1.0  0.84550  0.94390  0.03900  1.0000 0.1304912429
H   H118      1.0  0.55610  0.65450  0.46100  1.0000 0.1304912429
H   H119      1.0  0.65450  0.46100  0.55610  1.0000 0.1304912429
H   H120      1.0  0.46100  0.55610  0.65450  1.0000 0.1304912429
H   H121      1.0  0.85670  0.66500  0.05130  1.0000 0.1190388215
H   H122      1.0  0.66500  0.05130  0.85670  1.0000 0.1190388215
H   H123      1.0  0.05130  0.85670  0.66500  1.0000 0.1190388215
H   H124      1.0  0.64330  0.44870  0.83500  1.0000 0.1190388215
H   H125      1.0  0.44870  0.83500  0.64330  1.0000 0.1190388215
H   H126      1.0  0.83500  0.64330  0.44870  1.0000 0.1190388215
H   H127      1.0  0.91030  0.11350  0.82080  1.0000 0.1120842914
H   H128      1.0  0.11350  0.82080  0.91030  1.0000 0.1120842914
H   H129      1.0  0.82080  0.91030  0.11350  1.0000 0.1120842914
H   H130      1.0  0.58970  0.67920  0.38650  1.0000 0.1120842914
H   H131      1.0  0.67920  0.38650  0.58970  1.0000 0.1120842914
H   H132      1.0  0.38650  0.58970  0.67920  1.0000 0.1120842914
H   H133      1.0  0.81320  0.58800  0.17120  1.0000 0.1304912429
H   H134      1.0  0.58800  0.17120  0.81320  1.0000 0.1304912429
H   H135      1.0  0.17120  0.81320  0.58800  1.0000 0.1304912429
H   H136      1.0  0.68680  0.32880  0.91200  1.0000 0.1304912429
H   H137      1.0  0.32880  0.91200  0.68680  1.0000 0.1304912429
H   H138      1.0  0.91200  0.68680  0.32880  1.0000 0.1304912429
H   H139      1.0  0.86310  0.34020  0.02350  1.0000 0.1120842914
H   H140      1.0  0.34020  0.02350  0.86310  1.0000 0.1120842914
H   H141      1.0  0.02350  0.86310  0.34020  1.0000 0.1120842914
H   H142      1.0  0.63690  0.47650  0.15980  1.0000 0.1120842914
H   H143      1.0  0.47650  0.15980  0.63690  1.0000 0.1120842914
H   H144      1.0  0.15980  0.63690  0.47650  1.0000 0.1120842914
H   H145      1.0  0.98490  0.47440  0.82300  1.0000 0.1190388215
H   H146      1.0  0.47440  0.82300  0.98490  1.0000 0.1190388215
H   H147      1.0  0.82300  0.98490  0.47440  1.0000 0.1190388215
H   H148      1.0  0.51510  0.67700  0.02560  1.0000 0.1190388215
H   H149      1.0  0.67700  0.02560  0.51510  1.0000 0.1190388215
H   H150      1.0  0.02560  0.51510  0.67700  1.0000 0.1190388215
H   H151      1.0  0.82050  0.49850  0.11660  1.0000 0.1120842914
H   H152      1.0  0.49850  0.11660  0.82050  1.0000 0.1120842914
H   H153      1.0  0.11660  0.82050  0.49850  1.0000 0.1120842914
H   H154      1.0  0.67950  0.38340  0.00150  1.0000 0.1120842914
H   H155      1.0  0.38340  0.00150  0.67950  1.0000 0.1120842914
H   H156      1.0  0.00150  0.67950  0.38340  1.0000 0.1120842914
H   H157      1.0  0.86710  0.43420  0.08090  1.0000 0.1120842914
H   H158      1.0  0.43420  0.08090  0.86710  1.0000 0.1120842914
H   H159      1.0  0.08090  0.86710  0.43420  1.0000 0.1120842914
H   H160      1.0  0.63290  0.41910  0.06580  1.0000 0.1120842914
H   H161      1.0  0.41910  0.06580  0.63290  1.0000 0.1120842914
H   H162      1.0  0.06580  0.63290  0.41910  1.0000 0.1120842914
H   H163      1.0  0.86210  0.57500  0.99580  1.0000 0.1190388215
H   H164      1.0  0.57500  0.99580  0.86210  1.0000 0.1120842914
H   H165      1.0  0.99580  0.86210  0.57500  1.0000 0.1120842914
H   H166      1.0  0.63790  0.50420  0.92500  1.0000 0.1190388215
H   H167      1.0  0.50420  0.92500  0.63790  1.0000 0.1190388215
H   H168      1.0  0.92500  0.63790  0.50420  1.0000 0.1120842914
H   H169      1.0  0.81530  0.11200  0.92960  1.0000 0.1190388215
H   H170      1.0  0.11200  0.92960  0.81530  1.0000 0.1190388215
H   H171      1.0  0.92960  0.81530  0.11200  1.0000 0.1190388215
H   H172      1.0  0.68470  0.57040  0.38800  1.0000 0.1190388215
H   H173      1.0  0.57040  0.38800  0.68470  1.0000 0.1190388215
H   H174      1.0  0.38800  0.68470  0.57040  1.0000 0.1190388215
H   H175      1.0  0.89560  0.39900  0.80920  1.0000 0.1304912429
H   H176      1.0  0.39900  0.80920  0.89560  1.0000 0.1304912429
H   H177      1.0  0.80920  0.89560  0.39900  1.0000 0.1304912429
H   H178      1.0  0.60440  0.69080  0.10100  1.0000 0.1304912429
H   H179      1.0  0.69080  0.10100  0.60440  1.0000 0.1304912429
H   H180      1.0  0.10100  0.60440  0.69080  1.0000 0.1304912429
H   H181      1.0  0.91100  0.48380  0.65980  1.0000 0.1190388215
H   H182      1.0  0.48380  0.65980  0.91100  1.0000 0.1190388215
H   H183      1.0  0.65980  0.91100  0.48380  1.0000 0.1190388215
H   H184      1.0  0.58900  0.84020  0.01620  1.0000 0.1190388215
H   H185      1.0  0.84020  0.01620  0.58900  1.0000 0.1190388215
H   H186      1.0  0.01620  0.58900  0.84020  1.0000 0.1190388215
H   H187      1.0  0.82200  0.41140  0.64780  1.0000 0.1190388215
H   H188      1.0  0.41140  0.64780  0.82200  1.0000 0.1190388215
H   H189      1.0  0.64780  0.82200  0.41140  1.0000 0.1190388215
H   H190      1.0  0.67800  0.85220  0.08860  1.0000 0.1190388215
H   H191      1.0  0.85220  0.08860  0.67800  1.0000 0.1190388215
H   H192      1.0  0.08860  0.67800  0.85220  1.0000 0.1190388215
C   C1        1.0  0.17149  0.54903  0.05058  1.0000 -0.1486695485
C   C2        1.0  0.54903  0.05058  0.17149  1.0000 -0.1486695485
C   C3        1.0  0.05058  0.17149  0.54903  1.0000 -0.1486695485
C   C4        1.0  0.32851  0.44942  0.95097  1.0000 -0.1486695485
C   C5        1.0  0.44942  0.95097  0.32851  1.0000 -0.1486695485
C   C6        1.0  0.95097  0.32851  0.44942  1.0000 -0.1486695485
C   C7        1.0  0.07823  0.01756  0.07542  1.0000 0.3620387463
C   C8        1.0  0.01756  0.07542  0.07823  1.0000 0.3620387463
C   C9        1.0  0.07542  0.07823  0.01756  1.0000 0.3620387463
C   C10       1.0  0.42177  0.42458  0.48244  1.0000 0.3620387463
C   C11       1.0  0.42458  0.48244  0.42177  1.0000 0.3620387463
C   C12       1.0  0.48244  0.42177  0.42458  1.0000 0.3620387463
C   C13       1.0  0.10095  0.97046  0.09425  1.0000 0.0686562238
C   C14       1.0  0.97046  0.09425  0.10095  1.0000 0.0686562238
C   C15       1.0  0.09425  0.10095  0.97046  1.0000 0.0686562238
C   C16       1.0  0.39905  0.40575  0.52954  1.0000 0.0686562238
C   C17       1.0  0.40575  0.52954  0.39905  1.0000 0.0686562238
C   C18       1.0  0.52954  0.39905  0.40575  1.0000 0.0686562238
C   C19       1.0  0.15854  0.47409  0.95091  1.0000 0.0686562238
C   C20       1.0  0.47409  0.95091  0.15854  1.0000 0.0686562238
C   C21       1.0  0.95091  0.15854  0.47409  1.0000 0.0686562238
C   C22       1.0  0.34146  0.54909  0.02591  1.0000 0.0686562238
C   C23       1.0  0.54909  0.02591  0.34146  1.0000 0.0686562238
C   C24       1.0  0.02591  0.34146  0.54909  1.0000 0.0686562238
C   C25       1.0  0.17444  0.60599  0.08571  1.0000 -0.0904564192
C   C26       1.0  0.60599  0.08571  0.17444  1.0000 -0.0904564192
C   C27       1.0  0.08571  0.17444  0.60599  1.0000 -0.0904564192
C   C28       1.0  0.32556  0.41429  0.89401  1.0000 -0.0904564192
C   C29       1.0  0.41429  0.89401  0.32556  1.0000 -0.0904564192
C   C30       1.0  0.89401  0.32556  0.41429  1.0000 -0.0904564192
C   C31       1.0  0.15008  0.60092  0.27165  1.0000 -0.020509472
C   C32       1.0  0.60092  0.27165  0.15008  1.0000 -0.020509472
C   C33       1.0  0.27165  0.15008  0.60092  1.0000 -0.020509472
C   C34       1.0  0.34992  0.22835  0.89908  1.0000 -0.020509472
C   C35       1.0  0.22835  0.89908  0.34992  1.0000 -0.020509472
C   C36       1.0  0.89908  0.34992  0.22835  1.0000 -0.020509472
C   C37       1.0  0.16567  0.36410  0.88277  1.0000 -0.020509472
C   C38       1.0  0.36410  0.88277  0.16567  1.0000 -0.020509472
C   C39       1.0  0.88277  0.16567  0.36410  1.0000 -0.020509472
C   C40       1.0  0.33433  0.61723  0.13590  1.0000 -0.020509472
C   C41       1.0  0.61723  0.13590  0.33433  1.0000 -0.020509472
C   C42       1.0  0.13590  0.33433  0.61723  1.0000 -0.020509472
C   C43       1.0  0.16218  0.64816  0.05829  1.0000 -0.020509472
C   C44       1.0  0.64816  0.05829  0.16218  1.0000 -0.020509472
C   C45       1.0  0.05829  0.16218  0.64816  1.0000 -0.020509472
C   C46       1.0  0.33782  0.44171  0.85184  1.0000 -0.020509472
C   C47       1.0  0.44171  0.85184  0.33782  1.0000 -0.020509472
C   C48       1.0  0.85184  0.33782  0.44171  1.0000 -0.020509472
C   C49       1.0  0.17411  0.30683  0.84736  1.0000 0.5926716276
C   C50       1.0  0.30683  0.84736  0.17411  1.0000 0.5926716276
C   C51       1.0  0.84736  0.17411  0.30683  1.0000 0.5926716276
C   C52       1.0  0.32589  0.65264  0.19317  1.0000 0.5926716276
C   C53       1.0  0.65264  0.19317  0.32589  1.0000 0.5926716276
C   C54       1.0  0.19317  0.32589  0.65264  1.0000 0.5926716276
C   C55       1.0  0.13966  0.94726  0.06959  1.0000 -0.1742571509
C   C56       1.0  0.94726  0.06959  0.13966  1.0000 -0.1742571509
C   C57       1.0  0.06959  0.13966  0.94726  1.0000 -0.1742571509
C   C58       1.0  0.36034  0.43041  0.55274  1.0000 -0.1742571509
C   C59       1.0  0.43041  0.55274  0.36034  1.0000 -0.1742571509
C   C60       1.0  0.55274  0.36034  0.43041  1.0000 -0.1742571509
C   C61       1.0  0.16711  0.71030  0.09562  1.0000 0.5710736561
C   C62       1.0  0.71030  0.09562  0.16711  1.0000 0.5710736561
C   C63       1.0  0.09562  0.16711  0.71030  1.0000 0.5710736561
C   C64       1.0  0.33289  0.40438  0.78970  1.0000 0.5710736561
C   C65       1.0  0.40438  0.78970  0.33289  1.0000 0.5710736561
C   C66       1.0  0.78970  0.33289  0.40438  1.0000 0.5710736561
C   C67       1.0  0.08218  0.94669  0.13649  1.0000 -0.1795565325
C   C68       1.0  0.94669  0.13649  0.08218  1.0000 -0.1795565325
C   C69       1.0  0.13649  0.08218  0.94669  1.0000 -0.1795565325
C   C70       1.0  0.41782  0.36351  0.55331  1.0000 -0.1795565325
C   C71       1.0  0.36351  0.55331  0.41782  1.0000 -0.1795565325
C   C72       1.0  0.55331  0.41782  0.36351  1.0000 -0.1795565325
C   C73       1.0  0.15740  0.53341  0.98753  1.0000 0.0686562238
C   C74       1.0  0.53341  0.98753  0.15740  1.0000 0.0686562238
C   C75       1.0  0.98753  0.15740  0.53341  1.0000 0.0686562238
C   C76       1.0  0.34260  0.51247  0.96659  1.0000 0.0686562238
C   C77       1.0  0.51247  0.96659  0.34260  1.0000 0.0686562238
C   C78       1.0  0.96659  0.34260  0.51247  1.0000 0.0686562238
C   C79       1.0  0.15099  0.36853  0.93559  1.0000 -0.101896777
C   C80       1.0  0.36853  0.93559  0.15099  1.0000 -0.101896777
C   C81       1.0  0.93559  0.15099  0.36853  1.0000 -0.101896777
C   C82       1.0  0.34901  0.56441  0.13147  1.0000 -0.101896777
C   C83       1.0  0.56441  0.13147  0.34901  1.0000 -0.101896777
C   C84       1.0  0.13147  0.34901  0.56441  1.0000 -0.101896777
C   C85       1.0  0.20949  0.64548  0.27799  1.0000 0.5961360085
C   C86       1.0  0.64548  0.27799  0.20949  1.0000 0.5961360085
C   C87       1.0  0.27799  0.20949  0.64548  1.0000 0.5961360085
C   C88       1.0  0.29051  0.22201  0.85452  1.0000 0.5961360085
C   C89       1.0  0.22201  0.85452  0.29051  1.0000 0.5961360085
C   C90       1.0  0.85452  0.29051  0.22201  1.0000 0.5961360085
C   C91       1.0  0.10263  0.90198  0.15112  1.0000 0.0686562238
C   C92       1.0  0.90198  0.15112  0.10263  1.0000 0.0686562238
C   C93       1.0  0.15112  0.10263  0.90198  1.0000 0.0686562238
C   C94       1.0  0.39737  0.34888  0.59802  1.0000 0.0686562238
C   C95       1.0  0.34888  0.59802  0.39737  1.0000 0.0686562238
C   C96       1.0  0.59802  0.39737  0.34888  1.0000 0.0686562238
C   C97       1.0  0.17666  0.41437  0.86402  1.0000 -0.0904564192
C   C98       1.0  0.41437  0.86402  0.17666  1.0000 -0.0904564192
C   C99       1.0  0.86402  0.17666  0.41437  1.0000 -0.0904564192
C   C100      1.0  0.32334  0.63598  0.08563  1.0000 -0.0904564192
C   C101      1.0  0.63598  0.08563  0.32334  1.0000 -0.0904564192
C   C102      1.0  0.08563  0.32334  0.63598  1.0000 -0.0904564192
C   C103      1.0  0.14611  0.63237  0.99553  1.0000 -0.0904564192
C   C104      1.0  0.63237  0.99553  0.14611  1.0000 -0.0904564192
C   C105      1.0  0.99553  0.14611  0.63237  1.0000 -0.0904564192
C   C106      1.0  0.35389  0.50447  0.86763  1.0000 -0.0904564192
C   C107      1.0  0.50447  0.86763  0.35389  1.0000 -0.0904564192
C   C108      1.0  0.86763  0.35389  0.50447  1.0000 -0.0904564192
C   C109      1.0  0.04808  0.53757  0.21218  1.0000 -0.1486695485
C   C110      1.0  0.53757  0.21218  0.04808  1.0000 -0.1486695485
C   C111      1.0  0.21218  0.04808  0.53757  1.0000 -0.1486695485
C   C112      1.0  0.45192  0.28782  0.96243  1.0000 -0.1486695485
C   C113      1.0  0.28782  0.96243  0.45192  1.0000 -0.1486695485
C   C114      1.0  0.96243  0.45192  0.28782  1.0000 -0.1486695485
C   C115      1.0  0.17266  0.46837  0.89718  1.0000 -0.1486695485
C   C116      1.0  0.46837  0.89718  0.17266  1.0000 -0.1486695485
C   C117      1.0  0.89718  0.17266  0.46837  1.0000 -0.1486695485
C   C118      1.0  0.32734  0.60282  0.03163  1.0000 -0.1486695485
C   C119      1.0  0.60282  0.03163  0.32734  1.0000 -0.1486695485
C   C120      1.0  0.03163  0.32734  0.60282  1.0000 -0.1486695485
C   C121      1.0  0.14385  0.57572  0.96114  1.0000 -0.1629279766
C   C122      1.0  0.57572  0.96114  0.14385  1.0000 -0.1629279766
C   C123      1.0  0.96114  0.14385  0.57572  1.0000 -0.1629279766
C   C124      1.0  0.35615  0.53886  0.92428  1.0000 -0.1629279766
C   C125      1.0  0.53886  0.92428  0.35615  1.0000 -0.1629279766
C   C126      1.0  0.92428  0.35615  0.53886  1.0000 -0.1629279766
C   C127      1.0  0.14768  0.42273  0.96885  1.0000 -0.1486695485
C   C128      1.0  0.42273  0.96885  0.14768  1.0000 -0.1486695485
C   C129      1.0  0.96885  0.14768  0.42273  1.0000 -0.1486695485
C   C130      1.0  0.35232  0.53115  0.07727  1.0000 -0.1486695485
C   C131      1.0  0.53115  0.07727  0.35232  1.0000 -0.1486695485
C   C132      1.0  0.07727  0.35232  0.53115  1.0000 -0.1486695485
C   C133      1.0  0.15812  0.90274  0.08725  1.0000 0.0877877497
C   C134      1.0  0.90274  0.08725  0.15812  1.0000 0.0877877497
C   C135      1.0  0.08725  0.15812  0.90274  1.0000 0.0877877497
C   C136      1.0  0.34188  0.41275  0.59726  1.0000 0.0877877497
C   C137      1.0  0.41275  0.59726  0.34188  1.0000 0.0877877497
C   C138      1.0  0.59726  0.34188  0.41275  1.0000 0.0877877497
C   C139      1.0  0.10191  0.58310  0.22058  1.0000 -0.0904564192
C   C140      1.0  0.58310  0.22058  0.10191  1.0000 -0.0904564192
C   C141      1.0  0.22058  0.10191  0.58310  1.0000 -0.0904564192
C   C142      1.0  0.39809  0.27942  0.91690  1.0000 -0.0904564192
C   C143      1.0  0.27942  0.91690  0.39809  1.0000 -0.0904564192
C   C144      1.0  0.91690  0.39809  0.27942  1.0000 -0.0904564192
C   C145      1.0  0.09223  0.53178  0.30903  1.0000 -0.1486695485
C   C146      1.0  0.53178  0.30903  0.09223  1.0000 -0.1486695485
C   C147      1.0  0.30903  0.09223  0.53178  1.0000 -0.1486695485
C   C148      1.0  0.40777  0.19097  0.96822  1.0000 -0.1486695485
C   C149      1.0  0.19097  0.96822  0.40777  1.0000 -0.1486695485
C   C150      1.0  0.96822  0.40777  0.19097  1.0000 -0.1486695485
C   C151      1.0  0.04410  0.51070  0.25590  1.0000 0.0686562238
C   C152      1.0  0.51070  0.25590  0.04410  1.0000 0.0686562238
C   C153      1.0  0.25590  0.04410  0.51070  1.0000 0.0686562238
C   C154      1.0  0.45590  0.24410  0.98930  1.0000 0.0686562238
C   C155      1.0  0.24410  0.98930  0.45590  1.0000 0.0686562238
C   C156      1.0  0.98930  0.45590  0.24410  1.0000 0.0686562238
C   C157      1.0  0.14530  0.57580  0.31655  1.0000 -0.101896777
C   C158      1.0  0.57580  0.31655  0.14530  1.0000 -0.101896777
C   C159      1.0  0.31655  0.14530  0.57580  1.0000 -0.101896777
C   C160      1.0  0.35470  0.18345  0.92420  1.0000 -0.101896777
C   C161      1.0  0.18345  0.92420  0.35470  1.0000 -0.101896777
C   C162      1.0  0.92420  0.35470  0.18345  1.0000 -0.101896777
C   C163      1.0  0.82851  0.45097  0.94942  1.0000 -0.1486695485
C   C164      1.0  0.45097  0.94942  0.82851  1.0000 -0.1486695485
C   C165      1.0  0.94942  0.82851  0.45097  1.0000 -0.1486695485
C   C166      1.0  0.67149  0.55058  0.04903  1.0000 -0.1486695485
C   C167      1.0  0.55058  0.04903  0.67149  1.0000 -0.1486695485
C   C168      1.0  0.04903  0.67149  0.55058  1.0000 -0.1486695485
C   C169      1.0  0.92177  0.98244  0.92458  1.0000 0.3620387463
C   C170      1.0  0.98244  0.92458  0.92177  1.0000 0.3620387463
C   C171      1.0  0.92458  0.92177  0.98244  1.0000 0.3620387463
C   C172      1.0  0.57823  0.57542  0.51756  1.0000 0.3620387463
C   C173      1.0  0.57542  0.51756  0.57823  1.0000 0.3620387463
C   C174      1.0  0.51756  0.57823  0.57542  1.0000 0.3620387463
C   C175      1.0  0.89905  0.02954  0.90575  1.0000 0.0686562238
C   C176      1.0  0.02954  0.90575  0.89905  1.0000 0.0686562238
C   C177      1.0  0.90575  0.89905  0.02954  1.0000 0.0686562238
C   C178      1.0  0.60095  0.59425  0.47046  1.0000 0.0686562238
C   C179      1.0  0.59425  0.47046  0.60095  1.0000 0.0686562238
C   C180      1.0  0.47046  0.60095  0.59425  1.0000 0.0686562238
C   C181      1.0  0.84146  0.52591  0.04909  1.0000 0.0686562238
C   C182      1.0  0.52591  0.04909  0.84146  1.0000 0.0686562238
C   C183      1.0  0.04909  0.84146  0.52591  1.0000 0.0686562238
C   C184      1.0  0.65854  0.45091  0.97409  1.0000 0.0686562238
C   C185      1.0  0.45091  0.97409  0.65854  1.0000 0.0686562238
C   C186      1.0  0.97409  0.65854  0.45091  1.0000 0.0686562238
C   C187      1.0  0.82556  0.39401  0.91429  1.0000 -0.0904564192
C   C188      1.0  0.39401  0.91429  0.82556  1.0000 -0.0904564192
C   C189      1.0  0.91429  0.82556  0.39401  1.0000 -0.0904564192
C   C190      1.0  0.67444  0.58571  0.10599  1.0000 -0.0904564192
C   C191      1.0  0.58571  0.10599  0.67444  1.0000 -0.0904564192
C   C192      1.0  0.10599  0.67444  0.58571  1.0000 -0.0904564192
C   C193      1.0  0.84992  0.39908  0.72835  1.0000 -0.020509472
C   C194      1.0  0.39908  0.72835  0.84992  1.0000 -0.020509472
C   C195      1.0  0.72835  0.84992  0.39908  1.0000 -0.020509472
C   C196      1.0  0.65008  0.77165  0.10092  1.0000 -0.020509472
C   C197      1.0  0.77165  0.10092  0.65008  1.0000 -0.020509472
C   C198      1.0  0.10092  0.65008  0.77165  1.0000 -0.020509472
C   C199      1.0  0.83433  0.63590  0.11723  1.0000 -0.020509472
C   C200      1.0  0.63590  0.11723  0.83433  1.0000 -0.020509472
C   C201      1.0  0.11723  0.83433  0.63590  1.0000 -0.020509472
C   C202      1.0  0.66567  0.38277  0.86410  1.0000 -0.020509472
C   C203      1.0  0.38277  0.86410  0.66567  1.0000 -0.020509472
C   C204      1.0  0.86410  0.66567  0.38277  1.0000 -0.020509472
C   C205      1.0  0.83782  0.35184  0.94171  1.0000 -0.020509472
C   C206      1.0  0.35184  0.94171  0.83782  1.0000 -0.020509472
C   C207      1.0  0.94171  0.83782  0.35184  1.0000 -0.020509472
C   C208      1.0  0.66218  0.55829  0.14816  1.0000 -0.020509472
C   C209      1.0  0.55829  0.14816  0.66218  1.0000 -0.020509472
C   C210      1.0  0.14816  0.66218  0.55829  1.0000 -0.020509472
C   C211      1.0  0.82589  0.69317  0.15264  1.0000 0.5926716276
C   C212      1.0  0.69317  0.15264  0.82589  1.0000 0.5926716276
C   C213      1.0  0.15264  0.82589  0.69317  1.0000 0.5926716276
C   C214      1.0  0.67411  0.34736  0.80683  1.0000 0.5926716276
C   C215      1.0  0.34736  0.80683  0.67411  1.0000 0.5926716276
C   C216      1.0  0.80683  0.67411  0.34736  1.0000 0.5926716276
C   C217      1.0  0.86034  0.05274  0.93041  1.0000 -0.1742571509
C   C218      1.0  0.05274  0.93041  0.86034  1.0000 -0.1795565325
C   C219      1.0  0.93041  0.86034  0.05274  1.0000 -0.1742571509
C   C220      1.0  0.63966  0.56959  0.44726  1.0000 -0.1742571509
C   C221      1.0  0.56959  0.44726  0.63966  1.0000 -0.1742571509
C   C222      1.0  0.44726  0.63966  0.56959  1.0000 -0.1795565325
C   C223      1.0  0.83289  0.28970  0.90438  1.0000 0.5710736561
C   C224      1.0  0.28970  0.90438  0.83289  1.0000 0.5710736561
C   C225      1.0  0.90438  0.83289  0.28970  1.0000 0.5710736561
C   C226      1.0  0.66711  0.59562  0.21030  1.0000 0.5710736561
C   C227      1.0  0.59562  0.21030  0.66711  1.0000 0.5710736561
C   C228      1.0  0.21030  0.66711  0.59562  1.0000 0.5710736561
C   C229      1.0  0.91782  0.05331  0.86351  1.0000 -0.1795565325
C   C230      1.0  0.05331  0.86351  0.91782  1.0000 -0.1795565325
C   C231      1.0  0.86351  0.91782  0.05331  1.0000 -0.1795565325
C   C232      1.0  0.58218  0.63649  0.44669  1.0000 -0.1795565325
C   C233      1.0  0.63649  0.44669  0.58218  1.0000 -0.1795565325
C   C234      1.0  0.44669  0.58218  0.63649  1.0000 -0.1795565325
C   C235      1.0  0.84260  0.46659  0.01247  1.0000 0.0686562238
C   C236      1.0  0.46659  0.01247  0.84260  1.0000 0.0686562238
C   C237      1.0  0.01247  0.84260  0.46659  1.0000 0.0686562238
C   C238      1.0  0.65740  0.48753  0.03341  1.0000 0.0686562238
C   C239      1.0  0.48753  0.03341  0.65740  1.0000 0.0686562238
C   C240      1.0  0.03341  0.65740  0.48753  1.0000 0.0686562238
C   C241      1.0  0.84901  0.63147  0.06441  1.0000 -0.101896777
C   C242      1.0  0.63147  0.06441  0.84901  1.0000 -0.101896777
C   C243      1.0  0.06441  0.84901  0.63147  1.0000 -0.101896777
C   C244      1.0  0.65099  0.43559  0.86853  1.0000 -0.101896777
C   C245      1.0  0.43559  0.86853  0.65099  1.0000 -0.101896777
C   C246      1.0  0.86853  0.65099  0.43559  1.0000 -0.101896777
C   C247      1.0  0.79051  0.35452  0.72201  1.0000 0.5961360085
C   C248      1.0  0.35452  0.72201  0.79051  1.0000 0.5961360085
C   C249      1.0  0.72201  0.79051  0.35452  1.0000 0.5961360085
C   C250      1.0  0.70949  0.77799  0.14548  1.0000 0.5961360085
C   C251      1.0  0.77799  0.14548  0.70949  1.0000 0.5961360085
C   C252      1.0  0.14548  0.70949  0.77799  1.0000 0.5961360085
C   C253      1.0  0.89737  0.09802  0.84888  1.0000 0.0686562238
C   C254      1.0  0.09802  0.84888  0.89737  1.0000 0.0686562238
C   C255      1.0  0.84888  0.89737  0.09802  1.0000 0.0686562238
C   C256      1.0  0.60263  0.65112  0.40198  1.0000 0.0686562238
C   C257      1.0  0.65112  0.40198  0.60263  1.0000 0.0686562238
C   C258      1.0  0.40198  0.60263  0.65112  1.0000 0.0686562238
C   C259      1.0  0.82334  0.58563  0.13598  1.0000 -0.0904564192
C   C260      1.0  0.58563  0.13598  0.82334  1.0000 -0.0904564192
C   C261      1.0  0.13598  0.82334  0.58563  1.0000 -0.0904564192
C   C262      1.0  0.67666  0.36402  0.91437  1.0000 -0.0904564192
C   C263      1.0  0.36402  0.91437  0.67666  1.0000 -0.0904564192
C   C264      1.0  0.91437  0.67666  0.36402  1.0000 -0.0904564192
C   C265      1.0  0.85389  0.36763  0.00447  1.0000 -0.0904564192
C   C266      1.0  0.36763  0.00447  0.85389  1.0000 -0.0904564192
C   C267      1.0  0.00447  0.85389  0.36763  1.0000 -0.0904564192
C   C268      1.0  0.64611  0.49553  0.13237  1.0000 -0.0904564192
C   C269      1.0  0.49553  0.13237  0.64611  1.0000 -0.0904564192
C   C270      1.0  0.13237  0.64611  0.49553  1.0000 -0.0904564192
C   C271      1.0  0.95192  0.46243  0.78782  1.0000 -0.1486695485
C   C272      1.0  0.46243  0.78782  0.95192  1.0000 -0.1486695485
C   C273      1.0  0.78782  0.95192  0.46243  1.0000 -0.1486695485
C   C274      1.0  0.54808  0.71218  0.03757  1.0000 -0.1486695485
C   C275      1.0  0.71218  0.03757  0.54808  1.0000 -0.1486695485
C   C276      1.0  0.03757  0.54808  0.71218  1.0000 -0.1486695485
C   C277      1.0  0.82734  0.53163  0.10282  1.0000 -0.1486695485
C   C278      1.0  0.53163  0.10282  0.82734  1.0000 -0.1486695485
C   C279      1.0  0.10282  0.82734  0.53163  1.0000 -0.1486695485
C   C280      1.0  0.67266  0.39718  0.96837  1.0000 -0.1486695485
C   C281      1.0  0.39718  0.96837  0.67266  1.0000 -0.1486695485
C   C282      1.0  0.96837  0.67266  0.39718  1.0000 -0.1486695485
C   C283      1.0  0.85615  0.42428  0.03886  1.0000 -0.1629279766
C   C284      1.0  0.42428  0.03886  0.85615  1.0000 -0.1629279766
C   C285      1.0  0.03886  0.85615  0.42428  1.0000 -0.1629279766
C   C286      1.0  0.64385  0.46114  0.07572  1.0000 -0.1629279766
C   C287      1.0  0.46114  0.07572  0.64385  1.0000 -0.1629279766
C   C288      1.0  0.07572  0.64385  0.46114  1.0000 -0.1629279766
C   C289      1.0  0.85232  0.57727  0.03115  1.0000 -0.1486695485
C   C290      1.0  0.57727  0.03115  0.85232  1.0000 -0.1486695485
C   C291      1.0  0.03115  0.85232  0.57727  1.0000 -0.1486695485
C   C292      1.0  0.64768  0.46885  0.92273  1.0000 -0.1486695485
C   C293      1.0  0.46885  0.92273  0.64768  1.0000 -0.1486695485
C   C294      1.0  0.92273  0.64768  0.46885  1.0000 -0.1486695485
C   C295      1.0  0.84188  0.09726  0.91275  1.0000 0.0877877497
C   C296      1.0  0.09726  0.91275  0.84188  1.0000 0.0877877497
C   C297      1.0  0.91275  0.84188  0.09726  1.0000 0.0877877497
C   C298      1.0  0.65812  0.58725  0.40274  1.0000 0.0877877497
C   C299      1.0  0.58725  0.40274  0.65812  1.0000 0.0877877497
C   C300      1.0  0.40274  0.65812  0.58725  1.0000 0.0877877497
C   C301      1.0  0.89809  0.41690  0.77942  1.0000 -0.0904564192
C   C302      1.0  0.41690  0.77942  0.89809  1.0000 -0.0904564192
C   C303      1.0  0.77942  0.89809  0.41690  1.0000 -0.0904564192
C   C304      1.0  0.60191  0.72058  0.08310  1.0000 -0.0904564192
C   C305      1.0  0.72058  0.08310  0.60191  1.0000 -0.0904564192
C   C306      1.0  0.08310  0.60191  0.72058  1.0000 -0.0904564192
C   C307      1.0  0.90777  0.46822  0.69097  1.0000 -0.1486695485
C   C308      1.0  0.46822  0.69097  0.90777  1.0000 -0.1486695485
C   C309      1.0  0.69097  0.90777  0.46822  1.0000 -0.1486695485
C   C310      1.0  0.59223  0.80903  0.03178  1.0000 -0.1486695485
C   C311      1.0  0.80903  0.03178  0.59223  1.0000 -0.1486695485
C   C312      1.0  0.03178  0.59223  0.80903  1.0000 -0.1486695485
C   C313      1.0  0.95590  0.48930  0.74410  1.0000 0.0686562238
C   C314      1.0  0.48930  0.74410  0.95590  1.0000 0.0686562238
C   C315      1.0  0.74410  0.95590  0.48930  1.0000 0.0686562238
C   C316      1.0  0.54410  0.75590  0.01070  1.0000 0.0686562238
C   C317      1.0  0.75590  0.01070  0.54410  1.0000 0.0686562238
C   C318      1.0  0.01070  0.54410  0.75590  1.0000 0.0686562238
C   C319      1.0  0.85470  0.42420  0.68345  1.0000 -0.101896777
C   C320      1.0  0.42420  0.68345  0.85470  1.0000 -0.101896777
C   C321      1.0  0.68345  0.85470  0.42420  1.0000 -0.101896777
C   C322      1.0  0.64530  0.81655  0.07580  1.0000 -0.101896777
C   C323      1.0  0.81655  0.07580  0.64530  1.0000 -0.101896777
C   C324      1.0  0.07580  0.64530  0.81655  1.0000 -0.101896777
N   N1        1.0  0.03792  0.03471  0.09882  1.0000 -0.4094992332
N   N2        1.0  0.03471  0.09882  0.03792  1.0000 -0.4094992332
N   N3        1.0  0.09882  0.03792  0.03471  1.0000 -0.4094992332
N   N4        1.0  0.46208  0.40118  0.46529  1.0000 -0.4094992332
N   N5        1.0  0.40118  0.46529  0.46208  1.0000 -0.4094992332
N   N6        1.0  0.46529  0.46208  0.40118  1.0000 -0.4094992332
N   N7        1.0  0.14008  0.87958  0.12701  1.0000 -0.2429345948
N   N8        1.0  0.87958  0.12701  0.14008  1.0000 -0.2429345948
N   N9        1.0  0.12701  0.14008  0.87958  1.0000 -0.2429345948
N   N10       1.0  0.35992  0.37299  0.62042  1.0000 -0.2429345948
N   N11       1.0  0.37299  0.62042  0.35992  1.0000 -0.2429345948
N   N12       1.0  0.62042  0.35992  0.37299  1.0000 -0.2429345948
N   N13       1.0  0.96208  0.96529  0.90118  1.0000 -0.4094992332
N   N14       1.0  0.96529  0.90118  0.96208  1.0000 -0.4094992332
N   N15       1.0  0.90118  0.96208  0.96529  1.0000 -0.4094992332
N   N16       1.0  0.53792  0.59882  0.53471  1.0000 -0.4094992332
N   N17       1.0  0.59882  0.53471  0.53792  1.0000 -0.4094992332
N   N18       1.0  0.53471  0.53792  0.59882  1.0000 -0.4094992332
N   N19       1.0  0.85992  0.12042  0.87299  1.0000 -0.2429345948
N   N20       1.0  0.12042  0.87299  0.85992  1.0000 -0.2429345948
N   N21       1.0  0.87299  0.85992  0.12042  1.0000 -0.2429345948
N   N22       1.0  0.64008  0.62701  0.37958  1.0000 -0.2429345948
N   N23       1.0  0.62701  0.37958  0.64008  1.0000 -0.2429345948
N   N24       1.0  0.37958  0.64008  0.62701  1.0000 -0.2429345948
O   O1        1.0  0.14972  0.74550  0.06983  1.0000 -0.5387949151
O   O2        1.0  0.74550  0.06983  0.14972  1.0000 -0.5387949151
O   O3        1.0  0.06983  0.14972  0.74550  1.0000 -0.5387949151
O   O4        1.0  0.35028  0.43017  0.75450  1.0000 -0.5387949151
O   O5        1.0  0.43017  0.75450  0.35028  1.0000 -0.5387949151
O   O6        1.0  0.75450  0.35028  0.43017  1.0000 -0.5387949151
O   O7        1.0  0.18815  0.72715  0.15325  1.0000 -0.5899726204
O   O8        1.0  0.72715  0.15325  0.18815  1.0000 -0.5899726204
O   O9        1.0  0.15325  0.18815  0.72715  1.0000 -0.5899726204
O   O10       1.0  0.31185  0.34675  0.77285  1.0000 -0.5899726204
O   O11       1.0  0.34675  0.77285  0.31185  1.0000 -0.5899726204
O   O12       1.0  0.77285  0.31185  0.34675  1.0000 -0.5899726204
O   O13       1.0  0.15184  0.25756  0.85641  1.0000 -0.5592875764
O   O14       1.0  0.25756  0.85641  0.15184  1.0000 -0.5592875764
O   O15       1.0  0.85641  0.15184  0.25756  1.0000 -0.5592875764
O   O16       1.0  0.34816  0.64359  0.24244  1.0000 -0.5592875764
O   O17       1.0  0.64359  0.24244  0.34816  1.0000 -0.5592875764
O   O18       1.0  0.24244  0.34816  0.64359  1.0000 -0.5592875764
O   O19       1.0  0.25668  0.63890  0.30782  1.0000 -0.5592875764
O   O20       1.0  0.63890  0.30782  0.25668  1.0000 -0.5592875764
O   O21       1.0  0.30782  0.25668  0.63890  1.0000 -0.5592875764
O   O22       1.0  0.24332  0.19218  0.86110  1.0000 -0.5592875764
O   O23       1.0  0.19218  0.86110  0.24332  1.0000 -0.5592875764
O   O24       1.0  0.86110  0.24332  0.19218  1.0000 -0.5592875764
O   O25       1.0  0.20809  0.68534  0.25360  1.0000 -0.5387949151
O   O26       1.0  0.68534  0.25360  0.20809  1.0000 -0.5387949151
O   O27       1.0  0.25360  0.20809  0.68534  1.0000 -0.5387949151
O   O28       1.0  0.29191  0.24640  0.81466  1.0000 -0.5387949151
O   O29       1.0  0.24640  0.81466  0.29191  1.0000 -0.5387949151
O   O30       1.0  0.81466  0.29191  0.24640  1.0000 -0.5387949151
O   O31       1.0  0.20136  0.31293  0.81047  1.0000 -0.5592875764
O   O32       1.0  0.31293  0.81047  0.20136  1.0000 -0.5592875764
O   O33       1.0  0.81047  0.20136  0.31293  1.0000 -0.5592875764
O   O34       1.0  0.29864  0.68953  0.18707  1.0000 -0.5592875764
O   O35       1.0  0.68953  0.18707  0.29864  1.0000 -0.5592875764
O   O36       1.0  0.18707  0.29864  0.68953  1.0000 -0.5592875764
O   O37       1.0  0.85028  0.25450  0.93017  1.0000 -0.5387949151
O   O38       1.0  0.25450  0.93017  0.85028  1.0000 -0.5387949151
O   O39       1.0  0.93017  0.85028  0.25450  1.0000 -0.5387949151
O   O40       1.0  0.64972  0.56983  0.24550  1.0000 -0.5387949151
O   O41       1.0  0.56983  0.24550  0.64972  1.0000 -0.5387949151
O   O42       1.0  0.24550  0.64972  0.56983  1.0000 -0.5387949151
O   O43       1.0  0.81185  0.27285  0.84675  1.0000 -0.5899726204
O   O44       1.0  0.27285  0.84675  0.81185  1.0000 -0.5899726204
O   O45       1.0  0.84675  0.81185  0.27285  1.0000 -0.5899726204
O   O46       1.0  0.68815  0.65325  0.22715  1.0000 -0.5899726204
O   O47       1.0  0.65325  0.22715  0.68815  1.0000 -0.5899726204
O   O48       1.0  0.22715  0.68815  0.65325  1.0000 -0.5899726204
O   O49       1.0  0.84816  0.74244  0.14359  1.0000 -0.5592875764
O   O50       1.0  0.74244  0.14359  0.84816  1.0000 -0.5592875764
O   O51       1.0  0.14359  0.84816  0.74244  1.0000 -0.5592875764
O   O52       1.0  0.65184  0.35641  0.75756  1.0000 -0.5592875764
O   O53       1.0  0.35641  0.75756  0.65184  1.0000 -0.5592875764
O   O54       1.0  0.75756  0.65184  0.35641  1.0000 -0.5592875764
O   O55       1.0  0.74332  0.36110  0.69218  1.0000 -0.5592875764
O   O56       1.0  0.36110  0.69218  0.74332  1.0000 -0.5592875764
O   O57       1.0  0.69218  0.74332  0.36110  1.0000 -0.5592875764
O   O58       1.0  0.75668  0.80782  0.13890  1.0000 -0.5592875764
O   O59       1.0  0.80782  0.13890  0.75668  1.0000 -0.5592875764
O   O60       1.0  0.13890  0.75668  0.80782  1.0000 -0.5592875764
O   O61       1.0  0.79191  0.31466  0.74640  1.0000 -0.5387949151
O   O62       1.0  0.31466  0.74640  0.79191  1.0000 -0.5387949151
O   O63       1.0  0.74640  0.79191  0.31466  1.0000 -0.5387949151
O   O64       1.0  0.70809  0.75360  0.18534  1.0000 -0.5387949151
O   O65       1.0  0.75360  0.18534  0.70809  1.0000 -0.5387949151
O   O66       1.0  0.18534  0.70809  0.75360  1.0000 -0.5387949151
O   O67       1.0  0.79864  0.68707  0.18953  1.0000 -0.5592875764
O   O68       1.0  0.68707  0.18953  0.79864  1.0000 -0.5592875764
O   O69       1.0  0.18953  0.79864  0.68707  1.0000 -0.5592875764
O   O70       1.0  0.70136  0.31047  0.81293  1.0000 -0.5592875764
O   O71       1.0  0.31047  0.81293  0.70136  1.0000 -0.5592875764
O   O72       1.0  0.81293  0.70136  0.31047  1.0000 -0.5592875764
