# DDEC6 charges by PACMAN v1.1 (https://github.com/mtap-research/PACMAN-charge/)
data_2016[Nd][pcu]3[ASR]1
_chemical_formula_sum              "Nd2 H24 C48 O12"
_cell_length_a       10.4309
_cell_length_b       11.4737
_cell_length_c       12.9497
_cell_angle_alpha    106.724
_cell_angle_beta     90.209
_cell_angle_gamma    93.187

_symmetry_space_group_name_H-M    "P 1"
_symmetry_Int_Tables_number       1

loop_
  _symmetry_equiv_pos_as_xyz
  'x, y, z'

loop_
  _atom_site_type_symbol
  _atom_site_label
  _atom_site_symmetry_multiplicity
  _atom_site_fract_x
  _atom_site_fract_y
  _atom_site_fract_z
  _atom_site_occupancy
  _atom_site_charge
Nd  Nd1       1.0  0.51809  0.55286  0.65683  1.0000 2.0743785745
Nd  Nd2       1.0  0.48191  0.44714  0.34317  1.0000 2.0743785745
H   H1        1.0  0.60170  0.90737  0.73040  1.0000 0.1073284928
H   H2        1.0  0.39830  0.09263  0.26960  1.0000 0.1073284928
H   H3        1.0  0.69154  0.09775  0.69752  1.0000 0.0992616411
H   H4        1.0  0.30846  0.90225  0.30248  1.0000 0.0992616411
H   H5        1.0  0.69899  0.29625  0.84687  1.0000 0.0992616411
H   H6        1.0  0.30101  0.70375  0.15313  1.0000 0.0992616411
H   H7        1.0  0.61156  0.30369  0.02578  1.0000 0.1073284928
H   H8        1.0  0.38844  0.69631  0.97422  1.0000 0.1073284928
H   H9        1.0  0.75345  0.70222  0.59105  1.0000 0.0922351575
H   H10       1.0  0.24655  0.29778  0.40895  1.0000 0.0922351575
H   H11       1.0  0.84785  0.85729  0.75033  1.0000 0.1073284928
H   H12       1.0  0.15215  0.14271  0.24967  1.0000 0.1073284928
H   H13       1.0  0.07785  0.84693  0.80815  1.0000 0.1073284928
H   H14       1.0  0.92215  0.15307  0.19185  1.0000 0.1073284928
H   H15       1.0  0.20790  0.68058  0.70933  1.0000 0.1198286361
H   H16       1.0  0.79210  0.31942  0.29067  1.0000 0.1198286361
H   H17       1.0  0.26430  0.21706  0.55049  1.0000 0.1073284928
H   H18       1.0  0.73570  0.78294  0.44951  1.0000 0.1073284928
H   H19       1.0  0.07024  0.10737  0.59386  1.0000 0.0992616411
H   H20       1.0  0.92976  0.89263  0.40614  1.0000 0.0992616411
H   H21       1.0  0.08117  0.89195  0.60366  1.0000 0.0922351575
H   H22       1.0  0.91883  0.10805  0.39634  1.0000 0.0922351575
H   H23       1.0  0.28264  0.78545  0.56445  1.0000 0.1073284928
H   H24       1.0  0.71736  0.21455  0.43555  1.0000 0.1073284928
C   C1        1.0  0.50669  0.76507  0.83297  1.0000 0.5861920959
C   C2        1.0  0.49331  0.23493  0.16703  1.0000 0.5861920959
C   C3        1.0  0.50135  0.88717  0.91744  1.0000 -0.0890548133
C   C4        1.0  0.49865  0.11283  0.08256  1.0000 -0.0890548133
C   C5        1.0  0.55452  0.99503  0.89805  1.0000 0.0521884705
C   C6        1.0  0.44548  0.00497  0.10195  1.0000 0.0521884705
C   C7        1.0  0.60544  0.99385  0.79507  1.0000 -0.126726886
C   C8        1.0  0.39456  0.00615  0.20493  1.0000 -0.126726886
C   C9        1.0  0.65490  0.10016  0.77739  1.0000 -0.079532718
C   C10       1.0  0.34510  0.89984  0.22261  1.0000 -0.079532718
C   C11       1.0  0.65743  0.21235  0.86122  1.0000 -0.079532718
C   C12       1.0  0.34257  0.78765  0.13878  1.0000 -0.0723937555
C   C13       1.0  0.60867  0.21743  0.96086  1.0000 -0.126726886
C   C14       1.0  0.39133  0.78257  0.03914  1.0000 -0.126726886
C   C15       1.0  0.55434  0.10918  0.98212  1.0000 0.0521884705
C   C16       1.0  0.44566  0.89082  0.01788  1.0000 0.0521884705
C   C17       1.0  0.73631  0.51009  0.43199  1.0000 0.6182466394
C   C18       1.0  0.26369  0.48991  0.56801  1.0000 0.6182466394
C   C19       1.0  0.87230  0.50636  0.46713  1.0000 -0.1023352199
C   C20       1.0  0.12770  0.49364  0.53287  1.0000 -0.1023352199
C   C21       1.0  0.92452  0.59655  0.55863  1.0000 0.0521884705
C   C22       1.0  0.07548  0.40345  0.44137  1.0000 0.0521884705
C   C23       1.0  0.85188  0.69554  0.61772  1.0000 -0.1363200524
C   C24       1.0  0.14812  0.30446  0.38228  1.0000 -0.1363200524
C   C25       1.0  0.90560  0.78260  0.70600  1.0000 -0.0723937555
C   C26       1.0  0.09440  0.21740  0.29400  1.0000 -0.0723937555
C   C27       1.0  0.03462  0.77632  0.73878  1.0000 -0.0723937555
C   C28       1.0  0.96538  0.22368  0.26122  1.0000 -0.0723937555
C   C29       1.0  0.10841  0.68359  0.68339  1.0000 -0.1363200524
C   C30       1.0  0.89159  0.31641  0.31661  1.0000 -0.1363200524
C   C31       1.0  0.05498  0.59052  0.59216  1.0000 0.056969451
C   C32       1.0  0.94502  0.40948  0.40784  1.0000 0.056969451
C   C33       1.0  0.49052  0.25362  0.49928  1.0000 0.6616369432
C   C34       1.0  0.50948  0.74638  0.50072  1.0000 0.6616369432
C   C35       1.0  0.49467  0.12160  0.49652  1.0000 -0.1106801682
C   C36       1.0  0.50533  0.87840  0.50348  1.0000 -0.1106801682
C   C37       1.0  0.38481  0.06218  0.52623  1.0000 0.0521884705
C   C38       1.0  0.61519  0.93782  0.47377  1.0000 0.0521884705
C   C39       1.0  0.26737  0.12204  0.55148  1.0000 -0.126726886
C   C40       1.0  0.73263  0.87796  0.44852  1.0000 -0.126726886
C   C41       1.0  0.16041  0.06116  0.57689  1.0000 -0.079532718
C   C42       1.0  0.83959  0.93884  0.42311  1.0000 -0.0723937555
C   C43       1.0  0.16617  0.93891  0.58141  1.0000 -0.079532718
C   C44       1.0  0.83383  0.06109  0.41859  1.0000 -0.079532718
C   C45       1.0  0.27810  0.87915  0.55978  1.0000 -0.1226518394
C   C46       1.0  0.72190  0.12085  0.44022  1.0000 -0.1226518394
C   C47       1.0  0.39034  0.93844  0.53020  1.0000 0.0521884705
C   C48       1.0  0.60966  0.06156  0.46980  1.0000 0.0521884705
O   O1        1.0  0.61455  0.71389  0.81185  1.0000 -0.6409821862
O   O2        1.0  0.38545  0.28611  0.18815  1.0000 -0.6409821862
O   O3        1.0  0.40261  0.71132  0.78381  1.0000 -0.6275468224
O   O4        1.0  0.59739  0.28868  0.21619  1.0000 -0.6275468224
O   O5        1.0  0.64477  0.49049  0.49524  1.0000 -0.7809431904
O   O6        1.0  0.35523  0.50951  0.50476  1.0000 -0.7809431904
O   O7        1.0  0.70761  0.52339  0.34112  1.0000 -0.5859980934
O   O8        1.0  0.29239  0.47661  0.65888  1.0000 -0.5859980934
O   O9        1.0  0.51377  0.33410  0.58945  1.0000 -0.6545544022
O   O10       1.0  0.48623  0.66590  0.41055  1.0000 -0.6545544022
O   O11       1.0  0.46273  0.27713  0.41093  1.0000 -0.681073969
O   O12       1.0  0.53727  0.72287  0.58907  1.0000 -0.681073969
