# DDEC6 charges by PACMAN v1.1 (https://github.com/mtap-research/PACMAN-charge/)
data_2016[Zn][nan]3[ASR]23
_chemical_formula_sum              "Zn8 H120 C168 N16 O40"
_cell_length_a       27.221
_cell_length_b       8.104
_cell_length_c       23.537
_cell_angle_alpha    90
_cell_angle_beta     98.906
_cell_angle_gamma    90

_symmetry_space_group_name_H-M    "P 1"
_symmetry_Int_Tables_number       1

loop_
  _symmetry_equiv_pos_as_xyz
  'x, y, z'

loop_
  _atom_site_type_symbol
  _atom_site_label
  _atom_site_symmetry_multiplicity
  _atom_site_fract_x
  _atom_site_fract_y
  _atom_site_fract_z
  _atom_site_occupancy
  _atom_site_charge
Zn  Zn1       1.0  0.03909  0.62505  0.50126  1.0000 0.8357742545
Zn  Zn2       1.0  0.96091  0.37495  0.49874  1.0000 0.8357742545
Zn  Zn3       1.0  0.96091  0.62505  0.99874  1.0000 0.8357742545
Zn  Zn4       1.0  0.03909  0.37495  0.00126  1.0000 0.8357742545
Zn  Zn5       1.0  0.53909  0.12505  0.50126  1.0000 0.8357742545
Zn  Zn6       1.0  0.46091  0.87495  0.49874  1.0000 0.8357742545
Zn  Zn7       1.0  0.46091  0.12505  0.99874  1.0000 0.8357742545
Zn  Zn8       1.0  0.53909  0.87495  0.00126  1.0000 0.8357742545
H   H1        1.0  0.96992  0.99889  0.58349  1.0000 0.1100890831
H   H2        1.0  0.03008  0.00111  0.41651  1.0000 0.1100890831
H   H3        1.0  0.03008  0.99889  0.91651  1.0000 0.1100890831
H   H4        1.0  0.96992  0.00111  0.08349  1.0000 0.1100890831
H   H5        1.0  0.46992  0.49889  0.58349  1.0000 0.1100890831
H   H6        1.0  0.53008  0.50111  0.41651  1.0000 0.1100890831
H   H7        1.0  0.53008  0.49889  0.91651  1.0000 0.1100890831
H   H8        1.0  0.46992  0.50111  0.08349  1.0000 0.1100890831
H   H9        1.0  0.93022  0.19042  0.64654  1.0000 0.1287651444
H   H10       1.0  0.06978  0.80958  0.35346  1.0000 0.1287651444
H   H11       1.0  0.06978  0.19042  0.85346  1.0000 0.1287651444
H   H12       1.0  0.93022  0.80958  0.14654  1.0000 0.1287651444
H   H13       1.0  0.43022  0.69042  0.64654  1.0000 0.1287651444
H   H14       1.0  0.56978  0.30958  0.35346  1.0000 0.1287651444
H   H15       1.0  0.56978  0.69042  0.85346  1.0000 0.1287651444
H   H16       1.0  0.43022  0.30958  0.14654  1.0000 0.1287651444
H   H17       1.0  0.82220  0.81294  0.66855  1.0000 0.1287651444
H   H18       1.0  0.17780  0.18706  0.33145  1.0000 0.1287651444
H   H19       1.0  0.17780  0.81294  0.83145  1.0000 0.1287651444
H   H20       1.0  0.82220  0.18706  0.16855  1.0000 0.1287651444
H   H21       1.0  0.32220  0.31294  0.66855  1.0000 0.1287651444
H   H22       1.0  0.67780  0.68706  0.33145  1.0000 0.1287651444
H   H23       1.0  0.67780  0.31294  0.83145  1.0000 0.1287651444
H   H24       1.0  0.32220  0.68706  0.16855  1.0000 0.1287651444
H   H25       1.0  0.86291  0.62089  0.60379  1.0000 0.1100890831
H   H26       1.0  0.13709  0.37911  0.39621  1.0000 0.1100890831
H   H27       1.0  0.13709  0.62089  0.89621  1.0000 0.1100890831
H   H28       1.0  0.86291  0.37911  0.10379  1.0000 0.1100890831
H   H29       1.0  0.36291  0.12089  0.60379  1.0000 0.1100890831
H   H30       1.0  0.63709  0.87911  0.39621  1.0000 0.1100890831
H   H31       1.0  0.63709  0.12089  0.89621  1.0000 0.1100890831
H   H32       1.0  0.36291  0.87911  0.10379  1.0000 0.1100890831
H   H33       1.0  0.93689  0.98369  0.75369  1.0000 0.1182142581
H   H34       1.0  0.06311  0.01631  0.24631  1.0000 0.1182142581
H   H35       1.0  0.06311  0.98369  0.74631  1.0000 0.1182142581
H   H36       1.0  0.93689  0.01631  0.25369  1.0000 0.1182142581
H   H37       1.0  0.43689  0.48369  0.75369  1.0000 0.1182142581
H   H38       1.0  0.56311  0.51631  0.24631  1.0000 0.1182142581
H   H39       1.0  0.56311  0.48369  0.74631  1.0000 0.1182142581
H   H40       1.0  0.43689  0.51631  0.25369  1.0000 0.1182142581
H   H41       1.0  0.98260  0.10407  0.84417  1.0000 0.1015986196
H   H42       1.0  0.01740  0.89593  0.15583  1.0000 0.1015986196
H   H43       1.0  0.01740  0.10407  0.65583  1.0000 0.1015986196
H   H44       1.0  0.98260  0.89593  0.34417  1.0000 0.1015986196
H   H45       1.0  0.48260  0.60407  0.84417  1.0000 0.1015986196
H   H46       1.0  0.51740  0.39593  0.15583  1.0000 0.1015986196
H   H47       1.0  0.51740  0.60407  0.65583  1.0000 0.1015986196
H   H48       1.0  0.48260  0.39593  0.34417  1.0000 0.1015986196
H   H49       1.0  0.87601  0.49815  0.83789  1.0000 0.1182142581
H   H50       1.0  0.12399  0.50185  0.16211  1.0000 0.1182142581
H   H51       1.0  0.12399  0.49815  0.66211  1.0000 0.1182142581
H   H52       1.0  0.87601  0.50185  0.33789  1.0000 0.1182142581
H   H53       1.0  0.37601  0.99815  0.83789  1.0000 0.1182142581
H   H54       1.0  0.62399  0.00185  0.16211  1.0000 0.1182142581
H   H55       1.0  0.62399  0.99815  0.66211  1.0000 0.1182142581
H   H56       1.0  0.37601  0.00185  0.33789  1.0000 0.1182142581
H   H57       1.0  0.82881  0.37921  0.74498  1.0000 0.1287651444
H   H58       1.0  0.17119  0.62079  0.25502  1.0000 0.1287651444
H   H59       1.0  0.17119  0.37921  0.75502  1.0000 0.1287651444
H   H60       1.0  0.82881  0.62079  0.24498  1.0000 0.1287651444
H   H61       1.0  0.32881  0.87921  0.74498  1.0000 0.1287651444
H   H62       1.0  0.67119  0.12079  0.25502  1.0000 0.1287651444
H   H63       1.0  0.67119  0.87921  0.75502  1.0000 0.1287651444
H   H64       1.0  0.32881  0.12079  0.24498  1.0000 0.1287651444
H   H65       1.0  0.13870  0.67555  0.46576  1.0000 0.1015986196
H   H66       1.0  0.86130  0.32445  0.53424  1.0000 0.1015986196
H   H67       1.0  0.86130  0.67555  0.03424  1.0000 0.1015986196
H   H68       1.0  0.13870  0.32445  0.96576  1.0000 0.1015986196
H   H69       1.0  0.63870  0.17555  0.46576  1.0000 0.1015986196
H   H70       1.0  0.36130  0.82445  0.53424  1.0000 0.1015986196
H   H71       1.0  0.36130  0.17555  0.03424  1.0000 0.1015986196
H   H72       1.0  0.63870  0.82445  0.96576  1.0000 0.1015986196
H   H73       1.0  0.20407  0.90194  0.47377  1.0000 0.1182142581
H   H74       1.0  0.79593  0.09806  0.52623  1.0000 0.1182142581
H   H75       1.0  0.79593  0.90194  0.02623  1.0000 0.1182142581
H   H76       1.0  0.20407  0.09806  0.97377  1.0000 0.1182142581
H   H77       1.0  0.70407  0.40194  0.47377  1.0000 0.1182142581
H   H78       1.0  0.29593  0.59806  0.52623  1.0000 0.1182142581
H   H79       1.0  0.29593  0.40194  0.02623  1.0000 0.1182142581
H   H80       1.0  0.70407  0.59806  0.97377  1.0000 0.1182142581
H   H81       1.0  0.11324  0.17522  0.57700  1.0000 0.1100890831
H   H82       1.0  0.88676  0.82478  0.42300  1.0000 0.1100890831
H   H83       1.0  0.88676  0.17522  0.92300  1.0000 0.1100890831
H   H84       1.0  0.11324  0.82478  0.07700  1.0000 0.1100890831
H   H85       1.0  0.61324  0.67522  0.57700  1.0000 0.1100890831
H   H86       1.0  0.38676  0.32478  0.42300  1.0000 0.1100890831
H   H87       1.0  0.38676  0.67522  0.92300  1.0000 0.1100890831
H   H88       1.0  0.61324  0.32478  0.07700  1.0000 0.1100890831
H   H89       1.0  0.05239  0.94071  0.56461  1.0000 0.1015986196
H   H90       1.0  0.94761  0.05929  0.43539  1.0000 0.1015986196
H   H91       1.0  0.94761  0.94071  0.93539  1.0000 0.1015986196
H   H92       1.0  0.05239  0.05929  0.06461  1.0000 0.1015986196
H   H93       1.0  0.55239  0.44071  0.56461  1.0000 0.1015986196
H   H94       1.0  0.44761  0.55929  0.43539  1.0000 0.1015986196
H   H95       1.0  0.44761  0.44071  0.93539  1.0000 0.1015986196
H   H96       1.0  0.55239  0.55929  0.06461  1.0000 0.1015986196
H   H97       1.0  0.20352  0.33262  0.60788  1.0000 0.1409853999
H   H98       1.0  0.79648  0.66738  0.39212  1.0000 0.1409853999
H   H99       1.0  0.79648  0.33262  0.89212  1.0000 0.1409853999
H   H100      1.0  0.20352  0.66738  0.10788  1.0000 0.1409853999
H   H101      1.0  0.70352  0.83262  0.60788  1.0000 0.1409853999
H   H102      1.0  0.29648  0.16738  0.39212  1.0000 0.1409853999
H   H103      1.0  0.29648  0.83262  0.89212  1.0000 0.1409853999
H   H104      1.0  0.70352  0.16738  0.10788  1.0000 0.1409853999
H   H105      1.0  0.14899  0.38390  0.55845  1.0000 0.1540543553
H   H106      1.0  0.85101  0.61610  0.44155  1.0000 0.1540543553
H   H107      1.0  0.85101  0.38390  0.94155  1.0000 0.1540543553
H   H108      1.0  0.14899  0.61610  0.05845  1.0000 0.1540543553
H   H109      1.0  0.64899  0.88390  0.55845  1.0000 0.1540543553
H   H110      1.0  0.35101  0.11610  0.44155  1.0000 0.1540543553
H   H111      1.0  0.35101  0.88390  0.94155  1.0000 0.1540543553
H   H112      1.0  0.64899  0.11610  0.05845  1.0000 0.1540543553
H   H113      1.0  0.20921  0.45632  0.54667  1.0000 0.1409853999
H   H114      1.0  0.79079  0.54368  0.45333  1.0000 0.1409853999
H   H115      1.0  0.79079  0.45632  0.95333  1.0000 0.1409853999
H   H116      1.0  0.20921  0.54368  0.04667  1.0000 0.1409853999
H   H117      1.0  0.70921  0.95632  0.54667  1.0000 0.1409853999
H   H118      1.0  0.29079  0.04368  0.45333  1.0000 0.1409853999
H   H119      1.0  0.29079  0.95632  0.95333  1.0000 0.1409853999
H   H120      1.0  0.70921  0.04368  0.04667  1.0000 0.1409853999
C   C1        1.0  0.94513  0.68565  0.55549  1.0000 0.5877571818
C   C2        1.0  0.05487  0.31435  0.44451  1.0000 0.5877571818
C   C3        1.0  0.05487  0.68565  0.94451  1.0000 0.5877571818
C   C4        1.0  0.94513  0.31435  0.05549  1.0000 0.5877571818
C   C5        1.0  0.44513  0.18565  0.55549  1.0000 0.5877571818
C   C6        1.0  0.55487  0.81435  0.44451  1.0000 0.5877571818
C   C7        1.0  0.55487  0.18565  0.94451  1.0000 0.5877571818
C   C8        1.0  0.44513  0.81435  0.05549  1.0000 0.5877571818
C   C9        1.0  0.91953  0.79750  0.59182  1.0000 -0.0610875221
C   C10       1.0  0.08047  0.20250  0.40818  1.0000 -0.0610875221
C   C11       1.0  0.08047  0.79750  0.90818  1.0000 -0.0610875221
C   C12       1.0  0.91953  0.20250  0.09182  1.0000 -0.0610875221
C   C13       1.0  0.41953  0.29750  0.59182  1.0000 -0.0610875221
C   C14       1.0  0.58047  0.70250  0.40818  1.0000 -0.0610875221
C   C15       1.0  0.58047  0.29750  0.90818  1.0000 -0.0610875221
C   C16       1.0  0.41953  0.70250  0.09182  1.0000 -0.0610875221
C   C17       1.0  0.93812  0.95780  0.60323  1.0000 -0.0610875221
C   C18       1.0  0.06188  0.04220  0.39677  1.0000 -0.0610875221
C   C19       1.0  0.06188  0.95780  0.89677  1.0000 -0.0610875221
C   C20       1.0  0.93812  0.04220  0.10323  1.0000 -0.0610875221
C   C21       1.0  0.43812  0.45780  0.60323  1.0000 -0.0610875221
C   C22       1.0  0.56188  0.54220  0.39677  1.0000 -0.0610875221
C   C23       1.0  0.56188  0.45780  0.89677  1.0000 -0.0610875221
C   C24       1.0  0.43812  0.54220  0.10323  1.0000 -0.0610875221
C   C25       1.0  0.91586  0.06472  0.63789  1.0000 -0.1987357089
C   C26       1.0  0.08414  0.93528  0.36211  1.0000 -0.1987357089
C   C27       1.0  0.08414  0.06472  0.86211  1.0000 -0.1987357089
C   C28       1.0  0.91586  0.93528  0.13789  1.0000 -0.1987357089
C   C29       1.0  0.41586  0.56472  0.63789  1.0000 -0.1987357089
C   C30       1.0  0.58414  0.43528  0.36211  1.0000 -0.1987357089
C   C31       1.0  0.58414  0.56472  0.86211  1.0000 -0.1987357089
C   C32       1.0  0.41586  0.43528  0.13789  1.0000 -0.1987357089
C   C33       1.0  0.87467  0.00822  0.66134  1.0000 0.2497533825
C   C34       1.0  0.12533  0.99178  0.33866  1.0000 0.2497533825
C   C35       1.0  0.12533  0.00822  0.83866  1.0000 0.2497533825
C   C36       1.0  0.87467  0.99178  0.16134  1.0000 0.2497533825
C   C37       1.0  0.37467  0.50822  0.66134  1.0000 0.2497533825
C   C38       1.0  0.62533  0.49178  0.33866  1.0000 0.2497533825
C   C39       1.0  0.62533  0.50822  0.83866  1.0000 0.2497533825
C   C40       1.0  0.37467  0.49178  0.16134  1.0000 0.2497533825
C   C41       1.0  0.85460  0.85068  0.64937  1.0000 -0.1987357089
C   C42       1.0  0.14540  0.14932  0.35063  1.0000 -0.1987357089
C   C43       1.0  0.14540  0.85068  0.85063  1.0000 -0.1987357089
C   C44       1.0  0.85460  0.14932  0.14937  1.0000 -0.1987357089
C   C45       1.0  0.35460  0.35068  0.64937  1.0000 -0.1987357089
C   C46       1.0  0.64540  0.64932  0.35063  1.0000 -0.1987357089
C   C47       1.0  0.64540  0.35068  0.85063  1.0000 -0.1987357089
C   C48       1.0  0.35460  0.64932  0.14937  1.0000 -0.1987357089
C   C49       1.0  0.87720  0.74554  0.61415  1.0000 -0.0610875221
C   C50       1.0  0.12280  0.25446  0.38585  1.0000 -0.0610875221
C   C51       1.0  0.12280  0.74554  0.88585  1.0000 -0.0610875221
C   C52       1.0  0.87720  0.25446  0.11415  1.0000 -0.0610875221
C   C53       1.0  0.37720  0.24554  0.61415  1.0000 -0.0610875221
C   C54       1.0  0.62280  0.75446  0.38585  1.0000 -0.0610875221
C   C55       1.0  0.62280  0.24554  0.88585  1.0000 -0.0610875221
C   C56       1.0  0.37720  0.75446  0.11415  1.0000 -0.0610875221
C   C57       1.0  0.88000  0.17624  0.74490  1.0000 0.2636710894
C   C58       1.0  0.12000  0.82376  0.25510  1.0000 0.2636710894
C   C59       1.0  0.12000  0.17624  0.75510  1.0000 0.2636710894
C   C60       1.0  0.88000  0.82376  0.24490  1.0000 0.2636710894
C   C61       1.0  0.38000  0.67624  0.74490  1.0000 0.2636710894
C   C62       1.0  0.62000  0.32376  0.25510  1.0000 0.2636710894
C   C63       1.0  0.62000  0.67624  0.75510  1.0000 0.2636710894
C   C64       1.0  0.38000  0.32376  0.24490  1.0000 0.2636710894
C   C65       1.0  0.92335  0.09670  0.77180  1.0000 -0.2203672468
C   C66       1.0  0.07665  0.90330  0.22820  1.0000 -0.2203672468
C   C67       1.0  0.07665  0.09670  0.72820  1.0000 -0.2203672468
C   C68       1.0  0.92335  0.90330  0.27180  1.0000 -0.2203672468
C   C69       1.0  0.42335  0.59670  0.77180  1.0000 -0.2203672468
C   C70       1.0  0.57665  0.40330  0.22820  1.0000 -0.2203672468
C   C71       1.0  0.57665  0.59670  0.72820  1.0000 -0.2203672468
C   C72       1.0  0.42335  0.40330  0.27180  1.0000 -0.2203672468
C   C73       1.0  0.94888  0.16440  0.82227  1.0000 -0.0610875221
C   C74       1.0  0.05112  0.83560  0.17773  1.0000 -0.0610875221
C   C75       1.0  0.05112  0.16440  0.67773  1.0000 -0.0610875221
C   C76       1.0  0.94888  0.83560  0.32227  1.0000 -0.0610875221
C   C77       1.0  0.44888  0.66440  0.82227  1.0000 -0.0610875221
C   C78       1.0  0.55112  0.33560  0.17773  1.0000 -0.0610875221
C   C79       1.0  0.55112  0.66440  0.67773  1.0000 -0.0610875221
C   C80       1.0  0.44888  0.33560  0.32227  1.0000 -0.0610875221
C   C81       1.0  0.93181  0.30812  0.84611  1.0000 -0.0689273677
C   C82       1.0  0.06819  0.69188  0.15389  1.0000 -0.0689273677
C   C83       1.0  0.06819  0.30812  0.65389  1.0000 -0.0689273677
C   C84       1.0  0.93181  0.69188  0.34611  1.0000 -0.0689273677
C   C85       1.0  0.43181  0.80812  0.84611  1.0000 -0.0689273677
C   C86       1.0  0.56819  0.19188  0.15389  1.0000 -0.0689273677
C   C87       1.0  0.56819  0.80812  0.65389  1.0000 -0.0689273677
C   C88       1.0  0.43181  0.19188  0.34611  1.0000 -0.0689273677
C   C89       1.0  0.88840  0.38582  0.81846  1.0000 -0.0689273677
C   C90       1.0  0.11160  0.61418  0.18154  1.0000 -0.0689273677
C   C91       1.0  0.11160  0.38582  0.68154  1.0000 -0.0689273677
C   C92       1.0  0.88840  0.61418  0.31846  1.0000 -0.0689273677
C   C93       1.0  0.38840  0.88582  0.81846  1.0000 -0.0689273677
C   C94       1.0  0.61160  0.11418  0.18154  1.0000 -0.0689273677
C   C95       1.0  0.61160  0.88582  0.68154  1.0000 -0.0689273677
C   C96       1.0  0.38840  0.11418  0.31846  1.0000 -0.0689273677
C   C97       1.0  0.86247  0.32075  0.76782  1.0000 -0.206647392
C   C98       1.0  0.13753  0.67925  0.23218  1.0000 -0.206647392
C   C99       1.0  0.13753  0.32075  0.73218  1.0000 -0.206647392
C   C100      1.0  0.86247  0.67925  0.26782  1.0000 -0.206647392
C   C101      1.0  0.36247  0.82075  0.76782  1.0000 -0.206647392
C   C102      1.0  0.63753  0.17925  0.23218  1.0000 -0.206647392
C   C103      1.0  0.63753  0.82075  0.73218  1.0000 -0.206647392
C   C104      1.0  0.36247  0.17925  0.26782  1.0000 -0.206647392
C   C105      1.0  0.95870  0.37560  0.90112  1.0000 0.5821102005
C   C106      1.0  0.04130  0.62440  0.09888  1.0000 0.5821102005
C   C107      1.0  0.04130  0.37560  0.59888  1.0000 0.5821102005
C   C108      1.0  0.95870  0.62440  0.40112  1.0000 0.5821102005
C   C109      1.0  0.45870  0.87560  0.90112  1.0000 0.5821102005
C   C110      1.0  0.54130  0.12440  0.09888  1.0000 0.5821102005
C   C111      1.0  0.54130  0.87560  0.59888  1.0000 0.5821102005
C   C112      1.0  0.45870  0.12440  0.40112  1.0000 0.5821102005
C   C113      1.0  0.13557  0.78909  0.49022  1.0000 0.0922121391
C   C114      1.0  0.86443  0.21091  0.50978  1.0000 0.0922121391
C   C115      1.0  0.86443  0.78909  0.00978  1.0000 0.0922121391
C   C116      1.0  0.13557  0.21091  0.99022  1.0000 0.0922121391
C   C117      1.0  0.63557  0.28909  0.49022  1.0000 0.0922121391
C   C118      1.0  0.36443  0.71091  0.50978  1.0000 0.0922121391
C   C119      1.0  0.36443  0.28909  0.00978  1.0000 0.0922121391
C   C120      1.0  0.63557  0.71091  0.99022  1.0000 0.0922121391
C   C121      1.0  0.17121  0.91304  0.49505  1.0000 -0.1499467609
C   C122      1.0  0.82879  0.08696  0.50495  1.0000 -0.1499467609
C   C123      1.0  0.82879  0.91304  0.00495  1.0000 -0.1499467609
C   C124      1.0  0.17121  0.08696  0.99505  1.0000 -0.1499467609
C   C125      1.0  0.67121  0.41304  0.49505  1.0000 -0.1499467609
C   C126      1.0  0.32879  0.58696  0.50495  1.0000 -0.1499467609
C   C127      1.0  0.32879  0.41304  0.00495  1.0000 -0.1499467609
C   C128      1.0  0.67121  0.58696  0.99505  1.0000 -0.1499467609
C   C129      1.0  0.16353  0.05789  0.52578  1.0000 0.0618000482
C   C130      1.0  0.83647  0.94211  0.47422  1.0000 0.0618000482
C   C131      1.0  0.83647  0.05789  0.97422  1.0000 0.0618000482
C   C132      1.0  0.16353  0.94211  0.02578  1.0000 0.0618000482
C   C133      1.0  0.66353  0.55789  0.52578  1.0000 0.0618000482
C   C134      1.0  0.33647  0.44211  0.47422  1.0000 0.0618000482
C   C135      1.0  0.33647  0.55789  0.97422  1.0000 0.0618000482
C   C136      1.0  0.66353  0.44211  0.02578  1.0000 0.0618000482
C   C137      1.0  0.12086  0.06661  0.55243  1.0000 -0.1499467609
C   C138      1.0  0.87914  0.93339  0.44757  1.0000 -0.1499467609
C   C139      1.0  0.87914  0.06661  0.94757  1.0000 -0.1499467609
C   C140      1.0  0.12086  0.93339  0.05243  1.0000 -0.1499467609
C   C141      1.0  0.62086  0.56661  0.55243  1.0000 -0.1499467609
C   C142      1.0  0.37914  0.43339  0.44757  1.0000 -0.1499467609
C   C143      1.0  0.37914  0.56661  0.94757  1.0000 -0.1499467609
C   C144      1.0  0.62086  0.43339  0.05243  1.0000 -0.1499467609
C   C145      1.0  0.08681  0.93722  0.54586  1.0000 0.1100890831
C   C146      1.0  0.91319  0.06278  0.45414  1.0000 0.1100890831
C   C147      1.0  0.91319  0.93722  0.95414  1.0000 0.1100890831
C   C148      1.0  0.08681  0.06278  0.04586  1.0000 0.1100890831
C   C149      1.0  0.58681  0.43722  0.54586  1.0000 0.1100890831
C   C150      1.0  0.41319  0.56278  0.45414  1.0000 0.1100890831
C   C151      1.0  0.41319  0.43722  0.95414  1.0000 0.1100890831
C   C152      1.0  0.58681  0.56278  0.04586  1.0000 0.1100890831
C   C153      1.0  0.19759  0.20024  0.52824  1.0000 0.2676543858
C   C154      1.0  0.80241  0.79976  0.47176  1.0000 0.2676543858
C   C155      1.0  0.80241  0.20024  0.97176  1.0000 0.2676543858
C   C156      1.0  0.19759  0.79976  0.02824  1.0000 0.2676543858
C   C157      1.0  0.69759  0.70024  0.52824  1.0000 0.2676543858
C   C158      1.0  0.30241  0.29976  0.47176  1.0000 0.2676543858
C   C159      1.0  0.30241  0.70024  0.97176  1.0000 0.2676543858
C   C160      1.0  0.69759  0.29976  0.02824  1.0000 0.2676543858
C   C161      1.0  0.18879  0.35222  0.56171  1.0000 -0.4476448219
C   C162      1.0  0.81121  0.64778  0.43829  1.0000 -0.4476448219
C   C163      1.0  0.81121  0.35222  0.93829  1.0000 -0.4476448219
C   C164      1.0  0.18879  0.64778  0.06171  1.0000 -0.4476448219
C   C165      1.0  0.68879  0.85222  0.56171  1.0000 -0.4476448219
C   C166      1.0  0.31121  0.14778  0.43829  1.0000 -0.4476448219
C   C167      1.0  0.31121  0.85222  0.93829  1.0000 -0.4476448219
C   C168      1.0  0.68879  0.14778  0.06171  1.0000 -0.4476448219
N   N1        1.0  0.09342  0.80105  0.51453  1.0000 -0.2203672468
N   N2        1.0  0.90658  0.19895  0.48547  1.0000 -0.2203672468
N   N3        1.0  0.90658  0.80105  0.98547  1.0000 -0.2203672468
N   N4        1.0  0.09342  0.19895  0.01453  1.0000 -0.2203672468
N   N5        1.0  0.59342  0.30105  0.51453  1.0000 -0.2203672468
N   N6        1.0  0.40658  0.69895  0.48547  1.0000 -0.2203672468
N   N7        1.0  0.40658  0.30105  0.98547  1.0000 -0.2203672468
N   N8        1.0  0.59342  0.69895  0.01453  1.0000 -0.2203672468
N   N9        1.0  0.23454  0.18081  0.49887  1.0000 -0.2420200422
N   N10       1.0  0.76546  0.81919  0.50113  1.0000 -0.2420200422
N   N11       1.0  0.76546  0.18081  0.00113  1.0000 -0.2420200422
N   N12       1.0  0.23454  0.81919  0.99887  1.0000 -0.2420200422
N   N13       1.0  0.73454  0.68081  0.49887  1.0000 -0.2420200422
N   N14       1.0  0.26546  0.31919  0.50113  1.0000 -0.2420200422
N   N15       1.0  0.26546  0.68081  0.00113  1.0000 -0.2420200422
N   N16       1.0  0.73454  0.31919  0.99887  1.0000 -0.2420200422
O   O1        1.0  0.98575  0.73901  0.54099  1.0000 -0.5610381613
O   O2        1.0  0.01425  0.26099  0.45901  1.0000 -0.5610381613
O   O3        1.0  0.01425  0.73901  0.95901  1.0000 -0.5610381613
O   O4        1.0  0.98575  0.26099  0.04099  1.0000 -0.5610381613
O   O5        1.0  0.48575  0.23901  0.54099  1.0000 -0.5610381613
O   O6        1.0  0.51425  0.76099  0.45901  1.0000 -0.5610381613
O   O7        1.0  0.51425  0.23901  0.95901  1.0000 -0.5610381613
O   O8        1.0  0.48575  0.76099  0.04099  1.0000 -0.5610381613
O   O9        1.0  0.92447  0.54617  0.54147  1.0000 -0.5505877788
O   O10       1.0  0.07553  0.45383  0.45853  1.0000 -0.5505877788
O   O11       1.0  0.07553  0.54617  0.95853  1.0000 -0.5505877788
O   O12       1.0  0.92447  0.45383  0.04147  1.0000 -0.5505877788
O   O13       1.0  0.42447  0.04617  0.54147  1.0000 -0.5505877788
O   O14       1.0  0.57553  0.95383  0.45853  1.0000 -0.5610381613
O   O15       1.0  0.57553  0.04617  0.95853  1.0000 -0.5505877788
O   O16       1.0  0.42447  0.95383  0.04147  1.0000 -0.5610381613
O   O17       1.0  0.85087  0.11302  0.69591  1.0000 -0.2203672468
O   O18       1.0  0.14913  0.88698  0.30409  1.0000 -0.2203672468
O   O19       1.0  0.14913  0.11302  0.80409  1.0000 -0.2203672468
O   O20       1.0  0.85087  0.88698  0.19591  1.0000 -0.2203672468
O   O21       1.0  0.35087  0.61302  0.69591  1.0000 -0.2203672468
O   O22       1.0  0.64913  0.38698  0.30409  1.0000 -0.2203672468
O   O23       1.0  0.64913  0.61302  0.80409  1.0000 -0.2203672468
O   O24       1.0  0.35087  0.38698  0.19591  1.0000 -0.2203672468
O   O25       1.0  0.93806  0.49737  0.92285  1.0000 -0.5610381613
O   O26       1.0  0.06194  0.50263  0.07715  1.0000 -0.5610381613
O   O27       1.0  0.06194  0.49737  0.57715  1.0000 -0.5610381613
O   O28       1.0  0.93806  0.50263  0.42285  1.0000 -0.5610381613
O   O29       1.0  0.43806  0.99737  0.92285  1.0000 -0.5610381613
O   O30       1.0  0.56194  0.00263  0.07715  1.0000 -0.5610381613
O   O31       1.0  0.56194  0.99737  0.57715  1.0000 -0.5610381613
O   O32       1.0  0.43806  0.00263  0.42285  1.0000 -0.5610381613
O   O33       1.0  0.99957  0.30478  0.92259  1.0000 -0.5505877788
O   O34       1.0  0.00043  0.69522  0.07741  1.0000 -0.5505877788
O   O35       1.0  0.00043  0.30478  0.57741  1.0000 -0.5505877788
O   O36       1.0  0.99957  0.69522  0.42259  1.0000 -0.5505877788
O   O37       1.0  0.49957  0.80478  0.92259  1.0000 -0.5505877788
O   O38       1.0  0.50043  0.19522  0.07741  1.0000 -0.5505877788
O   O39       1.0  0.50043  0.80478  0.57741  1.0000 -0.5505877788
O   O40       1.0  0.49957  0.19522  0.42259  1.0000 -0.5505877788
