# DDEC6 charges by PACMAN v1.1 (https://github.com/mtap-research/PACMAN-charge/)
data_2016[Cd][nan]3[ASR]35
_chemical_formula_sum              "Cd12 H32 C128 N16 O96"
_cell_length_a       13.0719
_cell_length_b       22.534
_cell_length_c       16.8938
_cell_angle_alpha    90
_cell_angle_beta     99.908
_cell_angle_gamma    90

_symmetry_space_group_name_H-M    "P 1"
_symmetry_Int_Tables_number       1

loop_
  _symmetry_equiv_pos_as_xyz
  'x, y, z'

loop_
  _atom_site_type_symbol
  _atom_site_label
  _atom_site_symmetry_multiplicity
  _atom_site_fract_x
  _atom_site_fract_y
  _atom_site_fract_z
  _atom_site_occupancy
  _atom_site_charge
Cd  Cd1       1.0  0.51912  0.84597  0.89546  1.0000 1.1015170075
Cd  Cd2       1.0  0.48088  0.34597  0.60454  1.0000 1.1015170075
Cd  Cd3       1.0  0.48088  0.15403  0.10454  1.0000 1.1015170075
Cd  Cd4       1.0  0.51912  0.65403  0.39546  1.0000 1.1015170075
Cd  Cd5       1.0  0.83387  0.85351  0.82872  1.0000 0.9790657766
Cd  Cd6       1.0  0.16613  0.35351  0.67128  1.0000 0.9790657766
Cd  Cd7       1.0  0.16613  0.14649  0.17128  1.0000 0.9790657766
Cd  Cd8       1.0  0.83387  0.64649  0.32872  1.0000 0.9790657766
Cd  Cd9       1.0  0.30599  0.75185  0.95280  1.0000 1.0095028438
Cd  Cd10      1.0  0.69401  0.25185  0.54720  1.0000 1.0095028438
Cd  Cd11      1.0  0.69401  0.24815  0.04720  1.0000 1.0095028438
Cd  Cd12      1.0  0.30599  0.74815  0.45280  1.0000 1.0095028438
H   H1        1.0  0.23350  0.96420  0.02950  1.0000 0.1583995286
H   H2        1.0  0.76650  0.46420  0.47050  1.0000 0.1583995286
H   H3        1.0  0.76650  0.03580  0.97050  1.0000 0.1583995286
H   H4        1.0  0.23350  0.53580  0.52950  1.0000 0.1583995286
H   H5        1.0  0.03620  0.07510  0.89510  1.0000 0.1583995286
H   H6        1.0  0.96380  0.57510  0.60490  1.0000 0.1583995286
H   H7        1.0  0.96380  0.92490  0.10490  1.0000 0.1583995286
H   H8        1.0  0.03620  0.42490  0.39510  1.0000 0.1583995286
H   H9        1.0  0.33510  0.91000  0.63270  1.0000 0.1583995286
H   H10       1.0  0.66490  0.41000  0.86730  1.0000 0.1583995286
H   H11       1.0  0.66490  0.09000  0.36730  1.0000 0.1583995286
H   H12       1.0  0.33510  0.59000  0.13270  1.0000 0.1583995286
H   H13       1.0  0.09830  0.80590  0.66480  1.0000 0.1583995286
H   H14       1.0  0.90170  0.30590  0.83520  1.0000 0.1583995286
H   H15       1.0  0.90170  0.19410  0.33520  1.0000 0.1583995286
H   H16       1.0  0.09830  0.69410  0.16480  1.0000 0.1583995286
H   H17       1.0  0.42170  0.72490  0.68840  1.0000 0.1583995286
H   H18       1.0  0.57830  0.22490  0.81160  1.0000 0.1583995286
H   H19       1.0  0.57830  0.27510  0.31160  1.0000 0.1583995286
H   H20       1.0  0.42170  0.77510  0.18840  1.0000 0.1583995286
H   H21       1.0  0.69850  0.66050  0.65930  1.0000 0.1583995286
H   H22       1.0  0.30150  0.16050  0.84070  1.0000 0.1583995286
H   H23       1.0  0.30150  0.33950  0.34070  1.0000 0.1583995286
H   H24       1.0  0.69850  0.83950  0.15930  1.0000 0.1583995286
H   H25       1.0  0.60160  0.60090  0.07670  1.0000 0.1583995286
H   H26       1.0  0.39840  0.10090  0.42330  1.0000 0.1583995286
H   H27       1.0  0.39840  0.39910  0.92330  1.0000 0.1583995286
H   H28       1.0  0.60160  0.89910  0.57670  1.0000 0.1583995286
H   H29       1.0  0.77610  0.74580  0.06480  1.0000 0.1583995286
H   H30       1.0  0.22390  0.24580  0.43520  1.0000 0.1583995286
H   H31       1.0  0.22390  0.25420  0.93520  1.0000 0.1583995286
H   H32       1.0  0.77610  0.75420  0.56480  1.0000 0.1583995286
C   C1        1.0  0.28170  0.89029  0.91960  1.0000 0.5976445682
C   C2        1.0  0.71830  0.39029  0.58040  1.0000 0.5976445682
C   C3        1.0  0.71830  0.10971  0.08040  1.0000 0.5976445682
C   C4        1.0  0.28170  0.60971  0.41960  1.0000 0.5976445682
C   C5        1.0  0.21290  0.94431  0.91010  1.0000 -0.0197409785
C   C6        1.0  0.78710  0.44431  0.58990  1.0000 -0.0197409785
C   C7        1.0  0.78710  0.05569  0.08990  1.0000 -0.0197409785
C   C8        1.0  0.21290  0.55569  0.41010  1.0000 -0.0197409785
C   C9        1.0  0.20060  0.97709  0.97930  1.0000 -0.0815380478
C   C10       1.0  0.79940  0.47709  0.52070  1.0000 -0.0815380478
C   C11       1.0  0.79940  0.02291  0.02070  1.0000 -0.0815380478
C   C12       1.0  0.20060  0.52291  0.47930  1.0000 -0.0815380478
C   C13       1.0  0.14090  0.02740  0.97350  1.0000 0.0307269108
C   C14       1.0  0.85910  0.52740  0.52650  1.0000 0.0307269108
C   C15       1.0  0.85910  0.97260  0.02650  1.0000 0.0307269108
C   C16       1.0  0.14090  0.47260  0.47350  1.0000 0.0307269108
C   C17       1.0  0.08230  0.04340  0.89920  1.0000 -0.1217346091
C   C18       1.0  0.91770  0.54340  0.60080  1.0000 -0.1217346091
C   C19       1.0  0.91770  0.95660  0.10080  1.0000 -0.1217346091
C   C20       1.0  0.08230  0.45660  0.39920  1.0000 -0.1217346091
C   C21       1.0  0.09470  0.01070  0.83190  1.0000 0.04174438
C   C22       1.0  0.90530  0.51070  0.66810  1.0000 0.04174438
C   C23       1.0  0.90530  0.98930  0.16810  1.0000 0.04174438
C   C24       1.0  0.09470  0.48930  0.33190  1.0000 0.04174438
C   C25       1.0  0.16070  0.96277  0.83450  1.0000 0.0173877275
C   C26       1.0  0.83930  0.46277  0.66550  1.0000 0.0173877275
C   C27       1.0  0.83930  0.03723  0.16550  1.0000 0.0173877275
C   C28       1.0  0.16070  0.53723  0.33450  1.0000 0.0173877275
C   C29       1.0  0.17860  0.92741  0.76280  1.0000 0.0307269108
C   C30       1.0  0.82140  0.42741  0.73720  1.0000 0.0307269108
C   C31       1.0  0.82140  0.07259  0.23720  1.0000 0.0307269108
C   C32       1.0  0.17860  0.57259  0.26280  1.0000 0.0307269108
C   C33       1.0  0.26130  0.93679  0.72240  1.0000 0.0307269108
C   C34       1.0  0.73870  0.43679  0.77760  1.0000 0.0307269108
C   C35       1.0  0.73870  0.06321  0.27760  1.0000 0.0307269108
C   C36       1.0  0.26130  0.56321  0.22240  1.0000 0.0307269108
C   C37       1.0  0.28010  0.90145  0.65920  1.0000 -0.1217346091
C   C38       1.0  0.71990  0.40145  0.84080  1.0000 -0.1217346091
C   C39       1.0  0.71990  0.09855  0.34080  1.0000 -0.1217346091
C   C40       1.0  0.28010  0.59855  0.15920  1.0000 -0.1217346091
C   C41       1.0  0.21630  0.85353  0.63620  1.0000 0.0173877275
C   C42       1.0  0.78370  0.35353  0.86380  1.0000 0.0173877275
C   C43       1.0  0.78370  0.14647  0.36380  1.0000 0.0115834361
C   C44       1.0  0.21630  0.64647  0.13620  1.0000 0.0173877275
C   C45       1.0  0.13740  0.84011  0.67760  1.0000 -0.0815380478
C   C46       1.0  0.86260  0.34011  0.82240  1.0000 -0.0815380478
C   C47       1.0  0.86260  0.15989  0.32240  1.0000 -0.0815380478
C   C48       1.0  0.13740  0.65989  0.17760  1.0000 -0.0815380478
C   C49       1.0  0.11520  0.87734  0.73860  1.0000 -0.0110603878
C   C50       1.0  0.88480  0.37734  0.76140  1.0000 -0.0110603878
C   C51       1.0  0.88480  0.12266  0.26140  1.0000 -0.0110603878
C   C52       1.0  0.11520  0.62266  0.23860  1.0000 -0.0110603878
C   C53       1.0  0.02180  0.86640  0.77730  1.0000 0.5496330219
C   C54       1.0  0.97820  0.36640  0.72270  1.0000 0.5496330219
C   C55       1.0  0.97820  0.13360  0.22270  1.0000 0.5496330219
C   C56       1.0  0.02180  0.63360  0.27730  1.0000 0.5496330219
C   C57       1.0  0.13830  0.06700  0.04450  1.0000 0.5425121344
C   C58       1.0  0.86170  0.56700  0.45550  1.0000 0.5425121344
C   C59       1.0  0.86170  0.93300  0.95550  1.0000 0.5425121344
C   C60       1.0  0.13830  0.43300  0.54450  1.0000 0.5425121344
C   C61       1.0  0.23760  0.81410  0.56900  1.0000 0.5496330219
C   C62       1.0  0.76240  0.31410  0.93100  1.0000 0.5496330219
C   C63       1.0  0.76240  0.18590  0.43100  1.0000 0.5496330219
C   C64       1.0  0.23760  0.68590  0.06900  1.0000 0.5496330219
C   C65       1.0  0.42980  0.71220  0.84330  1.0000 0.5798433728
C   C66       1.0  0.57020  0.21220  0.65670  1.0000 0.5798433728
C   C67       1.0  0.57020  0.28780  0.15670  1.0000 0.5798433728
C   C68       1.0  0.42980  0.78780  0.34330  1.0000 0.5798433728
C   C69       1.0  0.51060  0.69966  0.79190  1.0000 -0.0414454427
C   C70       1.0  0.48940  0.19966  0.70810  1.0000 -0.0414454427
C   C71       1.0  0.48940  0.30034  0.20810  1.0000 -0.0414454427
C   C72       1.0  0.51060  0.80034  0.29190  1.0000 -0.0414454427
C   C73       1.0  0.48560  0.70840  0.71000  1.0000 -0.0873910209
C   C74       1.0  0.51440  0.20840  0.79000  1.0000 -0.0873910209
C   C75       1.0  0.51440  0.29160  0.29000  1.0000 -0.0873910209
C   C76       1.0  0.48560  0.79160  0.21000  1.0000 -0.0873910209
C   C77       1.0  0.55430  0.69292  0.65910  1.0000 0.0173877275
C   C78       1.0  0.44570  0.19292  0.84090  1.0000 0.0173877275
C   C79       1.0  0.44570  0.30708  0.34090  1.0000 0.0173877275
C   C80       1.0  0.55430  0.80708  0.15910  1.0000 0.0173877275
C   C81       1.0  0.65130  0.67104  0.69230  1.0000 -0.1016204573
C   C82       1.0  0.34870  0.17104  0.80770  1.0000 -0.1016204573
C   C83       1.0  0.34870  0.32896  0.30770  1.0000 -0.1016204573
C   C84       1.0  0.65130  0.82896  0.19230  1.0000 -0.1016204573
C   C85       1.0  0.67730  0.66502  0.77470  1.0000 0.04174438
C   C86       1.0  0.32270  0.16502  0.72530  1.0000 0.0459499218
C   C87       1.0  0.32270  0.33498  0.22530  1.0000 0.04174438
C   C88       1.0  0.67730  0.83498  0.27470  1.0000 0.0459499218
C   C89       1.0  0.60740  0.67782  0.82720  1.0000 0.0173877275
C   C90       1.0  0.39260  0.17782  0.67280  1.0000 0.0173877275
C   C91       1.0  0.39260  0.32218  0.17280  1.0000 0.0173877275
C   C92       1.0  0.60740  0.82218  0.32720  1.0000 0.0173877275
C   C93       1.0  0.63520  0.67517  0.91650  1.0000 0.0115834361
C   C94       1.0  0.36480  0.17517  0.58350  1.0000 0.0115834361
C   C95       1.0  0.36480  0.32483  0.08350  1.0000 0.0115834361
C   C96       1.0  0.63520  0.82483  0.41650  1.0000 0.0115834361
C   C97       1.0  0.59880  0.63150  0.96530  1.0000 0.0307269108
C   C98       1.0  0.40120  0.13150  0.53470  1.0000 0.0307269108
C   C99       1.0  0.40120  0.36850  0.03470  1.0000 0.0307269108
C   C100      1.0  0.59880  0.86850  0.46530  1.0000 0.0307269108
C   C101      1.0  0.62740  0.63030  0.04690  1.0000 -0.1144019749
C   C102      1.0  0.37260  0.13030  0.45310  1.0000 -0.1144019749
C   C103      1.0  0.37260  0.36970  0.95310  1.0000 -0.1144019749
C   C104      1.0  0.62740  0.86970  0.54690  1.0000 -0.1144019749
C   C105      1.0  0.69520  0.67279  0.08530  1.0000 0.0307269108
C   C106      1.0  0.30480  0.17279  0.41470  1.0000 0.0307269108
C   C107      1.0  0.30480  0.32721  0.91470  1.0000 0.0307269108
C   C108      1.0  0.69520  0.82721  0.58530  1.0000 0.0307269108
C   C109      1.0  0.73060  0.71712  0.03970  1.0000 -0.0873910209
C   C110      1.0  0.26940  0.21712  0.46030  1.0000 -0.0873910209
C   C111      1.0  0.26940  0.28288  0.96030  1.0000 -0.0873910209
C   C112      1.0  0.73060  0.78288  0.53970  1.0000 -0.0873910209
C   C113      1.0  0.69920  0.71904  0.95730  1.0000 -0.0465008404
C   C114      1.0  0.30080  0.21904  0.54270  1.0000 -0.0465008404
C   C115      1.0  0.30080  0.28096  0.04270  1.0000 -0.0465008404
C   C116      1.0  0.69920  0.78096  0.45730  1.0000 -0.0465008404
C   C117      1.0  0.73950  0.76855  0.91070  1.0000 0.5798433728
C   C118      1.0  0.26050  0.26855  0.58930  1.0000 0.5798433728
C   C119      1.0  0.26050  0.23145  0.08930  1.0000 0.5798433728
C   C120      1.0  0.73950  0.73145  0.41070  1.0000 0.5798433728
C   C121      1.0  0.51930  0.69800  0.57010  1.0000 0.5976445682
C   C122      1.0  0.48070  0.19800  0.92990  1.0000 0.5976445682
C   C123      1.0  0.48070  0.30200  0.42990  1.0000 0.5976445682
C   C124      1.0  0.51930  0.80200  0.07010  1.0000 0.5976445682
C   C125      1.0  0.73650  0.66880  0.17390  1.0000 0.5496330219
C   C126      1.0  0.26350  0.16880  0.32610  1.0000 0.5496330219
C   C127      1.0  0.26350  0.33120  0.82610  1.0000 0.5496330219
C   C128      1.0  0.73650  0.83120  0.67390  1.0000 0.5496330219
N   N1        1.0  0.03270  0.02970  0.75550  1.0000 0.5280933834
N   N2        1.0  0.96730  0.52970  0.74450  1.0000 0.5280933834
N   N3        1.0  0.96730  0.97030  0.24450  1.0000 0.5280933834
N   N4        1.0  0.03270  0.47030  0.25550  1.0000 0.5280933834
N   N5        1.0  0.33520  0.98455  0.74860  1.0000 0.5280933834
N   N6        1.0  0.66480  0.48455  0.75140  1.0000 0.5280933834
N   N7        1.0  0.66480  0.01545  0.25140  1.0000 0.5280933834
N   N8        1.0  0.33520  0.51545  0.24860  1.0000 0.5280933834
N   N9        1.0  0.52990  0.58360  0.92860  1.0000 0.5194447048
N   N10       1.0  0.47010  0.08360  0.57140  1.0000 0.5194447048
N   N11       1.0  0.47010  0.41640  0.07140  1.0000 0.5194447048
N   N12       1.0  0.52990  0.91640  0.42860  1.0000 0.5194447048
N   N13       1.0  0.78250  0.64110  0.80510  1.0000 0.5194447048
N   N14       1.0  0.21750  0.14110  0.69490  1.0000 0.5194447048
N   N15       1.0  0.21750  0.35890  0.19490  1.0000 0.5194447048
N   N16       1.0  0.78250  0.85890  0.30510  1.0000 0.5194447048
O   O1        1.0  0.24890  0.84564  0.95030  1.0000 -0.492236621
O   O2        1.0  0.75110  0.34564  0.54970  1.0000 -0.492236621
O   O3        1.0  0.75110  0.15436  0.04970  1.0000 -0.492236621
O   O4        1.0  0.24890  0.65436  0.45030  1.0000 -0.492236621
O   O5        1.0  0.36540  0.89515  0.89430  1.0000 -0.5694432272
O   O6        1.0  0.63460  0.39515  0.60570  1.0000 -0.5694432272
O   O7        1.0  0.63460  0.10485  0.10570  1.0000 -0.5694432272
O   O8        1.0  0.36540  0.60485  0.39430  1.0000 -0.5694432272
O   O9        1.0  0.06100  0.01663  0.69250  1.0000 -0.2998961471
O   O10       1.0  0.93900  0.51663  0.80750  1.0000 -0.2998961471
O   O11       1.0  0.93900  0.98337  0.30750  1.0000 -0.2998961471
O   O12       1.0  0.06100  0.48337  0.19250  1.0000 -0.2998961471
O   O13       1.0  0.95270  0.05910  0.75840  1.0000 -0.2672538601
O   O14       1.0  0.04730  0.55910  0.74160  1.0000 -0.2672538601
O   O15       1.0  0.04730  0.94090  0.24160  1.0000 -0.2672538601
O   O16       1.0  0.95270  0.44090  0.25840  1.0000 -0.2610032402
O   O17       1.0  0.07200  0.10553  0.04050  1.0000 -0.4733662226
O   O18       1.0  0.92800  0.60553  0.45950  1.0000 -0.4733662226
O   O19       1.0  0.92800  0.89447  0.95950  1.0000 -0.4733662226
O   O20       1.0  0.07200  0.39447  0.54050  1.0000 -0.4733662226
O   O21       1.0  0.20940  0.06079  0.10478  1.0000 -0.5078505568
O   O22       1.0  0.79060  0.56079  0.39522  1.0000 -0.5078505568
O   O23       1.0  0.79060  0.93921  0.89522  1.0000 -0.5078505568
O   O24       1.0  0.20940  0.43921  0.60478  1.0000 -0.5078505568
O   O25       1.0  0.01840  0.81981  0.81850  1.0000 -0.4824082285
O   O26       1.0  0.98160  0.31981  0.68150  1.0000 -0.4824082285
O   O27       1.0  0.98160  0.18019  0.18150  1.0000 -0.4824082285
O   O28       1.0  0.01840  0.68019  0.31850  1.0000 -0.4824082285
O   O29       1.0  0.95100  0.90355  0.76530  1.0000 -0.4960008554
O   O30       1.0  0.04900  0.40355  0.73470  1.0000 -0.4960008554
O   O31       1.0  0.04900  0.09645  0.23470  1.0000 -0.4960008554
O   O32       1.0  0.95100  0.59645  0.26530  1.0000 -0.4960008554
O   O33       1.0  0.30360  0.02942  0.77810  1.0000 -0.3254767053
O   O34       1.0  0.69640  0.52942  0.72190  1.0000 -0.3241333209
O   O35       1.0  0.69640  0.97058  0.22190  1.0000 -0.3254767053
O   O36       1.0  0.30360  0.47058  0.27810  1.0000 -0.3241333209
O   O37       1.0  0.42630  0.97638  0.74170  1.0000 -0.2906611947
O   O38       1.0  0.57370  0.47638  0.75830  1.0000 -0.2906611947
O   O39       1.0  0.57370  0.02362  0.25830  1.0000 -0.2998961471
O   O40       1.0  0.42630  0.52362  0.24170  1.0000 -0.2906611947
O   O41       1.0  0.28440  0.83645  0.51790  1.0000 -0.5078505568
O   O42       1.0  0.71560  0.33645  0.98210  1.0000 -0.5078505568
O   O43       1.0  0.71560  0.16355  0.48210  1.0000 -0.5078505568
O   O44       1.0  0.28440  0.66355  0.01790  1.0000 -0.5078505568
O   O45       1.0  0.20860  0.76202  0.56600  1.0000 -0.4824082285
O   O46       1.0  0.79140  0.26202  0.93400  1.0000 -0.4824082285
O   O47       1.0  0.79140  0.23798  0.43400  1.0000 -0.4824082285
O   O48       1.0  0.20860  0.73798  0.06600  1.0000 -0.4824082285
O   O49       1.0  0.41650  0.76594  0.86240  1.0000 -0.5694432272
O   O50       1.0  0.58350  0.26594  0.63760  1.0000 -0.5694432272
O   O51       1.0  0.58350  0.23406  0.13760  1.0000 -0.5645997964
O   O52       1.0  0.41650  0.73406  0.36240  1.0000 -0.5694432272
O   O53       1.0  0.38080  0.67220  0.86650  1.0000 -0.4382852607
O   O54       1.0  0.61920  0.17220  0.63350  1.0000 -0.4382852607
O   O55       1.0  0.61920  0.32780  0.13350  1.0000 -0.4382852607
O   O56       1.0  0.38080  0.82780  0.36650  1.0000 -0.4382852607
O   O57       1.0  0.79860  0.61790  0.87080  1.0000 -0.2906611947
O   O58       1.0  0.20140  0.11790  0.62920  1.0000 -0.2906611947
O   O59       1.0  0.20140  0.38210  0.12920  1.0000 -0.2906611947
O   O60       1.0  0.79860  0.88210  0.37080  1.0000 -0.2906611947
O   O61       1.0  0.84760  0.64612  0.76310  1.0000 -0.2610032402
O   O62       1.0  0.15240  0.14612  0.73690  1.0000 -0.2610032402
O   O63       1.0  0.15240  0.35388  0.23690  1.0000 -0.2610032402
O   O64       1.0  0.84760  0.85388  0.26310  1.0000 -0.2610032402
O   O65       1.0  0.56530  0.66735  0.52655  1.0000 -0.5323349081
O   O66       1.0  0.43470  0.16735  0.97345  1.0000 -0.5323349081
O   O67       1.0  0.43470  0.33265  0.47345  1.0000 -0.5323349081
O   O68       1.0  0.56530  0.83265  0.02655  1.0000 -0.5323349081
O   O69       1.0  0.44640  0.73300  0.54700  1.0000 -0.5526102774
O   O70       1.0  0.55360  0.23300  0.95300  1.0000 -0.5526102774
O   O71       1.0  0.55360  0.26700  0.45300  1.0000 -0.5526102774
O   O72       1.0  0.44640  0.76700  0.04700  1.0000 -0.5526102774
O   O73       1.0  0.67900  0.80747  0.87774  1.0000 -0.5526102774
O   O74       1.0  0.32100  0.30747  0.62226  1.0000 -0.5526102774
O   O75       1.0  0.32100  0.19253  0.12226  1.0000 -0.5526102774
O   O76       1.0  0.67900  0.69253  0.37774  1.0000 -0.5526102774
O   O77       1.0  0.83420  0.76901  0.90750  1.0000 -0.4510096453
O   O78       1.0  0.16580  0.26901  0.59250  1.0000 -0.4510096453
O   O79       1.0  0.16580  0.23099  0.09250  1.0000 -0.4510096453
O   O80       1.0  0.83420  0.73099  0.40750  1.0000 -0.4510096453
O   O81       1.0  0.53680  0.56720  0.86150  1.0000 -0.2906611947
O   O82       1.0  0.46320  0.06720  0.63850  1.0000 -0.2906611947
O   O83       1.0  0.46320  0.43280  0.13850  1.0000 -0.2906611947
O   O84       1.0  0.53680  0.93280  0.36150  1.0000 -0.2906611947
O   O85       1.0  0.47140  0.56190  0.96830  1.0000 -0.2387544245
O   O86       1.0  0.52860  0.06190  0.53170  1.0000 -0.2387544245
O   O87       1.0  0.52860  0.43810  0.03170  1.0000 -0.2387544245
O   O88       1.0  0.47140  0.93810  0.46830  1.0000 -0.2387544245
O   O89       1.0  0.80240  0.70498  0.20537  1.0000 -0.5078505568
O   O90       1.0  0.19760  0.20498  0.29463  1.0000 -0.5078505568
O   O91       1.0  0.19760  0.29502  0.79463  1.0000 -0.5078505568
O   O92       1.0  0.80240  0.79502  0.70537  1.0000 -0.5078505568
O   O93       1.0  0.70460  0.62664  0.21397  1.0000 -0.5226168923
O   O94       1.0  0.29540  0.12664  0.28603  1.0000 -0.5226168923
O   O95       1.0  0.29540  0.37336  0.78603  1.0000 -0.5226168923
O   O96       1.0  0.70460  0.87336  0.71397  1.0000 -0.5226168923
