# DDEC6 charges by PACMAN v1.1 (https://github.com/mtap-research/PACMAN-charge/)
data_2016[Mg][pcu]3[ASR]2
_chemical_formula_sum              "Mg3 H6 C18 O16"
_cell_length_a       10.8751
_cell_length_b       10.8751
_cell_length_c       10.8751
_cell_angle_alpha    81.0867
_cell_angle_beta     81.0867
_cell_angle_gamma    81.0867

_symmetry_space_group_name_H-M    "P 1"
_symmetry_Int_Tables_number       1

loop_
  _symmetry_equiv_pos_as_xyz
  'x, y, z'

loop_
  _atom_site_type_symbol
  _atom_site_label
  _atom_site_symmetry_multiplicity
  _atom_site_fract_x
  _atom_site_fract_y
  _atom_site_fract_z
  _atom_site_occupancy
  _atom_site_charge
Mg  Mg1       1.0  0.00000  0.14289  0.85711  1.0000 1.4216206428
Mg  Mg2       1.0  0.14289  0.85711  0.00000  1.0000 1.4216206428
Mg  Mg3       1.0  0.85711  0.00000  0.14289  1.0000 1.4287115689
H   H1        1.0  0.71060  0.39060  0.27500  1.0000 0.1609648049
H   H2        1.0  0.39060  0.27500  0.71060  1.0000 0.1609648049
H   H3        1.0  0.27500  0.71060  0.39060  1.0000 0.1609648049
H   H4        1.0  0.28940  0.72500  0.60940  1.0000 0.1609648049
H   H5        1.0  0.72500  0.60940  0.28940  1.0000 0.1609648049
H   H6        1.0  0.60940  0.28940  0.72500  1.0000 0.1609648049
C   C1        1.0  0.89450  0.27830  0.08160  1.0000 0.5604519105
C   C2        1.0  0.27830  0.08160  0.89450  1.0000 0.5604519105
C   C3        1.0  0.08160  0.89450  0.27830  1.0000 0.5604519105
C   C4        1.0  0.10550  0.91840  0.72170  1.0000 0.5604519105
C   C5        1.0  0.91840  0.72170  0.10550  1.0000 0.5604519105
C   C6        1.0  0.72170  0.10550  0.91840  1.0000 0.5604519105
C   C7        1.0  0.85930  0.40190  0.13210  1.0000 0.0940919052
C   C8        1.0  0.40190  0.13210  0.85930  1.0000 0.0940919052
C   C9        1.0  0.13210  0.85930  0.40190  1.0000 0.0960575994
C   C10       1.0  0.14070  0.86790  0.59810  1.0000 0.0940919052
C   C11       1.0  0.86790  0.59810  0.14070  1.0000 0.0960575994
C   C12       1.0  0.59810  0.14070  0.86790  1.0000 0.0940919052
C   C13       1.0  0.76730  0.43970  0.22560  1.0000 -0.1769639049
C   C14       1.0  0.43970  0.22560  0.76730  1.0000 -0.1769639049
C   C15       1.0  0.22560  0.76730  0.43970  1.0000 -0.1769639049
C   C16       1.0  0.23270  0.77440  0.56030  1.0000 -0.1736039017
C   C17       1.0  0.77440  0.56030  0.23270  1.0000 -0.1769639049
C   C18       1.0  0.56030  0.23270  0.77440  1.0000 -0.1769639049
O   O1        1.0  0.96717  0.27787  0.98167  1.0000 -0.5590811366
O   O2        1.0  0.27787  0.98167  0.96717  1.0000 -0.5590811366
O   O3        1.0  0.98167  0.96717  0.27787  1.0000 -0.5590811366
O   O4        1.0  0.03283  0.01833  0.72213  1.0000 -0.5590811366
O   O5        1.0  0.01833  0.72213  0.03283  1.0000 -0.5590811366
O   O6        1.0  0.72213  0.03283  0.01833  1.0000 -0.5590811366
O   O7        1.0  0.84730  0.19090  0.14480  1.0000 -0.5590811366
O   O8        1.0  0.19090  0.14480  0.84730  1.0000 -0.5590811366
O   O9        1.0  0.14480  0.84730  0.19090  1.0000 -0.5590811366
O   O10       1.0  0.15270  0.85520  0.80910  1.0000 -0.5590811366
O   O11       1.0  0.85520  0.80910  0.15270  1.0000 -0.5590811366
O   O12       1.0  0.80910  0.15270  0.85520  1.0000 -0.5590811366
O   O13       1.0  0.92055  0.50000  0.07945  1.0000 -0.1032864545
O   O14       1.0  0.50000  0.07945  0.92055  1.0000 -0.1032864545
O   O15       1.0  0.07945  0.92055  0.50000  1.0000 -0.1032864545
O   O16       1.0  0.00000  0.00000  0.00000  1.0000 -1.0916795377
