# DDEC6 charges by PACMAN v1.1 (https://github.com/mtap-research/PACMAN-charge/)
data_2016[Mn][tfz]3[ASR]1
_chemical_formula_sum              "Mn5 H110 C162 N8 O26"
_cell_length_a       13.0203
_cell_length_b       19.776
_cell_length_c       20.8274
_cell_angle_alpha    61.932
_cell_angle_beta     73.268
_cell_angle_gamma    80.162

_symmetry_space_group_name_H-M    "P 1"
_symmetry_Int_Tables_number       1

loop_
  _symmetry_equiv_pos_as_xyz
  'x, y, z'

loop_
  _atom_site_type_symbol
  _atom_site_label
  _atom_site_symmetry_multiplicity
  _atom_site_fract_x
  _atom_site_fract_y
  _atom_site_fract_z
  _atom_site_occupancy
  _atom_site_charge
Mn  Mn1       1.0  0.91545  0.79765  0.09958  1.0000 1.0756862069
Mn  Mn2       1.0  0.70661  0.70194  0.09620  1.0000 0.9913029576
Mn  Mn3       1.0  0.08455  0.20235  0.90042  1.0000 1.0756862069
Mn  Mn4       1.0  0.29339  0.29806  0.90380  1.0000 0.9913029576
Mn  Mn5       1.0  0.00000  0.00000  0.00000  1.0000 1.0430946256
H   H1        1.0  0.29570  0.54240  0.35620  1.0000 0.3529629613
H   H2        1.0  0.14290  0.72990  0.96260  1.0000 0.1301507743
H   H3        1.0  0.33550  0.91380  0.74450  1.0000 0.1111173876
H   H4        1.0  0.52740  0.82130  0.58180  1.0000 0.1200090692
H   H5        1.0  0.95160  0.88010  0.90850  1.0000 0.1111173876
H   H6        1.0  0.19960  0.73540  0.74010  1.0000 0.1111173876
H   H7        1.0  0.25800  0.93980  0.84540  1.0000 0.1111173876
H   H8        1.0  0.90920  0.73050  0.84150  1.0000 0.1200090692
H   H9        1.0  0.21740  0.70500  0.86210  1.0000 0.1200090692
H   H10       1.0  0.46600  0.84260  0.68600  1.0000 0.1111173876
H   H11       1.0  0.23630  0.34280  0.27020  1.0000 0.1200090692
H   H12       1.0  0.04640  0.58780  0.35160  1.0000 0.1200090692
H   H13       1.0  0.07690  0.58350  0.53900  1.0000 0.1200090692
H   H14       1.0  0.73210  0.86740  0.22920  1.0000 0.1301507743
H   H15       1.0  0.06840  0.57750  0.22680  1.0000 0.1200090692
H   H16       1.0  0.64680  0.94360  0.28590  1.0000 0.1200090692
H   H17       1.0  0.31540  0.22360  0.32780  1.0000 0.1200090692
H   H18       1.0  0.14930  0.45980  0.28530  1.0000 0.1200090692
H   H19       1.0  0.51590  0.95370  0.39250  1.0000 0.1111173876
H   H20       1.0  0.86940  0.63010  0.37540  1.0000 0.1301507743
H   H21       1.0  0.54910  0.65270  0.62240  1.0000 0.1200090692
H   H22       1.0  0.14780  0.97000  0.49100  1.0000 0.1200090692
H   H23       1.0  0.03860  0.95740  0.78860  1.0000 0.1111173876
H   H24       1.0  0.74390  0.73500  0.37830  1.0000 0.1200090692
H   H25       1.0  0.40850  0.01480  0.46010  1.0000 0.1200090692
H   H26       1.0  0.30260  0.86890  0.49290  1.0000 0.1111173876
H   H27       1.0  0.72370  0.60920  0.59670  1.0000 0.1111173876
H   H28       1.0  0.12280  0.96630  0.18210  1.0000 0.1111173876
H   H29       1.0  0.25950  0.71400  0.63750  1.0000 0.1200090692
H   H30       1.0  0.18470  0.90130  0.41930  1.0000 0.1111173876
H   H31       1.0  0.03550  0.14890  0.47160  1.0000 0.1200090692
H   H32       1.0  0.06720  0.88680  0.61080  1.0000 0.1111173876
H   H33       1.0  0.95490  0.26760  0.41180  1.0000 0.1111173876
H   H34       1.0  0.99180  0.81110  0.72040  1.0000 0.1111173876
H   H35       1.0  0.57100  0.78290  0.40350  1.0000 0.1200090692
H   H36       1.0  0.20070  0.93900  0.27780  1.0000 0.1111173876
H   H37       1.0  0.22950  0.10990  0.31060  1.0000 0.1200090692
H   H38       1.0  0.90060  0.36000  0.29530  1.0000 0.1111173876
H   H39       1.0  0.34020  0.05030  0.24120  1.0000 0.1200090692
H   H40       1.0  0.26580  0.70900  0.39950  1.0000 0.1200090692
H   H41       1.0  0.82180  0.47810  0.23460  1.0000 0.1200090692
H   H42       1.0  0.90310  0.62710  0.56090  1.0000 0.1111173876
H   H43       1.0  0.97250  0.77220  0.30480  1.0000 0.1200090692
H   H44       1.0  0.05550  0.74180  0.39870  1.0000 0.1111173876
H   H45       1.0  0.38910  0.67450  0.47210  1.0000 0.1387972439
H   H46       1.0  0.45870  0.84830  0.19300  1.0000 0.1200090692
H   H47       1.0  0.37500  0.93070  0.24500  1.0000 0.1015414625
H   H48       1.0  0.66040  0.06970  0.91750  1.0000 0.1200090692
H   H49       1.0  0.57890  0.03960  0.99700  1.0000 0.1015414625
H   H50       1.0  0.11620  0.02700  0.68370  1.0000 0.1111173876
H   H51       1.0  0.57960  0.92240  0.00430  1.0000 0.1015414625
H   H52       1.0  0.62840  0.96190  0.91670  1.0000 0.1111173876
H   H53       1.0  0.20370  0.10750  0.56470  1.0000 0.1301507743
H   H54       1.0  0.74680  0.03690  0.02110  1.0000 0.3002341295
H   H55       1.0  0.76590  0.87770  0.96670  1.0000 0.2745966817
H   H56       1.0  0.70430  0.45760  0.64380  1.0000 0.3529629613
H   H57       1.0  0.85710  0.27010  0.03740  1.0000 0.1301507743
H   H58       1.0  0.66450  0.08620  0.25550  1.0000 0.1111173876
H   H59       1.0  0.47260  0.17870  0.41820  1.0000 0.1200090692
H   H60       1.0  0.04840  0.11990  0.09150  1.0000 0.1111173876
H   H61       1.0  0.80040  0.26460  0.25990  1.0000 0.1111173876
H   H62       1.0  0.74200  0.06020  0.15460  1.0000 0.1111173876
H   H63       1.0  0.09080  0.26950  0.15850  1.0000 0.1200090692
H   H64       1.0  0.78260  0.29500  0.13790  1.0000 0.1200090692
H   H65       1.0  0.53400  0.15740  0.31400  1.0000 0.1111173876
H   H66       1.0  0.76370  0.65720  0.72980  1.0000 0.1200090692
H   H67       1.0  0.95360  0.41220  0.64840  1.0000 0.1200090692
H   H68       1.0  0.92310  0.41650  0.46100  1.0000 0.1200090692
H   H69       1.0  0.26790  0.13260  0.77080  1.0000 0.1301507743
H   H70       1.0  0.93160  0.42250  0.77320  1.0000 0.1200090692
H   H71       1.0  0.35320  0.05640  0.71410  1.0000 0.1200090692
H   H72       1.0  0.68460  0.77640  0.67220  1.0000 0.1200090692
H   H73       1.0  0.85070  0.54020  0.71470  1.0000 0.1200090692
H   H74       1.0  0.48410  0.04630  0.60750  1.0000 0.1111173876
H   H75       1.0  0.13060  0.36990  0.62460  1.0000 0.1301507743
H   H76       1.0  0.45090  0.34730  0.37760  1.0000 0.1200090692
H   H77       1.0  0.85220  0.03000  0.50900  1.0000 0.1200090692
H   H78       1.0  0.96140  0.04260  0.21140  1.0000 0.1111173876
H   H79       1.0  0.25610  0.26500  0.62170  1.0000 0.1200090692
H   H80       1.0  0.59150  0.98520  0.53990  1.0000 0.1200090692
H   H81       1.0  0.69740  0.13110  0.50710  1.0000 0.1111173876
H   H82       1.0  0.27630  0.39080  0.40330  1.0000 0.1111173876
H   H83       1.0  0.87720  0.03370  0.81790  1.0000 0.1111173876
H   H84       1.0  0.74050  0.28600  0.36250  1.0000 0.1200090692
H   H85       1.0  0.81530  0.09870  0.58070  1.0000 0.1111173876
H   H86       1.0  0.96450  0.85110  0.52840  1.0000 0.1200090692
H   H87       1.0  0.93280  0.11320  0.38920  1.0000 0.1111173876
H   H88       1.0  0.04510  0.73240  0.58820  1.0000 0.1111173876
H   H89       1.0  0.00820  0.18890  0.27960  1.0000 0.1111173876
H   H90       1.0  0.42900  0.21710  0.59650  1.0000 0.1200090692
H   H91       1.0  0.79930  0.06100  0.72220  1.0000 0.1111173876
H   H92       1.0  0.77050  0.89010  0.68940  1.0000 0.1200090692
H   H93       1.0  0.09940  0.64000  0.70470  1.0000 0.1111173876
H   H94       1.0  0.65980  0.94970  0.75880  1.0000 0.1200090692
H   H95       1.0  0.73420  0.29100  0.60050  1.0000 0.1200090692
H   H96       1.0  0.17820  0.52190  0.76540  1.0000 0.1200090692
H   H97       1.0  0.09690  0.37290  0.43910  1.0000 0.1111173876
H   H98       1.0  0.02750  0.22780  0.69520  1.0000 0.1200090692
H   H99       1.0  0.94450  0.25820  0.60130  1.0000 0.1111173876
H   H100      1.0  0.61090  0.32550  0.52790  1.0000 0.1387972439
H   H101      1.0  0.54130  0.15170  0.80700  1.0000 0.1200090692
H   H102      1.0  0.62500  0.06930  0.75500  1.0000 0.1015414625
H   H103      1.0  0.33960  0.93030  0.08250  1.0000 0.1200090692
H   H104      1.0  0.42110  0.96040  0.00300  1.0000 0.1015414625
H   H105      1.0  0.88380  0.97300  0.31630  1.0000 0.1111173876
H   H106      1.0  0.42040  0.07760  0.99570  1.0000 0.1015414625
H   H107      1.0  0.37160  0.03810  0.08330  1.0000 0.1111173876
H   H108      1.0  0.79630  0.89250  0.43530  1.0000 0.1301507743
H   H109      1.0  0.25320  0.96310  0.97890  1.0000 0.3002341295
H   H110      1.0  0.23410  0.12230  0.03330  1.0000 0.2745966817
C   C1        1.0  0.12270  0.85860  0.97440  1.0000 0.5798418427
C   C2        1.0  0.60440  0.84970  0.20540  1.0000 -0.0236915221
C   C3        1.0  0.18880  0.83830  0.91360  1.0000 -0.0400020687
C   C4        1.0  0.08590  0.31910  0.33420  1.0000 0.0487714831
C   C5        1.0  0.03470  0.39580  0.29630  1.0000 0.0716957773
C   C6        1.0  0.36160  0.76980  0.48930  1.0000 0.1716452693
C   C7        1.0  0.18010  0.76780  0.91810  1.0000 -0.0903979013
C   C8        1.0  0.08010  0.94670  0.66220  1.0000 0.0716957773
C   C9        1.0  0.18380  0.17300  0.40500  1.0000 0.1716452693
C   C10       1.0  0.32500  0.79190  0.72470  1.0000 0.0608426797
C   C11       1.0  0.93770  0.54100  0.22230  1.0000 -0.0284289738
C   C12       1.0  0.29530  0.87680  0.78800  1.0000 -0.1520854687
C   C13       1.0  0.54140  0.72320  0.51580  1.0000 0.1716452693
C   C14       1.0  0.46110  0.80370  0.61390  1.0000 -0.1705452994
C   C15       1.0  0.86630  0.63540  0.47010  1.0000 0.0716957773
C   C16       1.0  0.88930  0.61890  0.17960  1.0000 0.6003161574
C   C17       1.0  0.96030  0.86500  0.87110  1.0000 -0.100282301
C   C18       1.0  0.28330  0.80720  0.79090  1.0000 0.0716957773
C   C19       1.0  0.21490  0.80950  0.39940  1.0000 0.0487714831
C   C20       1.0  0.92220  0.79630  0.88880  1.0000 -0.0284289738
C   C21       1.0  0.39940  0.76450  0.59920  1.0000 0.1593926156
C   C22       1.0  0.26600  0.75310  0.70820  1.0000 -0.1320056652
C   C23       1.0  0.24880  0.89260  0.84860  1.0000 -0.100282301
C   C24       1.0  0.00280  0.88140  0.16630  1.0000 0.5877212489
C   C25       1.0  0.07930  0.58080  0.44330  1.0000 -0.0400020687
C   C26       1.0  0.93460  0.77660  0.83120  1.0000 -0.100282301
C   C27       1.0  0.22540  0.75280  0.85800  1.0000 -0.1399831428
C   C28       1.0  0.14680  0.83260  0.34540  1.0000 0.0763005743
C   C29       1.0  0.02440  0.89460  0.74010  1.0000 0.0716957773
C   C30       1.0  0.42390  0.81670  0.67620  1.0000 -0.1320056652
C   C31       1.0  0.75360  0.66620  0.48460  1.0000 0.0608426797
C   C32       1.0  0.18450  0.04770  0.51490  1.0000 0.1593926156
C   C33       1.0  0.19460  0.30390  0.31040  1.0000 -0.1320056652
C   C34       1.0  0.78810  0.94730  0.00260  1.0000 0.5877212489
C   C35       1.0  0.01720  0.59540  0.39420  1.0000 -0.100282301
C   C36       1.0  0.03560  0.59310  0.50560  1.0000 -0.100282301
C   C37       1.0  0.65900  0.87900  0.23300  1.0000 -0.100282301
C   C38       1.0  0.03460  0.53360  0.23950  1.0000 -0.0903979013
C   C39       1.0  0.19650  0.55560  0.42830  1.0000 0.5327097083
C   C40       1.0  0.60770  0.92560  0.26650  1.0000 -0.1589697206
C   C41       1.0  0.24250  0.23200  0.34520  1.0000 -0.1801075223
C   C42       1.0  0.86490  0.74600  0.96800  1.0000 0.570697909
C   C43       1.0  0.08320  0.46270  0.27520  1.0000 -0.1520854687
C   C44       1.0  0.45770  0.98460  0.37560  1.0000 -0.1399831428
C   C45       1.0  0.91120  0.62160  0.40820  1.0000 -0.1320056652
C   C46       1.0  0.65810  0.79770  0.17060  1.0000 0.570697909
C   C47       1.0  0.30590  0.06710  0.39380  1.0000 0.1593926156
C   C48       1.0  0.04600  0.86790  0.23090  1.0000 -0.0284289738
C   C49       1.0  0.58840  0.67040  0.57290  1.0000 -0.1801075223
C   C50       1.0  0.14280  0.98190  0.53010  1.0000 -0.1801075223
C   C51       1.0  0.50060  0.94600  0.27190  1.0000 0.0763005743
C   C52       1.0  0.01160  0.91200  0.79840  1.0000 -0.1399831428
C   C53       1.0  0.70530  0.71860  0.42790  1.0000 -0.1194353248
C   C54       1.0  0.39280  0.02130  0.41670  1.0000 -0.1801075223
C   C55       1.0  0.29740  0.83640  0.47320  1.0000 -0.1801075223
C   C56       1.0  0.69310  0.64350  0.55730  1.0000 -0.1320056652
C   C57       1.0  0.11120  0.91970  0.22490  1.0000 -0.1194353248
C   C58       1.0  0.30190  0.74000  0.64700  1.0000 -0.1705452994
C   C59       1.0  0.22610  0.85590  0.42910  1.0000 -0.1399831428
C   C60       1.0  0.07630  0.18760  0.43020  1.0000 -0.1801075223
C   C61       1.0  0.43870  0.99250  0.31070  1.0000 0.0487714831
C   C62       1.0  0.09280  0.93190  0.60260  1.0000 -0.1399831428
C   C63       1.0  0.02800  0.25950  0.39450  1.0000 -0.1399831428
C   C64       1.0  0.98470  0.82530  0.75820  1.0000 -0.1589697206
C   C65       1.0  0.60090  0.74730  0.44280  1.0000 -0.1801075223
C   C66       1.0  0.15910  0.90270  0.28190  1.0000 -0.1589697206
C   C67       1.0  0.28690  0.07800  0.32770  1.0000 -0.1801075223
C   C68       1.0  0.93610  0.40380  0.28080  1.0000 -0.1589697206
C   C69       1.0  0.35340  0.04150  0.28610  1.0000 -0.1399831428
C   C70       1.0  0.27480  0.74220  0.41740  1.0000 -0.1194353248
C   C71       1.0  0.88830  0.47500  0.24430  1.0000 -0.0903979013
C   C72       1.0  0.93150  0.61950  0.51830  1.0000 -0.1520854687
C   C73       1.0  0.02340  0.80460  0.29720  1.0000 -0.100282301
C   C74       1.0  0.07290  0.78620  0.35410  1.0000 -0.1399831428
C   C75       1.0  0.34910  0.72050  0.46150  1.0000 -0.1705452994
C   C76       1.0  0.49800  0.86810  0.21070  1.0000 -0.1120441763
C   C77       1.0  0.44740  0.91730  0.24310  1.0000 -0.1589697206
C   C78       1.0  0.64480  0.02740  0.96740  1.0000 -0.0903979013
C   C79       1.0  0.12270  0.01410  0.64520  1.0000 -0.1399831428
C   C80       1.0  0.63790  0.95250  0.96480  1.0000 -0.0903979013
C   C81       1.0  0.17500  0.06330  0.57310  1.0000 -0.1705452994
C   C82       1.0  0.87730  0.14140  0.02560  1.0000 0.5798418427
C   C83       1.0  0.39560  0.15030  0.79460  1.0000 -0.0236915221
C   C84       1.0  0.81120  0.16170  0.08640  1.0000 -0.0400020687
C   C85       1.0  0.91410  0.68090  0.66580  1.0000 0.0487714831
C   C86       1.0  0.96530  0.60420  0.70370  1.0000 0.0716957773
C   C87       1.0  0.63840  0.23020  0.51070  1.0000 0.1716452693
C   C88       1.0  0.81990  0.23220  0.08190  1.0000 -0.0903979013
C   C89       1.0  0.91990  0.05330  0.33780  1.0000 0.0716957773
C   C90       1.0  0.81620  0.82700  0.59500  1.0000 0.1716452693
C   C91       1.0  0.67500  0.20810  0.27530  1.0000 0.0608426797
C   C92       1.0  0.06230  0.45900  0.77770  1.0000 -0.0284289738
C   C93       1.0  0.70470  0.12320  0.21200  1.0000 -0.1520854687
C   C94       1.0  0.45860  0.27680  0.48420  1.0000 0.1716452693
C   C95       1.0  0.53890  0.19630  0.38610  1.0000 -0.1705452994
C   C96       1.0  0.13370  0.36460  0.52990  1.0000 0.0716957773
C   C97       1.0  0.11070  0.38110  0.82040  1.0000 0.6003161574
C   C98       1.0  0.03970  0.13500  0.12890  1.0000 -0.100282301
C   C99       1.0  0.71670  0.19280  0.20910  1.0000 0.0716957773
C   C100      1.0  0.78510  0.19050  0.60060  1.0000 0.0487714831
C   C101      1.0  0.07780  0.20370  0.11120  1.0000 -0.0284289738
C   C102      1.0  0.60060  0.23550  0.40080  1.0000 0.1593926156
C   C103      1.0  0.73400  0.24690  0.29180  1.0000 -0.1320056652
C   C104      1.0  0.75120  0.10740  0.15140  1.0000 -0.100282301
C   C105      1.0  0.99720  0.11860  0.83370  1.0000 0.5877212489
C   C106      1.0  0.92070  0.41920  0.55670  1.0000 -0.0400020687
C   C107      1.0  0.06540  0.22340  0.16880  1.0000 -0.100282301
C   C108      1.0  0.77460  0.24720  0.14200  1.0000 -0.1399831428
C   C109      1.0  0.85320  0.16740  0.65460  1.0000 0.0763005743
C   C110      1.0  0.97560  0.10540  0.25990  1.0000 0.0716957773
C   C111      1.0  0.57610  0.18330  0.32380  1.0000 -0.1320056652
C   C112      1.0  0.24640  0.33380  0.51540  1.0000 0.0608426797
C   C113      1.0  0.81550  0.95230  0.48510  1.0000 0.1593926156
C   C114      1.0  0.80540  0.69610  0.68960  1.0000 -0.1320056652
C   C115      1.0  0.21190  0.05270  0.99740  1.0000 0.5877212489
C   C116      1.0  0.98280  0.40460  0.60580  1.0000 -0.100282301
C   C117      1.0  0.96440  0.40690  0.49440  1.0000 -0.100282301
C   C118      1.0  0.34100  0.12100  0.76700  1.0000 -0.100282301
C   C119      1.0  0.96540  0.46640  0.76050  1.0000 -0.100282301
C   C120      1.0  0.80350  0.44440  0.57170  1.0000 0.5327097083
C   C121      1.0  0.39230  0.07440  0.73350  1.0000 -0.1589697206
C   C122      1.0  0.75750  0.76800  0.65480  1.0000 -0.1801075223
C   C123      1.0  0.13510  0.25400  0.03200  1.0000 0.570697909
C   C124      1.0  0.91680  0.53730  0.72480  1.0000 -0.1589697206
C   C125      1.0  0.54230  0.01540  0.62440  1.0000 -0.1399831428
C   C126      1.0  0.08880  0.37840  0.59180  1.0000 -0.1320056652
C   C127      1.0  0.34190  0.20230  0.82940  1.0000 0.570697909
C   C128      1.0  0.69410  0.93290  0.60620  1.0000 0.1593926156
C   C129      1.0  0.95400  0.13210  0.76910  1.0000 -0.0284289738
C   C130      1.0  0.41160  0.32960  0.42710  1.0000 -0.1801075223
C   C131      1.0  0.85720  0.01810  0.46990  1.0000 -0.1801075223
C   C132      1.0  0.49940  0.05400  0.72810  1.0000 0.0763005743
C   C133      1.0  0.98840  0.08800  0.20160  1.0000 -0.1399831428
C   C134      1.0  0.29470  0.28140  0.57210  1.0000 -0.1194353248
C   C135      1.0  0.60720  0.97870  0.58330  1.0000 -0.1801075223
C   C136      1.0  0.70260  0.16360  0.52680  1.0000 -0.1801075223
C   C137      1.0  0.30690  0.35650  0.44270  1.0000 -0.1320056652
C   C138      1.0  0.88880  0.08030  0.77510  1.0000 -0.1194353248
C   C139      1.0  0.69810  0.26000  0.35300  1.0000 -0.1705452994
C   C140      1.0  0.77390  0.14410  0.57090  1.0000 -0.1399831428
C   C141      1.0  0.92370  0.81240  0.56980  1.0000 -0.1801075223
C   C142      1.0  0.56130  0.00750  0.68930  1.0000 0.0487714831
C   C143      1.0  0.90720  0.06810  0.39740  1.0000 -0.1399831428
C   C144      1.0  0.97200  0.74050  0.60550  1.0000 -0.1399831428
C   C145      1.0  0.01530  0.17470  0.24180  1.0000 -0.1589697206
C   C146      1.0  0.39910  0.25270  0.55720  1.0000 -0.1801075223
C   C147      1.0  0.84090  0.09730  0.71810  1.0000 -0.1589697206
C   C148      1.0  0.71310  0.92200  0.67230  1.0000 -0.1801075223
C   C149      1.0  0.06390  0.59620  0.71920  1.0000 -0.1589697206
C   C150      1.0  0.64660  0.95850  0.71390  1.0000 -0.1399831428
C   C151      1.0  0.72520  0.25780  0.58260  1.0000 -0.1194353248
C   C152      1.0  0.11170  0.52500  0.75570  1.0000 -0.0903979013
C   C153      1.0  0.06850  0.38050  0.48170  1.0000 -0.1520854687
C   C154      1.0  0.97660  0.19540  0.70280  1.0000 -0.100282301
C   C155      1.0  0.92710  0.21380  0.64590  1.0000 -0.1399831428
C   C156      1.0  0.65090  0.27950  0.53850  1.0000 -0.1705452994
C   C157      1.0  0.50200  0.13190  0.78930  1.0000 -0.1120441763
C   C158      1.0  0.55260  0.08270  0.75690  1.0000 -0.1589697206
C   C159      1.0  0.35520  0.97260  0.03260  1.0000 -0.0903979013
C   C160      1.0  0.87730  0.98590  0.35480  1.0000 -0.1399831428
C   C161      1.0  0.36210  0.04750  0.03520  1.0000 -0.0903979013
C   C162      1.0  0.82500  0.93670  0.42690  1.0000 -0.1705452994
N   N1        1.0  0.73240  0.01000  0.00250  1.0000 -0.347986648
N   N2        1.0  0.73920  0.91590  0.97610  1.0000 -0.3607714867
N   N3        1.0  0.23470  0.09970  0.43990  1.0000 -0.2023269778
N   N4        1.0  0.43590  0.75180  0.53410  1.0000 -0.1801075223
N   N5        1.0  0.26760  0.99000  0.99750  1.0000 -0.347986648
N   N6        1.0  0.26080  0.08410  0.02390  1.0000 -0.3607714867
N   N7        1.0  0.76530  0.90030  0.56010  1.0000 -0.2023269778
N   N8        1.0  0.56410  0.24820  0.46590  1.0000 -0.1705452994
O   O1        1.0  0.87350  0.92184  0.02433  1.0000 -0.5957003926
O   O2        1.0  0.94190  0.67580  0.15728  1.0000 -0.5398351744
O   O3        1.0  0.12120  0.92579  0.96478  1.0000 -0.5679799711
O   O4        1.0  0.07000  0.80542  0.03162  1.0000 -0.5617374574
O   O5        1.0  0.84520  0.77133  0.01639  1.0000 -0.6155409907
O   O6        1.0  0.02000  0.94480  0.11012  1.0000 -0.5617374574
O   O7        1.0  0.79770  0.62015  0.16900  1.0000 -0.5679799711
O   O8        1.0  0.95750  0.82730  0.17248  1.0000 -0.5526912307
O   O9        1.0  0.75730  0.78800  0.16150  1.0000 -0.5679799711
O   O10       1.0  0.83450  0.68230  0.98387  1.0000 -0.5398351744
O   O11       1.0  0.23020  0.54860  0.36560  1.0000 -0.468992809
O   O12       1.0  0.25370  0.54480  0.46890  1.0000 -0.5035191273
O   O13       1.0  0.60580  0.76450  0.15360  1.0000 -0.5398351744
O   O14       1.0  0.12650  0.07816  0.97567  1.0000 -0.5957003926
O   O15       1.0  0.05810  0.32420  0.84272  1.0000 -0.5398351744
O   O16       1.0  0.87880  0.07421  0.03522  1.0000 -0.5679799711
O   O17       1.0  0.93000  0.19458  0.96838  1.0000 -0.5617374574
O   O18       1.0  0.15480  0.22867  0.98361  1.0000 -0.6142166351
O   O19       1.0  0.98000  0.05520  0.88988  1.0000 -0.5617374574
O   O20       1.0  0.20230  0.37985  0.83100  1.0000 -0.5679799711
O   O21       1.0  0.04250  0.17270  0.82752  1.0000 -0.5526912307
O   O22       1.0  0.24270  0.21200  0.83850  1.0000 -0.5679799711
O   O23       1.0  0.16550  0.31770  0.01613  1.0000 -0.5398351744
O   O24       1.0  0.76980  0.45140  0.63440  1.0000 -0.468992809
O   O25       1.0  0.74630  0.45520  0.53110  1.0000 -0.5035191273
O   O26       1.0  0.39420  0.23550  0.84640  1.0000 -0.5398351744
