# DDEC6 charges by PACMAN v1.1 (https://github.com/mtap-research/PACMAN-charge/)
data_2016[Zn][vbk]3[ASR]1
_chemical_formula_sum              "Zn8 H36 C92 O40"
_cell_length_a       16.1475
_cell_length_b       12.516
_cell_length_c       19.8687
_cell_angle_alpha    90
_cell_angle_beta     93.321
_cell_angle_gamma    90

_symmetry_space_group_name_H-M    "P 1"
_symmetry_Int_Tables_number       1

loop_
  _symmetry_equiv_pos_as_xyz
  'x, y, z'

loop_
  _atom_site_type_symbol
  _atom_site_label
  _atom_site_symmetry_multiplicity
  _atom_site_fract_x
  _atom_site_fract_y
  _atom_site_fract_z
  _atom_site_occupancy
  _atom_site_charge
Zn  Zn1       1.0  0.85675  0.43524  0.78969  1.0000 0.9637471144
Zn  Zn2       1.0  0.14325  0.93524  0.71031  1.0000 0.9637471144
Zn  Zn3       1.0  0.14325  0.56476  0.21031  1.0000 0.9637471144
Zn  Zn4       1.0  0.85675  0.06476  0.28969  1.0000 0.9637471144
Zn  Zn5       1.0  0.33419  0.87416  0.65396  1.0000 0.9310144637
Zn  Zn6       1.0  0.66581  0.37416  0.84604  1.0000 0.9310144637
Zn  Zn7       1.0  0.66581  0.12584  0.34604  1.0000 0.9310144637
Zn  Zn8       1.0  0.33419  0.62584  0.15396  1.0000 0.9310144637
H   H1        1.0  0.17370  0.22990  0.64010  1.0000 0.1400348418
H   H2        1.0  0.82630  0.72990  0.85990  1.0000 0.1400348418
H   H3        1.0  0.82630  0.77010  0.35990  1.0000 0.1400348418
H   H4        1.0  0.17370  0.27010  0.14010  1.0000 0.1400348418
H   H5        1.0  0.25470  0.43940  0.50810  1.0000 0.1236681719
H   H6        1.0  0.74530  0.93940  0.99190  1.0000 0.1282494384
H   H7        1.0  0.74530  0.56060  0.49190  1.0000 0.1236681719
H   H8        1.0  0.25470  0.06060  0.00810  1.0000 0.1236681719
H   H9        1.0  0.31850  0.13160  0.49610  1.0000 0.1282494384
H   H10       1.0  0.68150  0.63160  0.00390  1.0000 0.1282494384
H   H11       1.0  0.68150  0.86840  0.50390  1.0000 0.1282494384
H   H12       1.0  0.31850  0.36840  0.99610  1.0000 0.1282494384
H   H13       1.0  0.07410  0.64930  0.72070  1.0000 0.1453514997
H   H14       1.0  0.92590  0.14930  0.77930  1.0000 0.1453514997
H   H15       1.0  0.92590  0.35070  0.27930  1.0000 0.1453514997
H   H16       1.0  0.07410  0.85070  0.22070  1.0000 0.1453514997
H   H17       1.0  0.25140  0.55200  0.60060  1.0000 0.1282494384
H   H18       1.0  0.74860  0.05200  0.89940  1.0000 0.1282494384
H   H19       1.0  0.74860  0.44800  0.39940  1.0000 0.1282494384
H   H20       1.0  0.25140  0.94800  0.10060  1.0000 0.1282494384
H   H21       1.0  0.07020  0.35130  0.64740  1.0000 0.1282494384
H   H22       1.0  0.92980  0.85130  0.85260  1.0000 0.1282494384
H   H23       1.0  0.92980  0.64870  0.35260  1.0000 0.1282494384
H   H24       1.0  0.07020  0.14870  0.14740  1.0000 0.1282494384
H   H25       1.0  0.44500  0.38620  0.27530  1.0000 0.1400348418
H   H26       1.0  0.55500  0.88620  0.22470  1.0000 0.1400348418
H   H27       1.0  0.55500  0.61380  0.72470  1.0000 0.1400348418
H   H28       1.0  0.44500  0.11380  0.77530  1.0000 0.1400348418
H   H29       1.0  0.43220  0.21300  0.44350  1.0000 0.1282494384
H   H30       1.0  0.56780  0.71300  0.05650  1.0000 0.1282494384
H   H31       1.0  0.56780  0.78700  0.55650  1.0000 0.1282494384
H   H32       1.0  0.43220  0.28700  0.94350  1.0000 0.1282494384
H   H33       1.0  0.25390  0.42340  0.39210  1.0000 0.1282494384
H   H34       1.0  0.74610  0.92340  0.10790  1.0000 0.1282494384
H   H35       1.0  0.74610  0.57660  0.60790  1.0000 0.1282494384
H   H36       1.0  0.25390  0.07660  0.89210  1.0000 0.1282494384
C   C1        1.0  0.24480  0.05460  0.60324  1.0000 0.5991080705
C   C2        1.0  0.75520  0.55460  0.89676  1.0000 0.5991080705
C   C3        1.0  0.75520  0.94540  0.39676  1.0000 0.5991080705
C   C4        1.0  0.24480  0.44540  0.10324  1.0000 0.5991080705
C   C5        1.0  0.24560  0.16350  0.57329  1.0000 -0.0167206689
C   C6        1.0  0.75440  0.66350  0.92671  1.0000 -0.0167206689
C   C7        1.0  0.75440  0.83650  0.42671  1.0000 -0.0167206689
C   C8        1.0  0.24560  0.33650  0.07329  1.0000 -0.0167206689
C   C9        1.0  0.20490  0.24530  0.60344  1.0000 -0.1319795485
C   C10       1.0  0.79510  0.74530  0.89656  1.0000 -0.1319795485
C   C11       1.0  0.79510  0.75470  0.39656  1.0000 -0.1319795485
C   C12       1.0  0.20490  0.25470  0.10344  1.0000 -0.1319795485
C   C13       1.0  0.20880  0.34910  0.58124  1.0000 0.0879678693
C   C14       1.0  0.79120  0.84910  0.91876  1.0000 0.0879678693
C   C15       1.0  0.79120  0.65090  0.41876  1.0000 0.0879678693
C   C16       1.0  0.20880  0.15090  0.08124  1.0000 0.0879678693
C   C17       1.0  0.25241  0.36980  0.52433  1.0000 -0.1844054382
C   C18       1.0  0.74759  0.86980  0.97567  1.0000 -0.1844054382
C   C19       1.0  0.74759  0.63020  0.47567  1.0000 -0.1844054382
C   C20       1.0  0.25241  0.13020  0.02433  1.0000 -0.1844054382
C   C21       1.0  0.29254  0.28920  0.49124  1.0000 0.080707014
C   C22       1.0  0.70746  0.78920  0.00876  1.0000 0.080707014
C   C23       1.0  0.70746  0.71080  0.50876  1.0000 0.080707014
C   C24       1.0  0.29254  0.21080  0.99124  1.0000 0.080707014
C   C25       1.0  0.29020  0.18610  0.51677  1.0000 -0.1448868658
C   C26       1.0  0.70980  0.68610  0.98323  1.0000 -0.1455957588
C   C27       1.0  0.70980  0.81390  0.48323  1.0000 -0.1448868658
C   C28       1.0  0.29020  0.31390  0.01677  1.0000 -0.1448868658
C   C29       1.0  0.98310  0.47310  0.72460  1.0000 0.5495487306
C   C30       1.0  0.01690  0.97310  0.77540  1.0000 0.5495487306
C   C31       1.0  0.01690  0.52690  0.27540  1.0000 0.5495487306
C   C32       1.0  0.98310  0.02690  0.22460  1.0000 0.5495487306
C   C33       1.0  0.20980  0.72630  0.66720  1.0000 0.5888627026
C   C34       1.0  0.79020  0.22630  0.83280  1.0000 0.5888627026
C   C35       1.0  0.79020  0.27370  0.33280  1.0000 0.5888627026
C   C36       1.0  0.20980  0.77370  0.16720  1.0000 0.5888627026
C   C37       1.0  0.05970  0.49800  0.68889  1.0000 -0.0024167903
C   C38       1.0  0.94030  0.99800  0.81111  1.0000 -0.0024167903
C   C39       1.0  0.94030  0.50200  0.31111  1.0000 -0.0024167903
C   C40       1.0  0.05970  0.00200  0.18889  1.0000 -0.0024167903
C   C41       1.0  0.09680  0.59660  0.69436  1.0000 -0.0914067725
C   C42       1.0  0.90320  0.09660  0.80564  1.0000 -0.0914067725
C   C43       1.0  0.90320  0.40340  0.30564  1.0000 -0.0914067725
C   C44       1.0  0.09680  0.90340  0.19436  1.0000 -0.0914067725
C   C45       1.0  0.16870  0.61800  0.66042  1.0000 -0.0024167903
C   C46       1.0  0.83130  0.11800  0.83958  1.0000 -0.0024167903
C   C47       1.0  0.83130  0.38200  0.33958  1.0000 -0.0024167903
C   C48       1.0  0.16870  0.88200  0.16042  1.0000 -0.0024167903
C   C49       1.0  0.20360  0.53790  0.62298  1.0000 -0.1319795485
C   C50       1.0  0.79640  0.03790  0.87702  1.0000 -0.1319795485
C   C51       1.0  0.79640  0.46210  0.37702  1.0000 -0.1319795485
C   C52       1.0  0.20360  0.96210  0.12298  1.0000 -0.1319795485
C   C53       1.0  0.16820  0.43740  0.61857  1.0000 0.0680557307
C   C54       1.0  0.83180  0.93740  0.88143  1.0000 0.0680557307
C   C55       1.0  0.83180  0.56260  0.38143  1.0000 0.0680557307
C   C56       1.0  0.16820  0.06260  0.11857  1.0000 0.0680557307
C   C57       1.0  0.09530  0.41810  0.65101  1.0000 -0.1319795485
C   C58       1.0  0.90470  0.91810  0.84899  1.0000 -0.1319795485
C   C59       1.0  0.90470  0.58190  0.34899  1.0000 -0.1319795485
C   C60       1.0  0.09530  0.08190  0.15101  1.0000 -0.1319795485
C   C61       1.0  0.30460  0.49580  0.27686  1.0000 0.6052361582
C   C62       1.0  0.69540  0.99580  0.22314  1.0000 0.6052361582
C   C63       1.0  0.69540  0.50420  0.72314  1.0000 0.6052361582
C   C64       1.0  0.30460  0.00420  0.77686  1.0000 0.6052361582
C   C65       1.0  0.53020  0.23530  0.34170  1.0000 0.5495487306
C   C66       1.0  0.46980  0.73530  0.15830  1.0000 0.5495487306
C   C67       1.0  0.46980  0.76470  0.65830  1.0000 0.5495487306
C   C68       1.0  0.53020  0.26470  0.84170  1.0000 0.5495487306
C   C69       1.0  0.34340  0.41730  0.32613  1.0000 -0.0136039041
C   C70       1.0  0.65660  0.91730  0.17387  1.0000 -0.0136039041
C   C71       1.0  0.65660  0.58270  0.67387  1.0000 -0.0136039041
C   C72       1.0  0.34340  0.08270  0.82613  1.0000 -0.0136039041
C   C73       1.0  0.41720  0.36740  0.31324  1.0000 -0.0914067725
C   C74       1.0  0.58280  0.86740  0.18676  1.0000 -0.0914067725
C   C75       1.0  0.58280  0.63260  0.68676  1.0000 -0.0914067725
C   C76       1.0  0.41720  0.13260  0.81324  1.0000 -0.0914067725
C   C77       1.0  0.44980  0.28970  0.35676  1.0000 -0.0024167903
C   C78       1.0  0.55020  0.78970  0.14324  1.0000 -0.0024167903
C   C79       1.0  0.55020  0.71030  0.64324  1.0000 -0.0024167903
C   C80       1.0  0.44980  0.21030  0.85676  1.0000 -0.0024167903
C   C81       1.0  0.40960  0.26450  0.41407  1.0000 -0.1319795485
C   C82       1.0  0.59040  0.76450  0.08593  1.0000 -0.1319795485
C   C83       1.0  0.59040  0.73550  0.58593  1.0000 -0.1319795485
C   C84       1.0  0.40960  0.23550  0.91407  1.0000 -0.1319795485
C   C85       1.0  0.33630  0.31440  0.42866  1.0000 0.0680557307
C   C86       1.0  0.66370  0.81440  0.07134  1.0000 0.0680557307
C   C87       1.0  0.66370  0.68560  0.57134  1.0000 0.0680557307
C   C88       1.0  0.33630  0.18560  0.92866  1.0000 0.0680557307
C   C89       1.0  0.30370  0.39010  0.38354  1.0000 -0.1319795485
C   C90       1.0  0.69630  0.89010  0.11646  1.0000 -0.1319795485
C   C91       1.0  0.69630  0.60990  0.61646  1.0000 -0.1319795485
C   C92       1.0  0.30370  0.10990  0.88354  1.0000 -0.1319795485
O   O1        1.0  0.29896  0.98826  0.58840  1.0000 -0.5187917944
O   O2        1.0  0.70104  0.48826  0.91160  1.0000 -0.5187917944
O   O3        1.0  0.70104  0.01174  0.41160  1.0000 -0.5187917944
O   O4        1.0  0.29896  0.51174  0.08840  1.0000 -0.5187917944
O   O5        1.0  0.18929  0.03650  0.64305  1.0000 -0.5559513565
O   O6        1.0  0.81071  0.53650  0.85695  1.0000 -0.5559513565
O   O7        1.0  0.81071  0.96350  0.35695  1.0000 -0.5559513565
O   O8        1.0  0.18929  0.46350  0.14305  1.0000 -0.5559513565
O   O9        1.0  0.94710  0.38620  0.71508  1.0000 -0.4845313635
O   O10       1.0  0.05290  0.88620  0.78492  1.0000 -0.4892526533
O   O11       1.0  0.05290  0.61380  0.28492  1.0000 -0.4845313635
O   O12       1.0  0.94710  0.11380  0.21508  1.0000 -0.4892526533
O   O13       1.0  0.95559  0.54020  0.76469  1.0000 -0.5071814106
O   O14       1.0  0.04441  0.04020  0.73531  1.0000 -0.5003506761
O   O15       1.0  0.04441  0.45980  0.23531  1.0000 -0.5003506761
O   O16       1.0  0.95559  0.95980  0.26469  1.0000 -0.5071814106
O   O17       1.0  0.26617  0.74781  0.63141  1.0000 -0.4845313635
O   O18       1.0  0.73383  0.24781  0.86859  1.0000 -0.4845313635
O   O19       1.0  0.73383  0.25219  0.36859  1.0000 -0.4845313635
O   O20       1.0  0.26617  0.75219  0.13141  1.0000 -0.4892526533
O   O21       1.0  0.18870  0.78630  0.71257  1.0000 -0.5187917944
O   O22       1.0  0.81130  0.28630  0.78743  1.0000 -0.5187917944
O   O23       1.0  0.81130  0.21370  0.28743  1.0000 -0.5187917944
O   O24       1.0  0.18870  0.71370  0.21257  1.0000 -0.5187917944
O   O25       1.0  0.35017  0.53470  0.23395  1.0000 -0.5340678837
O   O26       1.0  0.64983  0.03470  0.26605  1.0000 -0.5340678837
O   O27       1.0  0.64983  0.46530  0.76605  1.0000 -0.5340678837
O   O28       1.0  0.35017  0.96530  0.73395  1.0000 -0.5352512147
O   O29       1.0  0.22974  0.51700  0.28206  1.0000 -0.5071814106
O   O30       1.0  0.77026  0.01700  0.21794  1.0000 -0.5071814106
O   O31       1.0  0.77026  0.48300  0.71794  1.0000 -0.5071814106
O   O32       1.0  0.22974  0.98300  0.78206  1.0000 -0.5071814106
O   O33       1.0  0.55801  0.16500  0.38218  1.0000 -0.5003506761
O   O34       1.0  0.44199  0.66500  0.11782  1.0000 -0.4892526533
O   O35       1.0  0.44199  0.83500  0.61782  1.0000 -0.4892526533
O   O36       1.0  0.55801  0.33500  0.88218  1.0000 -0.5003506761
O   O37       1.0  0.56583  0.25990  0.29059  1.0000 -0.4696624871
O   O38       1.0  0.43417  0.75990  0.20941  1.0000 -0.4696624871
O   O39       1.0  0.43417  0.74010  0.70941  1.0000 -0.4649914052
O   O40       1.0  0.56583  0.24010  0.79059  1.0000 -0.4649914052
