# DDEC6 charges by PACMAN v1.1 (https://github.com/mtap-research/PACMAN-charge/)
data_2016[Zr][bcu]3[ASR]1
_chemical_formula_sum              "Zr12 H128 C144 O48"
_cell_length_a       24.218
_cell_length_b       24.218
_cell_length_c       15.359
_cell_angle_alpha    90
_cell_angle_beta     90
_cell_angle_gamma    90

_symmetry_space_group_name_H-M    "P 1"
_symmetry_Int_Tables_number       1

loop_
  _symmetry_equiv_pos_as_xyz
  'x, y, z'

loop_
  _atom_site_type_symbol
  _atom_site_label
  _atom_site_symmetry_multiplicity
  _atom_site_fract_x
  _atom_site_fract_y
  _atom_site_fract_z
  _atom_site_occupancy
  _atom_site_charge
Zr  Zr1       1.0  0.39854  0.00000  0.50000  1.0000 2.3730581074
Zr  Zr2       1.0  0.00000  0.60146  0.00000  1.0000 2.3730581074
Zr  Zr3       1.0  0.60146  0.00000  0.50000  1.0000 2.3730581074
Zr  Zr4       1.0  0.00000  0.39854  0.00000  1.0000 2.3730581074
Zr  Zr5       1.0  0.50000  0.92729  0.61488  1.0000 2.4685249596
Zr  Zr6       1.0  0.92729  0.50000  0.11488  1.0000 2.4618365436
Zr  Zr7       1.0  0.50000  0.07271  0.61488  1.0000 2.4685249596
Zr  Zr8       1.0  0.07271  0.50000  0.11488  1.0000 2.4618365436
Zr  Zr9       1.0  0.50000  0.92729  0.38512  1.0000 2.4685249596
Zr  Zr10      1.0  0.50000  0.07271  0.38512  1.0000 2.4685249596
Zr  Zr11      1.0  0.92729  0.50000  0.88512  1.0000 2.4618365436
Zr  Zr12      1.0  0.07271  0.50000  0.88512  1.0000 2.4618365436
H   H1        1.0  0.26340  0.10740  0.58840  1.0000 0.1296363337
H   H2        1.0  0.10740  0.73660  0.08840  1.0000 0.1296363337
H   H3        1.0  0.73660  0.89260  0.58840  1.0000 0.1296363337
H   H4        1.0  0.89260  0.26340  0.08840  1.0000 0.1296363337
H   H5        1.0  0.73660  0.10740  0.41160  1.0000 0.1296363337
H   H6        1.0  0.26340  0.89260  0.41160  1.0000 0.1296363337
H   H7        1.0  0.10740  0.26340  0.91160  1.0000 0.1296363337
H   H8        1.0  0.89260  0.73660  0.91160  1.0000 0.1296363337
H   H9        1.0  0.73660  0.89260  0.41160  1.0000 0.1296363337
H   H10       1.0  0.89260  0.26340  0.91160  1.0000 0.1296363337
H   H11       1.0  0.26340  0.10740  0.41160  1.0000 0.1296363337
H   H12       1.0  0.10740  0.73660  0.91160  1.0000 0.1296363337
H   H13       1.0  0.26340  0.89260  0.58840  1.0000 0.1296363337
H   H14       1.0  0.73660  0.10740  0.58840  1.0000 0.1296363337
H   H15       1.0  0.89260  0.73660  0.08840  1.0000 0.1296363337
H   H16       1.0  0.10740  0.26340  0.08840  1.0000 0.1296363337
H   H17       1.0  0.37350  0.16630  0.76430  1.0000 0.1296363337
H   H18       1.0  0.16630  0.62650  0.26430  1.0000 0.1296363337
H   H19       1.0  0.62650  0.83370  0.76430  1.0000 0.1296363337
H   H20       1.0  0.83370  0.37350  0.26430  1.0000 0.1296363337
H   H21       1.0  0.62650  0.16630  0.23570  1.0000 0.1296363337
H   H22       1.0  0.37350  0.83370  0.23570  1.0000 0.1296363337
H   H23       1.0  0.16630  0.37350  0.73570  1.0000 0.1296363337
H   H24       1.0  0.83370  0.62650  0.73570  1.0000 0.1296363337
H   H25       1.0  0.62650  0.83370  0.23570  1.0000 0.1296363337
H   H26       1.0  0.83370  0.37350  0.73570  1.0000 0.1296363337
H   H27       1.0  0.37350  0.16630  0.23570  1.0000 0.1296363337
H   H28       1.0  0.16630  0.62650  0.73570  1.0000 0.1296363337
H   H29       1.0  0.37350  0.83370  0.76430  1.0000 0.1296363337
H   H30       1.0  0.62650  0.16630  0.76430  1.0000 0.1296363337
H   H31       1.0  0.83370  0.62650  0.26430  1.0000 0.1296363337
H   H32       1.0  0.16630  0.37350  0.26430  1.0000 0.1296363337
H   H33       1.0  0.15220  0.14150  0.65550  1.0000 0.1396579246
H   H34       1.0  0.14150  0.84780  0.15550  1.0000 0.1396579246
H   H35       1.0  0.84780  0.85850  0.65550  1.0000 0.1396579246
H   H36       1.0  0.85850  0.15220  0.15550  1.0000 0.1396579246
H   H37       1.0  0.84780  0.14150  0.34450  1.0000 0.1396579246
H   H38       1.0  0.15220  0.85850  0.34450  1.0000 0.1396579246
H   H39       1.0  0.14150  0.15220  0.84450  1.0000 0.1396579246
H   H40       1.0  0.85850  0.84780  0.84450  1.0000 0.1396579246
H   H41       1.0  0.84780  0.85850  0.34450  1.0000 0.1396579246
H   H42       1.0  0.85850  0.15220  0.84450  1.0000 0.1396579246
H   H43       1.0  0.15220  0.14150  0.34450  1.0000 0.1396579246
H   H44       1.0  0.14150  0.84780  0.84450  1.0000 0.1396579246
H   H45       1.0  0.15220  0.85850  0.65550  1.0000 0.1396579246
H   H46       1.0  0.84780  0.14150  0.65550  1.0000 0.1396579246
H   H47       1.0  0.85850  0.84780  0.15550  1.0000 0.1396579246
H   H48       1.0  0.14150  0.15220  0.15550  1.0000 0.1396579246
H   H49       1.0  0.15880  0.20640  0.63900  1.0000 0.1296363337
H   H50       1.0  0.20640  0.84120  0.13900  1.0000 0.1296363337
H   H51       1.0  0.84120  0.79360  0.63900  1.0000 0.1296363337
H   H52       1.0  0.79360  0.15880  0.13900  1.0000 0.1296363337
H   H53       1.0  0.84120  0.20640  0.36100  1.0000 0.1296363337
H   H54       1.0  0.15880  0.79360  0.36100  1.0000 0.1296363337
H   H55       1.0  0.20640  0.15880  0.86100  1.0000 0.1296363337
H   H56       1.0  0.79360  0.84120  0.86100  1.0000 0.1296363337
H   H57       1.0  0.84120  0.79360  0.36100  1.0000 0.1296363337
H   H58       1.0  0.79360  0.15880  0.86100  1.0000 0.1296363337
H   H59       1.0  0.15880  0.20640  0.36100  1.0000 0.1296363337
H   H60       1.0  0.20640  0.84120  0.86100  1.0000 0.1296363337
H   H61       1.0  0.15880  0.79360  0.63900  1.0000 0.1296363337
H   H62       1.0  0.84120  0.20640  0.63900  1.0000 0.1296363337
H   H63       1.0  0.79360  0.84120  0.13900  1.0000 0.1296363337
H   H64       1.0  0.20640  0.15880  0.13900  1.0000 0.1296363337
H   H65       1.0  0.17700  0.16340  0.56530  1.0000 0.123207024
H   H66       1.0  0.16340  0.82300  0.06530  1.0000 0.123207024
H   H67       1.0  0.82300  0.83660  0.56530  1.0000 0.123207024
H   H68       1.0  0.83660  0.17700  0.06530  1.0000 0.123207024
H   H69       1.0  0.82300  0.16340  0.43470  1.0000 0.123207024
H   H70       1.0  0.17700  0.83660  0.43470  1.0000 0.123207024
H   H71       1.0  0.16340  0.17700  0.93470  1.0000 0.123207024
H   H72       1.0  0.83660  0.82300  0.93470  1.0000 0.123207024
H   H73       1.0  0.82300  0.83660  0.43470  1.0000 0.123207024
H   H74       1.0  0.83660  0.17700  0.93470  1.0000 0.123207024
H   H75       1.0  0.17700  0.16340  0.43470  1.0000 0.123207024
H   H76       1.0  0.16340  0.82300  0.93470  1.0000 0.123207024
H   H77       1.0  0.17700  0.83660  0.56530  1.0000 0.123207024
H   H78       1.0  0.82300  0.16340  0.56530  1.0000 0.123207024
H   H79       1.0  0.83660  0.82300  0.06530  1.0000 0.123207024
H   H80       1.0  0.16340  0.17700  0.06530  1.0000 0.123207024
H   H81       1.0  0.28060  0.23880  0.88900  1.0000 0.1296363337
H   H82       1.0  0.23880  0.71940  0.38900  1.0000 0.1296363337
H   H83       1.0  0.71940  0.76120  0.88900  1.0000 0.1296363337
H   H84       1.0  0.76120  0.28060  0.38900  1.0000 0.1296363337
H   H85       1.0  0.71940  0.23880  0.11100  1.0000 0.1296363337
H   H86       1.0  0.28060  0.76120  0.11100  1.0000 0.1296363337
H   H87       1.0  0.23880  0.28060  0.61100  1.0000 0.1296363337
H   H88       1.0  0.76120  0.71940  0.61100  1.0000 0.1296363337
H   H89       1.0  0.71940  0.76120  0.11100  1.0000 0.1296363337
H   H90       1.0  0.76120  0.28060  0.61100  1.0000 0.1296363337
H   H91       1.0  0.28060  0.23880  0.11100  1.0000 0.1296363337
H   H92       1.0  0.23880  0.71940  0.61100  1.0000 0.1296363337
H   H93       1.0  0.28060  0.76120  0.88900  1.0000 0.1296363337
H   H94       1.0  0.71940  0.23880  0.88900  1.0000 0.1296363337
H   H95       1.0  0.76120  0.71940  0.38900  1.0000 0.1296363337
H   H96       1.0  0.23880  0.28060  0.38900  1.0000 0.1296363337
H   H97       1.0  0.34540  0.23500  0.86950  1.0000 0.1296363337
H   H98       1.0  0.23500  0.65460  0.36950  1.0000 0.1296363337
H   H99       1.0  0.65460  0.76500  0.86950  1.0000 0.1296363337
H   H100      1.0  0.76500  0.34540  0.36950  1.0000 0.1296363337
H   H101      1.0  0.65460  0.23500  0.13050  1.0000 0.1296363337
H   H102      1.0  0.34540  0.76500  0.13050  1.0000 0.1296363337
H   H103      1.0  0.23500  0.34540  0.63050  1.0000 0.1296363337
H   H104      1.0  0.76500  0.65460  0.63050  1.0000 0.1296363337
H   H105      1.0  0.65460  0.76500  0.13050  1.0000 0.1296363337
H   H106      1.0  0.76500  0.34540  0.63050  1.0000 0.1296363337
H   H107      1.0  0.34540  0.23500  0.13050  1.0000 0.1296363337
H   H108      1.0  0.23500  0.65460  0.63050  1.0000 0.1296363337
H   H109      1.0  0.34540  0.76500  0.86950  1.0000 0.1296363337
H   H110      1.0  0.65460  0.23500  0.86950  1.0000 0.1296363337
H   H111      1.0  0.76500  0.65460  0.36950  1.0000 0.1296363337
H   H112      1.0  0.23500  0.34540  0.36950  1.0000 0.1296363337
H   H113      1.0  0.30860  0.28080  0.82180  1.0000 0.1296363337
H   H114      1.0  0.28080  0.69140  0.32180  1.0000 0.1296363337
H   H115      1.0  0.69140  0.71920  0.82180  1.0000 0.1296363337
H   H116      1.0  0.71920  0.30860  0.32180  1.0000 0.1296363337
H   H117      1.0  0.69140  0.28080  0.17820  1.0000 0.1296363337
H   H118      1.0  0.30860  0.71920  0.17820  1.0000 0.1296363337
H   H119      1.0  0.28080  0.30860  0.67820  1.0000 0.1296363337
H   H120      1.0  0.71920  0.69140  0.67820  1.0000 0.1296363337
H   H121      1.0  0.69140  0.71920  0.17820  1.0000 0.1296363337
H   H122      1.0  0.71920  0.30860  0.67820  1.0000 0.1296363337
H   H123      1.0  0.30860  0.28080  0.17820  1.0000 0.1296363337
H   H124      1.0  0.28080  0.69140  0.67820  1.0000 0.1296363337
H   H125      1.0  0.30860  0.71920  0.82180  1.0000 0.1296363337
H   H126      1.0  0.69140  0.28080  0.82180  1.0000 0.1296363337
H   H127      1.0  0.71920  0.69140  0.32180  1.0000 0.1296363337
H   H128      1.0  0.28080  0.30860  0.32180  1.0000 0.1296363337
C   C1        1.0  0.23248  0.16817  0.66630  1.0000 0.0990910299
C   C2        1.0  0.16817  0.76752  0.16630  1.0000 0.0990910299
C   C3        1.0  0.76752  0.83183  0.66630  1.0000 0.0990910299
C   C4        1.0  0.83183  0.23248  0.16630  1.0000 0.0990910299
C   C5        1.0  0.76752  0.16817  0.33370  1.0000 0.0990910299
C   C6        1.0  0.23248  0.83183  0.33370  1.0000 0.0990910299
C   C7        1.0  0.16817  0.23248  0.83370  1.0000 0.0990910299
C   C8        1.0  0.83183  0.76752  0.83370  1.0000 0.0990910299
C   C9        1.0  0.76752  0.83183  0.33370  1.0000 0.0990910299
C   C10       1.0  0.83183  0.23248  0.83370  1.0000 0.0990910299
C   C11       1.0  0.23248  0.16817  0.33370  1.0000 0.0990910299
C   C12       1.0  0.16817  0.76752  0.83370  1.0000 0.0990910299
C   C13       1.0  0.23248  0.83183  0.66630  1.0000 0.0990910299
C   C14       1.0  0.76752  0.16817  0.66630  1.0000 0.0990910299
C   C15       1.0  0.83183  0.76752  0.16630  1.0000 0.0990910299
C   C16       1.0  0.16817  0.23248  0.16630  1.0000 0.0990910299
C   C17       1.0  0.27219  0.13176  0.63480  1.0000 -0.1975483515
C   C18       1.0  0.13176  0.72781  0.13480  1.0000 -0.1975483515
C   C19       1.0  0.72781  0.86824  0.63480  1.0000 -0.1975483515
C   C20       1.0  0.86824  0.27219  0.13480  1.0000 -0.1975483515
C   C21       1.0  0.72781  0.13176  0.36520  1.0000 -0.1975483515
C   C22       1.0  0.27219  0.86824  0.36520  1.0000 -0.1975483515
C   C23       1.0  0.13176  0.27219  0.86520  1.0000 -0.1975483515
C   C24       1.0  0.86824  0.72781  0.86520  1.0000 -0.1975483515
C   C25       1.0  0.72781  0.86824  0.36520  1.0000 -0.1975483515
C   C26       1.0  0.86824  0.27219  0.86520  1.0000 -0.1975483515
C   C27       1.0  0.27219  0.13176  0.36520  1.0000 -0.1975483515
C   C28       1.0  0.13176  0.72781  0.86520  1.0000 -0.1975483515
C   C29       1.0  0.27219  0.86824  0.63480  1.0000 -0.1975483515
C   C30       1.0  0.72781  0.13176  0.63480  1.0000 -0.1975483515
C   C31       1.0  0.86824  0.72781  0.13480  1.0000 -0.1975483515
C   C32       1.0  0.13176  0.27219  0.13480  1.0000 -0.1975483515
C   C33       1.0  0.32467  0.13112  0.67140  1.0000 -0.0249056996
C   C34       1.0  0.13112  0.67533  0.17140  1.0000 -0.0249056996
C   C35       1.0  0.67533  0.86888  0.67140  1.0000 -0.0256610748
C   C36       1.0  0.86888  0.32467  0.17140  1.0000 -0.0249056996
C   C37       1.0  0.67533  0.13112  0.32860  1.0000 -0.0249056996
C   C38       1.0  0.32467  0.86888  0.32860  1.0000 -0.0249056996
C   C39       1.0  0.13112  0.32467  0.82860  1.0000 -0.0256610748
C   C40       1.0  0.86888  0.67533  0.82860  1.0000 -0.0256610748
C   C41       1.0  0.67533  0.86888  0.32860  1.0000 -0.0249056996
C   C42       1.0  0.86888  0.32467  0.82860  1.0000 -0.0256610748
C   C43       1.0  0.32467  0.13112  0.32860  1.0000 -0.0249056996
C   C44       1.0  0.13112  0.67533  0.82860  1.0000 -0.0256610748
C   C45       1.0  0.32467  0.86888  0.67140  1.0000 -0.0249056996
C   C46       1.0  0.67533  0.13112  0.67140  1.0000 -0.0249056996
C   C47       1.0  0.86888  0.67533  0.17140  1.0000 -0.0249056996
C   C48       1.0  0.13112  0.32467  0.17140  1.0000 -0.0249056996
C   C49       1.0  0.29790  0.20312  0.77070  1.0000 0.0990910299
C   C50       1.0  0.20312  0.70210  0.27070  1.0000 0.0990910299
C   C51       1.0  0.70210  0.79688  0.77070  1.0000 0.0990910299
C   C52       1.0  0.79688  0.29790  0.27070  1.0000 0.0990910299
C   C53       1.0  0.70210  0.20312  0.22930  1.0000 0.0990910299
C   C54       1.0  0.29790  0.79688  0.22930  1.0000 0.0990910299
C   C55       1.0  0.20312  0.29790  0.72930  1.0000 0.0990910299
C   C56       1.0  0.79688  0.70210  0.72930  1.0000 0.0990910299
C   C57       1.0  0.70210  0.79688  0.22930  1.0000 0.0990910299
C   C58       1.0  0.79688  0.29790  0.72930  1.0000 0.0990910299
C   C59       1.0  0.29790  0.20312  0.22930  1.0000 0.0990910299
C   C60       1.0  0.20312  0.70210  0.72930  1.0000 0.0990910299
C   C61       1.0  0.29790  0.79688  0.77070  1.0000 0.0990910299
C   C62       1.0  0.70210  0.20312  0.77070  1.0000 0.0990910299
C   C63       1.0  0.79688  0.70210  0.27070  1.0000 0.0990910299
C   C64       1.0  0.20312  0.29790  0.27070  1.0000 0.0990910299
C   C65       1.0  0.24539  0.20383  0.73420  1.0000 -0.0437177925
C   C66       1.0  0.20383  0.75461  0.23420  1.0000 -0.0437177925
C   C67       1.0  0.75461  0.79617  0.73420  1.0000 -0.0437177925
C   C68       1.0  0.79617  0.24539  0.23420  1.0000 -0.0437177925
C   C69       1.0  0.75461  0.20383  0.26580  1.0000 -0.0437177925
C   C70       1.0  0.24539  0.79617  0.26580  1.0000 -0.0437177925
C   C71       1.0  0.20383  0.24539  0.76580  1.0000 -0.0437177925
C   C72       1.0  0.79617  0.75461  0.76580  1.0000 -0.0437177925
C   C73       1.0  0.75461  0.79617  0.26580  1.0000 -0.0437177925
C   C74       1.0  0.79617  0.24539  0.76580  1.0000 -0.0437177925
C   C75       1.0  0.24539  0.20383  0.26580  1.0000 -0.0437177925
C   C76       1.0  0.20383  0.75461  0.76580  1.0000 -0.0437177925
C   C77       1.0  0.24539  0.79617  0.73420  1.0000 -0.0437177925
C   C78       1.0  0.75461  0.20383  0.73420  1.0000 -0.0437177925
C   C79       1.0  0.79617  0.75461  0.23420  1.0000 -0.0437177925
C   C80       1.0  0.20383  0.24539  0.23420  1.0000 -0.0437177925
C   C81       1.0  0.33758  0.16675  0.73930  1.0000 -0.1857751042
C   C82       1.0  0.16675  0.66242  0.23930  1.0000 -0.1857751042
C   C83       1.0  0.66242  0.83325  0.73930  1.0000 -0.1857751042
C   C84       1.0  0.83325  0.33758  0.23930  1.0000 -0.1857751042
C   C85       1.0  0.66242  0.16675  0.26070  1.0000 -0.1857751042
C   C86       1.0  0.33758  0.83325  0.26070  1.0000 -0.1857751042
C   C87       1.0  0.16675  0.33758  0.76070  1.0000 -0.1857751042
C   C88       1.0  0.83325  0.66242  0.76070  1.0000 -0.1857751042
C   C89       1.0  0.66242  0.83325  0.26070  1.0000 -0.1857751042
C   C90       1.0  0.83325  0.33758  0.76070  1.0000 -0.1857751042
C   C91       1.0  0.33758  0.16675  0.26070  1.0000 -0.1857751042
C   C92       1.0  0.16675  0.66242  0.76070  1.0000 -0.1857751042
C   C93       1.0  0.33758  0.83325  0.73930  1.0000 -0.1857751042
C   C94       1.0  0.66242  0.16675  0.73930  1.0000 -0.1857751042
C   C95       1.0  0.83325  0.66242  0.23930  1.0000 -0.1857751042
C   C96       1.0  0.16675  0.33758  0.23930  1.0000 -0.1857751042
C   C97       1.0  0.17511  0.17000  0.62820  1.0000 -0.4525381283
C   C98       1.0  0.17000  0.82489  0.12820  1.0000 -0.4525381283
C   C99       1.0  0.82489  0.83000  0.62820  1.0000 -0.4525381283
C   C100      1.0  0.83000  0.17511  0.12820  1.0000 -0.4525381283
C   C101      1.0  0.82489  0.17000  0.37180  1.0000 -0.4525381283
C   C102      1.0  0.17511  0.83000  0.37180  1.0000 -0.4525381283
C   C103      1.0  0.17000  0.17511  0.87180  1.0000 -0.4525381283
C   C104      1.0  0.83000  0.82489  0.87180  1.0000 -0.4525381283
C   C105      1.0  0.82489  0.83000  0.37180  1.0000 -0.4525381283
C   C106      1.0  0.83000  0.17511  0.87180  1.0000 -0.4525381283
C   C107      1.0  0.17511  0.17000  0.37180  1.0000 -0.4525381283
C   C108      1.0  0.17000  0.82489  0.87180  1.0000 -0.4525381283
C   C109      1.0  0.17511  0.83000  0.62820  1.0000 -0.4525381283
C   C110      1.0  0.82489  0.17000  0.62820  1.0000 -0.4525381283
C   C111      1.0  0.83000  0.82489  0.12820  1.0000 -0.4525381283
C   C112      1.0  0.17000  0.17511  0.12820  1.0000 -0.4525381283
C   C113      1.0  0.36800  0.09181  0.63780  1.0000 0.6327609166
C   C114      1.0  0.09181  0.63200  0.13780  1.0000 0.6327609166
C   C115      1.0  0.63200  0.90819  0.63780  1.0000 0.6327609166
C   C116      1.0  0.90819  0.36800  0.13780  1.0000 0.6327609166
C   C117      1.0  0.63200  0.09181  0.36220  1.0000 0.6327609166
C   C118      1.0  0.36800  0.90819  0.36220  1.0000 0.6327609166
C   C119      1.0  0.09181  0.36800  0.86220  1.0000 0.6327609166
C   C120      1.0  0.90819  0.63200  0.86220  1.0000 0.6327609166
C   C121      1.0  0.63200  0.90819  0.36220  1.0000 0.6327609166
C   C122      1.0  0.90819  0.36800  0.86220  1.0000 0.6327609166
C   C123      1.0  0.36800  0.09181  0.36220  1.0000 0.6327609166
C   C124      1.0  0.09181  0.63200  0.86220  1.0000 0.6327609166
C   C125      1.0  0.36800  0.90819  0.63780  1.0000 0.6327609166
C   C126      1.0  0.63200  0.09181  0.63780  1.0000 0.6327609166
C   C127      1.0  0.90819  0.63200  0.13780  1.0000 0.6327609166
C   C128      1.0  0.09181  0.36800  0.13780  1.0000 0.6327609166
C   C129      1.0  0.30910  0.24290  0.84420  1.0000 -0.4443619431
C   C130      1.0  0.24290  0.69090  0.34420  1.0000 -0.4443619431
C   C131      1.0  0.69090  0.75710  0.84420  1.0000 -0.4443619431
C   C132      1.0  0.75710  0.30910  0.34420  1.0000 -0.4443619431
C   C133      1.0  0.69090  0.24290  0.15580  1.0000 -0.4443619431
C   C134      1.0  0.30910  0.75710  0.15580  1.0000 -0.4443619431
C   C135      1.0  0.24290  0.30910  0.65580  1.0000 -0.4443619431
C   C136      1.0  0.75710  0.69090  0.65580  1.0000 -0.4443619431
C   C137      1.0  0.69090  0.75710  0.15580  1.0000 -0.4443619431
C   C138      1.0  0.75710  0.30910  0.65580  1.0000 -0.4443619431
C   C139      1.0  0.30910  0.24290  0.15580  1.0000 -0.4443619431
C   C140      1.0  0.24290  0.69090  0.65580  1.0000 -0.4443619431
C   C141      1.0  0.30910  0.75710  0.84420  1.0000 -0.4443619431
C   C142      1.0  0.69090  0.24290  0.84420  1.0000 -0.4443619431
C   C143      1.0  0.75710  0.69090  0.34420  1.0000 -0.4443619431
C   C144      1.0  0.24290  0.30910  0.34420  1.0000 -0.4443619431
O   O1        1.0  0.44984  0.00000  0.61320  1.0000 -1.1768798561
O   O2        1.0  0.00000  0.55016  0.11320  1.0000 -1.1768798561
O   O3        1.0  0.55016  0.00000  0.61320  1.0000 -1.1768798561
O   O4        1.0  0.00000  0.44984  0.11320  1.0000 -1.1768798561
O   O5        1.0  0.55016  0.00000  0.38680  1.0000 -1.1768798561
O   O6        1.0  0.44984  0.00000  0.38680  1.0000 -1.1768798561
O   O7        1.0  0.00000  0.44984  0.88680  1.0000 -1.1768798561
O   O8        1.0  0.00000  0.55016  0.88680  1.0000 -1.1768798561
O   O9        1.0  0.35140  0.05458  0.58510  1.0000 -0.567667696
O   O10       1.0  0.05458  0.64860  0.08510  1.0000 -0.567667696
O   O11       1.0  0.64860  0.94542  0.58510  1.0000 -0.567667696
O   O12       1.0  0.94542  0.35140  0.08510  1.0000 -0.567667696
O   O13       1.0  0.64860  0.05458  0.41490  1.0000 -0.567667696
O   O14       1.0  0.35140  0.94542  0.41490  1.0000 -0.567667696
O   O15       1.0  0.05458  0.35140  0.91490  1.0000 -0.567667696
O   O16       1.0  0.94542  0.64860  0.91490  1.0000 -0.567667696
O   O17       1.0  0.64860  0.94542  0.41490  1.0000 -0.567667696
O   O18       1.0  0.94542  0.35140  0.91490  1.0000 -0.567667696
O   O19       1.0  0.35140  0.05458  0.41490  1.0000 -0.567667696
O   O20       1.0  0.05458  0.64860  0.91490  1.0000 -0.567667696
O   O21       1.0  0.35140  0.94542  0.58510  1.0000 -0.567667696
O   O22       1.0  0.64860  0.05458  0.58510  1.0000 -0.567667696
O   O23       1.0  0.94542  0.64860  0.08510  1.0000 -0.567667696
O   O24       1.0  0.05458  0.35140  0.08510  1.0000 -0.567667696
O   O25       1.0  0.41728  0.10225  0.66120  1.0000 -0.6071753384
O   O26       1.0  0.10225  0.58272  0.16120  1.0000 -0.6071753384
O   O27       1.0  0.58272  0.89775  0.66120  1.0000 -0.6071753384
O   O28       1.0  0.89775  0.41728  0.16120  1.0000 -0.6071753384
O   O29       1.0  0.58272  0.10225  0.33880  1.0000 -0.6071753384
O   O30       1.0  0.41728  0.89775  0.33880  1.0000 -0.6071753384
O   O31       1.0  0.10225  0.41728  0.83880  1.0000 -0.6071753384
O   O32       1.0  0.89775  0.58272  0.83880  1.0000 -0.6071753384
O   O33       1.0  0.58272  0.89775  0.33880  1.0000 -0.6071753384
O   O34       1.0  0.89775  0.41728  0.83880  1.0000 -0.6071753384
O   O35       1.0  0.41728  0.10225  0.33880  1.0000 -0.6071753384
O   O36       1.0  0.10225  0.58272  0.83880  1.0000 -0.6071753384
O   O37       1.0  0.41728  0.89775  0.66120  1.0000 -0.6071753384
O   O38       1.0  0.58272  0.10225  0.66120  1.0000 -0.6071753384
O   O39       1.0  0.89775  0.58272  0.16120  1.0000 -0.6071753384
O   O40       1.0  0.10225  0.41728  0.16120  1.0000 -0.6071753384
O   O41       1.0  0.45085  0.07310  0.50000  1.0000 -1.170229587
O   O42       1.0  0.07310  0.54915  0.00000  1.0000 -1.170229587
O   O43       1.0  0.54915  0.92690  0.50000  1.0000 -1.170229587
O   O44       1.0  0.92690  0.45085  0.00000  1.0000 -1.170229587
O   O45       1.0  0.54915  0.07310  0.50000  1.0000 -1.170229587
O   O46       1.0  0.45085  0.92690  0.50000  1.0000 -1.170229587
O   O47       1.0  0.07310  0.45085  0.00000  1.0000 -1.170229587
O   O48       1.0  0.92690  0.54915  0.00000  1.0000 -1.170229587
