# DDEC6 charges by PACMAN v1.1 (https://github.com/mtap-research/PACMAN-charge/)
data_2016[Zn][bcu]3[ASR]1
_chemical_formula_sum              "Zn28 H144 C288 O104"
_cell_length_a       19.3064
_cell_length_b       17.452
_cell_length_c       24.0043
_cell_angle_alpha    90
_cell_angle_beta     90
_cell_angle_gamma    90

_symmetry_space_group_name_H-M    "P 1"
_symmetry_Int_Tables_number       1

loop_
  _symmetry_equiv_pos_as_xyz
  'x, y, z'

loop_
  _atom_site_type_symbol
  _atom_site_label
  _atom_site_symmetry_multiplicity
  _atom_site_fract_x
  _atom_site_fract_y
  _atom_site_fract_z
  _atom_site_occupancy
  _atom_site_charge
Zn  Zn1       1.0  0.50000  0.50000  0.50000  1.0000 1.0320938735
Zn  Zn2       1.0  0.50000  0.00000  0.00000  1.0000 1.0320938735
Zn  Zn3       1.0  0.00000  0.00000  0.50000  1.0000 1.0320938735
Zn  Zn4       1.0  0.00000  0.50000  0.00000  1.0000 1.0320938735
Zn  Zn5       1.0  0.58287  0.58183  0.60180  1.0000 0.952011293
Zn  Zn6       1.0  0.41713  0.41817  0.39820  1.0000 0.952011293
Zn  Zn7       1.0  0.41713  0.91817  0.10180  1.0000 0.952011293
Zn  Zn8       1.0  0.58287  0.08183  0.89820  1.0000 0.952011293
Zn  Zn9       1.0  0.41713  0.08183  0.89820  1.0000 0.952011293
Zn  Zn10      1.0  0.58287  0.91817  0.10180  1.0000 0.952011293
Zn  Zn11      1.0  0.58287  0.41817  0.39820  1.0000 0.952011293
Zn  Zn12      1.0  0.41713  0.58183  0.60180  1.0000 0.952011293
Zn  Zn13      1.0  0.08287  0.08183  0.60180  1.0000 0.952011293
Zn  Zn14      1.0  0.91713  0.91817  0.39820  1.0000 0.952011293
Zn  Zn15      1.0  0.91713  0.41817  0.10180  1.0000 0.952011293
Zn  Zn16      1.0  0.08287  0.58183  0.89820  1.0000 0.952011293
Zn  Zn17      1.0  0.91713  0.58183  0.89820  1.0000 0.952011293
Zn  Zn18      1.0  0.08287  0.41817  0.10180  1.0000 0.952011293
Zn  Zn19      1.0  0.08287  0.91817  0.39820  1.0000 0.952011293
Zn  Zn20      1.0  0.91713  0.08183  0.60180  1.0000 0.952011293
Zn  Zn21      1.0  0.50000  0.68295  0.52160  1.0000 0.9747208266
Zn  Zn22      1.0  0.50000  0.31705  0.47840  1.0000 0.9747208266
Zn  Zn23      1.0  0.50000  0.81705  0.02160  1.0000 0.9752659111
Zn  Zn24      1.0  0.50000  0.18295  0.97840  1.0000 0.9747208266
Zn  Zn25      1.0  0.00000  0.18295  0.52160  1.0000 0.9747208266
Zn  Zn26      1.0  0.00000  0.81705  0.47840  1.0000 0.9752659111
Zn  Zn27      1.0  0.00000  0.31705  0.02160  1.0000 0.9752659111
Zn  Zn28      1.0  0.00000  0.68295  0.97840  1.0000 0.9747208266
H   H1        1.0  0.50000  0.63567  0.37374  1.0000 0.1191458412
H   H2        1.0  0.50000  0.36433  0.62626  1.0000 0.1191458412
H   H3        1.0  0.50000  0.86433  0.87374  1.0000 0.1191458412
H   H4        1.0  0.50000  0.13567  0.12626  1.0000 0.1191458412
H   H5        1.0  0.00000  0.13567  0.37374  1.0000 0.1191458412
H   H6        1.0  0.00000  0.86433  0.62626  1.0000 0.1191458412
H   H7        1.0  0.00000  0.36433  0.87374  1.0000 0.1191458412
H   H8        1.0  0.00000  0.63567  0.12626  1.0000 0.1191458412
H   H9        1.0  0.50001  0.54791  0.29321  1.0000 0.1023044272
H   H10       1.0  0.49999  0.45209  0.70679  1.0000 0.1023044272
H   H11       1.0  0.49999  0.95209  0.79321  1.0000 0.1023044272
H   H12       1.0  0.50001  0.04791  0.20679  1.0000 0.1023044272
H   H13       1.0  0.00001  0.04791  0.29321  1.0000 0.1023044272
H   H14       1.0  0.99999  0.95209  0.70679  1.0000 0.1023044272
H   H15       1.0  0.99999  0.45209  0.79321  1.0000 0.1023044272
H   H16       1.0  0.00001  0.54791  0.20679  1.0000 0.1023044272
H   H17       1.0  0.50001  0.59942  0.19519  1.0000 0.1023044272
H   H18       1.0  0.49999  0.40058  0.80481  1.0000 0.1023044272
H   H19       1.0  0.49999  0.90058  0.69519  1.0000 0.1023044272
H   H20       1.0  0.50001  0.09942  0.30481  1.0000 0.1023044272
H   H21       1.0  0.00001  0.09942  0.19519  1.0000 0.1023044272
H   H22       1.0  0.99999  0.90058  0.80481  1.0000 0.1023044272
H   H23       1.0  0.99999  0.40058  0.69519  1.0000 0.1023044272
H   H24       1.0  0.00001  0.59942  0.30481  1.0000 0.1023044272
H   H25       1.0  0.49999  0.73889  0.17923  1.0000 0.109995028
H   H26       1.0  0.50001  0.26111  0.82077  1.0000 0.109995028
H   H27       1.0  0.50001  0.76111  0.67923  1.0000 0.109995028
H   H28       1.0  0.49999  0.23889  0.32077  1.0000 0.109995028
H   H29       1.0  0.99999  0.23889  0.17923  1.0000 0.109995028
H   H30       1.0  0.00001  0.76111  0.82077  1.0000 0.109995028
H   H31       1.0  0.00001  0.26111  0.67923  1.0000 0.109995028
H   H32       1.0  0.99999  0.73889  0.32077  1.0000 0.109995028
H   H33       1.0  0.76889  0.69455  0.57486  1.0000 0.1191458412
H   H34       1.0  0.23111  0.30545  0.42514  1.0000 0.1191458412
H   H35       1.0  0.23111  0.80545  0.07486  1.0000 0.1191458412
H   H36       1.0  0.76889  0.19455  0.92514  1.0000 0.1191458412
H   H37       1.0  0.23111  0.19455  0.92514  1.0000 0.1191458412
H   H38       1.0  0.76889  0.80545  0.07486  1.0000 0.1191458412
H   H39       1.0  0.76889  0.30545  0.42514  1.0000 0.1191458412
H   H40       1.0  0.23111  0.69455  0.57486  1.0000 0.1191458412
H   H41       1.0  0.26889  0.19455  0.57486  1.0000 0.1191458412
H   H42       1.0  0.73111  0.80545  0.42514  1.0000 0.1191458412
H   H43       1.0  0.73111  0.30545  0.07486  1.0000 0.1191458412
H   H44       1.0  0.26889  0.69455  0.92514  1.0000 0.1191458412
H   H45       1.0  0.73111  0.69455  0.92514  1.0000 0.1191458412
H   H46       1.0  0.26889  0.30545  0.07486  1.0000 0.1191458412
H   H47       1.0  0.26889  0.80545  0.42514  1.0000 0.1191458412
H   H48       1.0  0.73111  0.19455  0.57486  1.0000 0.1191458412
H   H49       1.0  0.56658  0.85898  0.56295  1.0000 0.1252425818
H   H50       1.0  0.43342  0.14102  0.43705  1.0000 0.1252425818
H   H51       1.0  0.43342  0.64102  0.06295  1.0000 0.1252425818
H   H52       1.0  0.56658  0.35898  0.93705  1.0000 0.1252425818
H   H53       1.0  0.43342  0.35898  0.93705  1.0000 0.1252425818
H   H54       1.0  0.56658  0.64102  0.06295  1.0000 0.1252425818
H   H55       1.0  0.56658  0.14102  0.43705  1.0000 0.1252425818
H   H56       1.0  0.43342  0.85898  0.56295  1.0000 0.1252425818
H   H57       1.0  0.06658  0.35898  0.56295  1.0000 0.1252425818
H   H58       1.0  0.93342  0.64102  0.43705  1.0000 0.1252425818
H   H59       1.0  0.93342  0.14102  0.06295  1.0000 0.1252425818
H   H60       1.0  0.06658  0.85898  0.93705  1.0000 0.1252425818
H   H61       1.0  0.93342  0.85898  0.93705  1.0000 0.1252425818
H   H62       1.0  0.06658  0.14102  0.06295  1.0000 0.1252425818
H   H63       1.0  0.06658  0.64102  0.43705  1.0000 0.1252425818
H   H64       1.0  0.93342  0.35898  0.56295  1.0000 0.1252425818
H   H65       1.0  0.54941  0.99925  0.56317  1.0000 0.0891862584
H   H66       1.0  0.45059  0.00075  0.43683  1.0000 0.0891862584
H   H67       1.0  0.45059  0.50075  0.06317  1.0000 0.0891862584
H   H68       1.0  0.54941  0.49925  0.93683  1.0000 0.0891862584
H   H69       1.0  0.45059  0.49925  0.93683  1.0000 0.0891862584
H   H70       1.0  0.54941  0.50075  0.06317  1.0000 0.0891862584
H   H71       1.0  0.54941  0.00075  0.43683  1.0000 0.0891862584
H   H72       1.0  0.45059  0.99925  0.56317  1.0000 0.0891862584
H   H73       1.0  0.04941  0.49925  0.56317  1.0000 0.0891862584
H   H74       1.0  0.95059  0.50075  0.43683  1.0000 0.0891862584
H   H75       1.0  0.95059  0.00075  0.06317  1.0000 0.0891862584
H   H76       1.0  0.04941  0.99925  0.93683  1.0000 0.0891862584
H   H77       1.0  0.95059  0.99925  0.93683  1.0000 0.0891862584
H   H78       1.0  0.04941  0.00075  0.06317  1.0000 0.0891862584
H   H79       1.0  0.04941  0.50075  0.43683  1.0000 0.0891862584
H   H80       1.0  0.95059  0.49925  0.56317  1.0000 0.0891862584
H   H81       1.0  0.87048  0.78552  0.56849  1.0000 0.109995028
H   H82       1.0  0.12952  0.21448  0.43151  1.0000 0.109995028
H   H83       1.0  0.12952  0.71448  0.06849  1.0000 0.109995028
H   H84       1.0  0.87048  0.28552  0.93151  1.0000 0.109995028
H   H85       1.0  0.12951  0.28551  0.93150  1.0000 0.109995028
H   H86       1.0  0.87049  0.71449  0.06850  1.0000 0.109995028
H   H87       1.0  0.87049  0.21449  0.43150  1.0000 0.109995028
H   H88       1.0  0.12951  0.78551  0.56850  1.0000 0.109995028
H   H89       1.0  0.37048  0.28552  0.56849  1.0000 0.109995028
H   H90       1.0  0.62952  0.71448  0.43151  1.0000 0.109995028
H   H91       1.0  0.62952  0.21448  0.06849  1.0000 0.109995028
H   H92       1.0  0.37048  0.78552  0.93151  1.0000 0.109995028
H   H93       1.0  0.62951  0.78551  0.93150  1.0000 0.109995028
H   H94       1.0  0.37049  0.21449  0.06850  1.0000 0.109995028
H   H95       1.0  0.37049  0.71449  0.43150  1.0000 0.109995028
H   H96       1.0  0.62951  0.28551  0.56850  1.0000 0.109995028
H   H97       1.0  0.76932  0.03654  0.56894  1.0000 0.109995028
H   H98       1.0  0.23068  0.96346  0.43106  1.0000 0.109995028
H   H99       1.0  0.23068  0.46346  0.06894  1.0000 0.109995028
H   H100      1.0  0.76932  0.53654  0.93106  1.0000 0.109995028
H   H101      1.0  0.23068  0.53654  0.93106  1.0000 0.109995028
H   H102      1.0  0.76932  0.46346  0.06894  1.0000 0.109995028
H   H103      1.0  0.76932  0.96346  0.43106  1.0000 0.109995028
H   H104      1.0  0.23068  0.03654  0.56894  1.0000 0.109995028
H   H105      1.0  0.26932  0.53654  0.56894  1.0000 0.109995028
H   H106      1.0  0.73068  0.46346  0.43106  1.0000 0.109995028
H   H107      1.0  0.73068  0.96346  0.06894  1.0000 0.109995028
H   H108      1.0  0.26932  0.03654  0.93106  1.0000 0.109995028
H   H109      1.0  0.73068  0.03654  0.93106  1.0000 0.109995028
H   H110      1.0  0.26932  0.96346  0.06894  1.0000 0.109995028
H   H111      1.0  0.26932  0.46346  0.43106  1.0000 0.109995028
H   H112      1.0  0.73068  0.53654  0.56894  1.0000 0.109995028
H   H113      1.0  0.64939  0.08830  0.56667  1.0000 0.1023044272
H   H114      1.0  0.35061  0.91170  0.43333  1.0000 0.1023044272
H   H115      1.0  0.35061  0.41170  0.06667  1.0000 0.1023044272
H   H116      1.0  0.64939  0.58830  0.93333  1.0000 0.1023044272
H   H117      1.0  0.35060  0.58830  0.93333  1.0000 0.1023044272
H   H118      1.0  0.64940  0.41170  0.06667  1.0000 0.1023044272
H   H119      1.0  0.64940  0.91170  0.43333  1.0000 0.1023044272
H   H120      1.0  0.35060  0.08830  0.56667  1.0000 0.1023044272
H   H121      1.0  0.14939  0.58830  0.56667  1.0000 0.1023044272
H   H122      1.0  0.85061  0.41170  0.43333  1.0000 0.1023044272
H   H123      1.0  0.85061  0.91170  0.06667  1.0000 0.1023044272
H   H124      1.0  0.14939  0.08830  0.93333  1.0000 0.1023044272
H   H125      1.0  0.85060  0.08830  0.93333  1.0000 0.1023044272
H   H126      1.0  0.14940  0.91170  0.06667  1.0000 0.1023044272
H   H127      1.0  0.14940  0.41170  0.43333  1.0000 0.1023044272
H   H128      1.0  0.85060  0.58830  0.56667  1.0000 0.1023044272
H   H129      1.0  0.50000  0.91234  0.39238  1.0000 0.109995028
H   H130      1.0  0.50000  0.08766  0.60762  1.0000 0.109995028
H   H131      1.0  0.50000  0.58766  0.89238  1.0000 0.109995028
H   H132      1.0  0.50000  0.41234  0.10762  1.0000 0.109995028
H   H133      1.0  0.00000  0.41234  0.39238  1.0000 0.109995028
H   H134      1.0  0.00000  0.58766  0.60762  1.0000 0.109995028
H   H135      1.0  0.00000  0.08766  0.89238  1.0000 0.109995028
H   H136      1.0  0.00000  0.91234  0.10762  1.0000 0.109995028
H   H137      1.0  0.50001  0.96335  0.29362  1.0000 0.109995028
H   H138      1.0  0.49999  0.03665  0.70638  1.0000 0.109995028
H   H139      1.0  0.49999  0.53665  0.79362  1.0000 0.109995028
H   H140      1.0  0.50001  0.46335  0.20638  1.0000 0.109995028
H   H141      1.0  0.00001  0.46335  0.29362  1.0000 0.109995028
H   H142      1.0  0.99999  0.53665  0.70638  1.0000 0.109995028
H   H143      1.0  0.99999  0.03665  0.79362  1.0000 0.109995028
H   H144      1.0  0.00001  0.96335  0.20638  1.0000 0.109995028
C   C1        1.0  0.50000  0.76851  0.26814  1.0000 0.0512046683
C   C2        1.0  0.50000  0.23149  0.73186  1.0000 0.0512046683
C   C3        1.0  0.50000  0.73149  0.76814  1.0000 0.0512046683
C   C4        1.0  0.50000  0.26851  0.23186  1.0000 0.0512046683
C   C5        1.0  0.00000  0.26851  0.26814  1.0000 0.0512046683
C   C6        1.0  0.00000  0.73149  0.73186  1.0000 0.0512046683
C   C7        1.0  0.00000  0.23149  0.76814  1.0000 0.0512046683
C   C8        1.0  0.00000  0.76851  0.23186  1.0000 0.0512046683
C   C9        1.0  0.50001  0.74000  0.32440  1.0000 0.0716429734
C   C10       1.0  0.49999  0.26000  0.67560  1.0000 0.0716429734
C   C11       1.0  0.49999  0.76000  0.82440  1.0000 0.0716429734
C   C12       1.0  0.50001  0.24000  0.17560  1.0000 0.0716429734
C   C13       1.0  0.00001  0.24000  0.32440  1.0000 0.0716429734
C   C14       1.0  0.99999  0.76000  0.67560  1.0000 0.0716429734
C   C15       1.0  0.99999  0.26000  0.82440  1.0000 0.0716429734
C   C16       1.0  0.00001  0.74000  0.17560  1.0000 0.0716429734
C   C17       1.0  0.50000  0.65884  0.33161  1.0000 -0.1110601988
C   C18       1.0  0.50000  0.34116  0.66839  1.0000 -0.1110601988
C   C19       1.0  0.50000  0.84116  0.83161  1.0000 -0.1110601988
C   C20       1.0  0.50000  0.15884  0.16839  1.0000 -0.1110601988
C   C21       1.0  0.00000  0.15884  0.33161  1.0000 -0.1110601988
C   C22       1.0  0.00000  0.84116  0.66839  1.0000 -0.1110601988
C   C23       1.0  0.00000  0.34116  0.83161  1.0000 -0.1110601988
C   C24       1.0  0.00000  0.65884  0.16839  1.0000 -0.1110601988
C   C25       1.0  0.50001  0.60973  0.28593  1.0000 -0.071067396
C   C26       1.0  0.49999  0.39027  0.71407  1.0000 -0.071067396
C   C27       1.0  0.49999  0.89027  0.78593  1.0000 -0.071067396
C   C28       1.0  0.50001  0.10973  0.21407  1.0000 -0.071067396
C   C29       1.0  0.00001  0.10973  0.28593  1.0000 -0.071067396
C   C30       1.0  0.99999  0.89027  0.71407  1.0000 -0.071067396
C   C31       1.0  0.99999  0.39027  0.78593  1.0000 -0.071067396
C   C32       1.0  0.00001  0.60973  0.21407  1.0000 -0.071067396
C   C33       1.0  0.50001  0.63836  0.23102  1.0000 -0.0810027946
C   C34       1.0  0.49999  0.36164  0.76898  1.0000 -0.0810027946
C   C35       1.0  0.49999  0.86164  0.73102  1.0000 -0.0810027946
C   C36       1.0  0.50001  0.13836  0.26898  1.0000 -0.0810027946
C   C37       1.0  0.00001  0.13836  0.23102  1.0000 -0.0810027946
C   C38       1.0  0.99999  0.86164  0.76898  1.0000 -0.0810027946
C   C39       1.0  0.99999  0.36164  0.73102  1.0000 -0.0810027946
C   C40       1.0  0.00001  0.63836  0.26898  1.0000 -0.0810027946
C   C41       1.0  0.50000  0.71689  0.22211  1.0000 -0.1171544924
C   C42       1.0  0.50000  0.28311  0.77789  1.0000 -0.1171544924
C   C43       1.0  0.50000  0.78311  0.72211  1.0000 -0.1171544924
C   C44       1.0  0.50000  0.21689  0.27789  1.0000 -0.1171544924
C   C45       1.0  0.00000  0.21689  0.22211  1.0000 -0.1171544924
C   C46       1.0  0.00000  0.78311  0.77789  1.0000 -0.1171544924
C   C47       1.0  0.00000  0.28311  0.72211  1.0000 -0.1171544924
C   C48       1.0  0.00000  0.71689  0.27789  1.0000 -0.1171544924
C   C49       1.0  0.63779  0.72333  0.57124  1.0000 0.6105814486
C   C50       1.0  0.36221  0.27667  0.42876  1.0000 0.6105814486
C   C51       1.0  0.36221  0.77667  0.07124  1.0000 0.6105814486
C   C52       1.0  0.63779  0.22333  0.92876  1.0000 0.6105814486
C   C53       1.0  0.36221  0.22333  0.92877  1.0000 0.6105814486
C   C54       1.0  0.63779  0.77667  0.07123  1.0000 0.6105814486
C   C55       1.0  0.63779  0.27667  0.42877  1.0000 0.6105814486
C   C56       1.0  0.36221  0.72333  0.57123  1.0000 0.6105814486
C   C57       1.0  0.13779  0.22333  0.57124  1.0000 0.6105814486
C   C58       1.0  0.86221  0.77667  0.42876  1.0000 0.6105814486
C   C59       1.0  0.86221  0.27667  0.07124  1.0000 0.6105814486
C   C60       1.0  0.13779  0.72333  0.92876  1.0000 0.6105814486
C   C61       1.0  0.86221  0.72333  0.92877  1.0000 0.6105814486
C   C62       1.0  0.13779  0.27667  0.07123  1.0000 0.6105814486
C   C63       1.0  0.13779  0.77667  0.42877  1.0000 0.6105814486
C   C64       1.0  0.86221  0.22333  0.57123  1.0000 0.6105814486
C   C65       1.0  0.69284  0.78368  0.57088  1.0000 -0.0810027946
C   C66       1.0  0.30716  0.21632  0.42912  1.0000 -0.0810027946
C   C67       1.0  0.30716  0.71632  0.07088  1.0000 -0.0810027946
C   C68       1.0  0.69284  0.28368  0.92912  1.0000 -0.0810027946
C   C69       1.0  0.30716  0.28368  0.92912  1.0000 -0.0810027946
C   C70       1.0  0.69284  0.71632  0.07088  1.0000 -0.0810027946
C   C71       1.0  0.69284  0.21632  0.42912  1.0000 -0.0810027946
C   C72       1.0  0.30716  0.78368  0.57088  1.0000 -0.0810027946
C   C73       1.0  0.19284  0.28368  0.57088  1.0000 -0.0810027946
C   C74       1.0  0.80716  0.71632  0.42912  1.0000 -0.0810027946
C   C75       1.0  0.80716  0.21632  0.07088  1.0000 -0.0810027946
C   C76       1.0  0.19284  0.78368  0.92912  1.0000 -0.0810027946
C   C77       1.0  0.80716  0.78368  0.92912  1.0000 -0.0810027946
C   C78       1.0  0.19284  0.21632  0.07088  1.0000 -0.0810027946
C   C79       1.0  0.19284  0.71632  0.42912  1.0000 -0.0810027946
C   C80       1.0  0.80716  0.28368  0.57088  1.0000 -0.0810027946
C   C81       1.0  0.76089  0.75658  0.57213  1.0000 -0.071067396
C   C82       1.0  0.23911  0.24342  0.42787  1.0000 -0.071067396
C   C83       1.0  0.23911  0.74342  0.07213  1.0000 -0.071067396
C   C84       1.0  0.76089  0.25658  0.92787  1.0000 -0.071067396
C   C85       1.0  0.23911  0.25658  0.92787  1.0000 -0.071067396
C   C86       1.0  0.76089  0.74342  0.07213  1.0000 -0.071067396
C   C87       1.0  0.76089  0.24342  0.42787  1.0000 -0.071067396
C   C88       1.0  0.23911  0.75658  0.57213  1.0000 -0.071067396
C   C89       1.0  0.26089  0.25658  0.57213  1.0000 -0.071067396
C   C90       1.0  0.73911  0.74342  0.42787  1.0000 -0.071067396
C   C91       1.0  0.73911  0.24342  0.07213  1.0000 -0.071067396
C   C92       1.0  0.26089  0.75658  0.92787  1.0000 -0.071067396
C   C93       1.0  0.73911  0.75658  0.92787  1.0000 -0.071067396
C   C94       1.0  0.26089  0.24342  0.07213  1.0000 -0.071067396
C   C95       1.0  0.26089  0.74342  0.42787  1.0000 -0.071067396
C   C96       1.0  0.73911  0.25658  0.57213  1.0000 -0.071067396
C   C97       1.0  0.67913  0.86470  0.56865  1.0000 0.0716429734
C   C98       1.0  0.32087  0.13530  0.43135  1.0000 0.0716429734
C   C99       1.0  0.32087  0.63530  0.06865  1.0000 0.0716429734
C   C100      1.0  0.67913  0.36470  0.93135  1.0000 0.0716429734
C   C101      1.0  0.32087  0.36470  0.93136  1.0000 0.0716429734
C   C102      1.0  0.67913  0.63530  0.06864  1.0000 0.0716429734
C   C103      1.0  0.67913  0.13530  0.43136  1.0000 0.0716429734
C   C104      1.0  0.32087  0.86470  0.56864  1.0000 0.0716429734
C   C105      1.0  0.17913  0.36470  0.56865  1.0000 0.0716429734
C   C106      1.0  0.82087  0.63530  0.43135  1.0000 0.0716429734
C   C107      1.0  0.82087  0.13530  0.06865  1.0000 0.0716429734
C   C108      1.0  0.17913  0.86470  0.93135  1.0000 0.0716429734
C   C109      1.0  0.82087  0.86470  0.93136  1.0000 0.0716429734
C   C110      1.0  0.17913  0.13530  0.06864  1.0000 0.0716429734
C   C111      1.0  0.17913  0.63530  0.43136  1.0000 0.0716429734
C   C112      1.0  0.82087  0.36470  0.56864  1.0000 0.0716429734
C   C113      1.0  0.61130  0.89690  0.56626  1.0000 -0.1171544924
C   C114      1.0  0.38870  0.10310  0.43374  1.0000 -0.1171544924
C   C115      1.0  0.38870  0.60310  0.06626  1.0000 -0.1171544924
C   C116      1.0  0.61130  0.39690  0.93374  1.0000 -0.1171544924
C   C117      1.0  0.38869  0.39690  0.93374  1.0000 -0.1171544924
C   C118      1.0  0.61131  0.60310  0.06626  1.0000 -0.1171544924
C   C119      1.0  0.61131  0.10310  0.43374  1.0000 -0.1171544924
C   C120      1.0  0.38869  0.89690  0.56626  1.0000 -0.1171544924
C   C121      1.0  0.11130  0.39690  0.56626  1.0000 -0.1171544924
C   C122      1.0  0.88870  0.60310  0.43374  1.0000 -0.1171544924
C   C123      1.0  0.88870  0.10310  0.06626  1.0000 -0.1171544924
C   C124      1.0  0.11130  0.89690  0.93374  1.0000 -0.1171544924
C   C125      1.0  0.88869  0.89690  0.93374  1.0000 -0.1171544924
C   C126      1.0  0.11131  0.10310  0.06626  1.0000 -0.1171544924
C   C127      1.0  0.11131  0.60310  0.43374  1.0000 -0.1171544924
C   C128      1.0  0.88869  0.39690  0.56626  1.0000 -0.1171544924
C   C129      1.0  0.60186  0.97582  0.56613  1.0000 -0.0590860751
C   C130      1.0  0.39814  0.02418  0.43387  1.0000 -0.0590860751
C   C131      1.0  0.39814  0.52418  0.06613  1.0000 -0.0590860751
C   C132      1.0  0.60186  0.47582  0.93387  1.0000 -0.0590860751
C   C133      1.0  0.39814  0.47582  0.93387  1.0000 -0.0590860751
C   C134      1.0  0.60186  0.52418  0.06613  1.0000 -0.0590860751
C   C135      1.0  0.60186  0.02418  0.43387  1.0000 -0.0590860751
C   C136      1.0  0.39814  0.97582  0.56613  1.0000 -0.0590860751
C   C137      1.0  0.10186  0.47582  0.56613  1.0000 -0.0590860751
C   C138      1.0  0.89814  0.52418  0.43387  1.0000 -0.0590860751
C   C139      1.0  0.89814  0.02418  0.06613  1.0000 -0.0590860751
C   C140      1.0  0.10186  0.97582  0.93387  1.0000 -0.0590860751
C   C141      1.0  0.89814  0.97582  0.93387  1.0000 -0.0590860751
C   C142      1.0  0.10186  0.02418  0.06613  1.0000 -0.0590860751
C   C143      1.0  0.10186  0.52418  0.43387  1.0000 -0.0590860751
C   C144      1.0  0.89814  0.47582  0.56613  1.0000 -0.0590860751
C   C145      1.0  0.81718  0.80684  0.56941  1.0000 -0.1008294493
C   C146      1.0  0.18282  0.19316  0.43059  1.0000 -0.1008294493
C   C147      1.0  0.18282  0.69316  0.06941  1.0000 -0.1008294493
C   C148      1.0  0.81718  0.30684  0.93059  1.0000 -0.1008294493
C   C149      1.0  0.18281  0.30684  0.93059  1.0000 -0.1008294493
C   C150      1.0  0.81719  0.69316  0.06941  1.0000 -0.1008294493
C   C151      1.0  0.81719  0.19316  0.43059  1.0000 -0.1008294493
C   C152      1.0  0.18281  0.80684  0.56941  1.0000 -0.1008294493
C   C153      1.0  0.31718  0.30684  0.56941  1.0000 -0.1008294493
C   C154      1.0  0.68282  0.69316  0.43059  1.0000 -0.1008294493
C   C155      1.0  0.68282  0.19316  0.06941  1.0000 -0.1008294493
C   C156      1.0  0.31718  0.80684  0.93059  1.0000 -0.1008294493
C   C157      1.0  0.68281  0.80684  0.93059  1.0000 -0.1008294493
C   C158      1.0  0.31719  0.19316  0.06941  1.0000 -0.1008294493
C   C159      1.0  0.31719  0.69316  0.43059  1.0000 -0.1008294493
C   C160      1.0  0.68281  0.30684  0.56941  1.0000 -0.1008294493
C   C161      1.0  0.73735  0.91651  0.56940  1.0000 0.0512046683
C   C162      1.0  0.26265  0.08349  0.43060  1.0000 0.0512046683
C   C163      1.0  0.26265  0.58349  0.06940  1.0000 0.0512046683
C   C164      1.0  0.73735  0.41651  0.93060  1.0000 0.0512046683
C   C165      1.0  0.26264  0.41651  0.93060  1.0000 0.0512046683
C   C166      1.0  0.73736  0.58349  0.06940  1.0000 0.0512046683
C   C167      1.0  0.73736  0.08349  0.43060  1.0000 0.0512046683
C   C168      1.0  0.26264  0.91651  0.56940  1.0000 0.0512046683
C   C169      1.0  0.23735  0.41651  0.56940  1.0000 0.0512046683
C   C170      1.0  0.76265  0.58349  0.43060  1.0000 0.0512046683
C   C171      1.0  0.76265  0.08349  0.06940  1.0000 0.0512046683
C   C172      1.0  0.23735  0.91651  0.93060  1.0000 0.0512046683
C   C173      1.0  0.76264  0.91651  0.93060  1.0000 0.0512046683
C   C174      1.0  0.23736  0.08349  0.06940  1.0000 0.0512046683
C   C175      1.0  0.23736  0.58349  0.43060  1.0000 0.0512046683
C   C176      1.0  0.76264  0.41651  0.56940  1.0000 0.0512046683
C   C177      1.0  0.72534  0.99715  0.56855  1.0000 -0.1110601988
C   C178      1.0  0.27466  0.00285  0.43145  1.0000 -0.1110601988
C   C179      1.0  0.27466  0.50285  0.06855  1.0000 -0.1110601988
C   C180      1.0  0.72534  0.49715  0.93145  1.0000 -0.1110601988
C   C181      1.0  0.27466  0.49715  0.93145  1.0000 -0.1110601988
C   C182      1.0  0.72534  0.50285  0.06855  1.0000 -0.1110601988
C   C183      1.0  0.72534  0.00285  0.43145  1.0000 -0.1110601988
C   C184      1.0  0.27466  0.99715  0.56855  1.0000 -0.1110601988
C   C185      1.0  0.22534  0.49715  0.56855  1.0000 -0.1110601988
C   C186      1.0  0.77466  0.50285  0.43145  1.0000 -0.1110601988
C   C187      1.0  0.77466  0.00285  0.06855  1.0000 -0.1110601988
C   C188      1.0  0.22534  0.99715  0.93145  1.0000 -0.1110601988
C   C189      1.0  0.77466  0.99715  0.93145  1.0000 -0.1110601988
C   C190      1.0  0.22534  0.00285  0.06855  1.0000 -0.1110601988
C   C191      1.0  0.22534  0.50285  0.43145  1.0000 -0.1110601988
C   C192      1.0  0.77466  0.49715  0.56855  1.0000 -0.1110601988
C   C193      1.0  0.65857  0.02629  0.56777  1.0000 -0.071067396
C   C194      1.0  0.34143  0.97371  0.43223  1.0000 -0.071067396
C   C195      1.0  0.34143  0.47371  0.06777  1.0000 -0.071067396
C   C196      1.0  0.65857  0.52629  0.93223  1.0000 -0.071067396
C   C197      1.0  0.34142  0.52629  0.93223  1.0000 -0.071067396
C   C198      1.0  0.65858  0.47371  0.06777  1.0000 -0.071067396
C   C199      1.0  0.65858  0.97371  0.43223  1.0000 -0.071067396
C   C200      1.0  0.34142  0.02629  0.56777  1.0000 -0.071067396
C   C201      1.0  0.15857  0.52629  0.56777  1.0000 -0.071067396
C   C202      1.0  0.84143  0.47371  0.43223  1.0000 -0.071067396
C   C203      1.0  0.84143  0.97371  0.06777  1.0000 -0.071067396
C   C204      1.0  0.15857  0.02629  0.93223  1.0000 -0.071067396
C   C205      1.0  0.84142  0.02629  0.93223  1.0000 -0.071067396
C   C206      1.0  0.15858  0.97371  0.06777  1.0000 -0.071067396
C   C207      1.0  0.15858  0.47371  0.43223  1.0000 -0.071067396
C   C208      1.0  0.84142  0.52629  0.56777  1.0000 -0.071067396
C   C209      1.0  0.80585  0.88555  0.56916  1.0000 -0.0397474996
C   C210      1.0  0.19415  0.11445  0.43084  1.0000 -0.0397474996
C   C211      1.0  0.19415  0.61445  0.06916  1.0000 -0.0397474996
C   C212      1.0  0.80585  0.38555  0.93084  1.0000 -0.0397474996
C   C213      1.0  0.19414  0.38555  0.93084  1.0000 -0.0397474996
C   C214      1.0  0.80586  0.61445  0.06916  1.0000 -0.0397474996
C   C215      1.0  0.80586  0.11445  0.43084  1.0000 -0.0397474996
C   C216      1.0  0.19414  0.88555  0.56916  1.0000 -0.0397474996
C   C217      1.0  0.30585  0.38555  0.56916  1.0000 -0.0397474996
C   C218      1.0  0.69415  0.61445  0.43084  1.0000 -0.0397474996
C   C219      1.0  0.69415  0.11445  0.06916  1.0000 -0.0397474996
C   C220      1.0  0.30585  0.88555  0.93084  1.0000 -0.0397474996
C   C221      1.0  0.69414  0.88555  0.93084  1.0000 -0.0397474996
C   C222      1.0  0.30586  0.11445  0.06916  1.0000 -0.0397474996
C   C223      1.0  0.30586  0.61445  0.43084  1.0000 -0.0397474996
C   C224      1.0  0.69414  0.38555  0.56916  1.0000 -0.0397474996
C   C225      1.0  0.86828  0.93660  0.57032  1.0000 0.6105814486
C   C226      1.0  0.13172  0.06340  0.42968  1.0000 0.6105814486
C   C227      1.0  0.13172  0.56340  0.07032  1.0000 0.6105814486
C   C228      1.0  0.86828  0.43660  0.92968  1.0000 0.6105814486
C   C229      1.0  0.13172  0.43660  0.92967  1.0000 0.6105814486
C   C230      1.0  0.86828  0.56340  0.07033  1.0000 0.6105814486
C   C231      1.0  0.86828  0.06340  0.42967  1.0000 0.6105814486
C   C232      1.0  0.13172  0.93660  0.57033  1.0000 0.6105814486
C   C233      1.0  0.36828  0.43660  0.57032  1.0000 0.6105814486
C   C234      1.0  0.63172  0.56340  0.42968  1.0000 0.6105814486
C   C235      1.0  0.63172  0.06340  0.07032  1.0000 0.6105814486
C   C236      1.0  0.36828  0.93660  0.92968  1.0000 0.6105814486
C   C237      1.0  0.63172  0.93660  0.92967  1.0000 0.6105814486
C   C238      1.0  0.36828  0.06340  0.07033  1.0000 0.6105814486
C   C239      1.0  0.36828  0.56340  0.42967  1.0000 0.6105814486
C   C240      1.0  0.63172  0.43660  0.57033  1.0000 0.6105814486
C   C241      1.0  0.50000  0.77949  0.43050  1.0000 0.5658659844
C   C242      1.0  0.50000  0.22051  0.56950  1.0000 0.5658659844
C   C243      1.0  0.50000  0.72051  0.93050  1.0000 0.5658659844
C   C244      1.0  0.50000  0.27949  0.06950  1.0000 0.5658659844
C   C245      1.0  0.00000  0.27949  0.43050  1.0000 0.5658659844
C   C246      1.0  0.00000  0.72051  0.56950  1.0000 0.5658659844
C   C247      1.0  0.00000  0.22051  0.93050  1.0000 0.5658659844
C   C248      1.0  0.00000  0.77949  0.06950  1.0000 0.5658659844
C   C249      1.0  0.50000  0.79567  0.36877  1.0000 -0.0590860751
C   C250      1.0  0.50000  0.20433  0.63123  1.0000 -0.0590860751
C   C251      1.0  0.50000  0.70433  0.86877  1.0000 -0.0590860751
C   C252      1.0  0.50000  0.29567  0.13123  1.0000 -0.0590860751
C   C253      1.0  0.00000  0.29567  0.36877  1.0000 -0.0590860751
C   C254      1.0  0.00000  0.70433  0.63123  1.0000 -0.0590860751
C   C255      1.0  0.00000  0.20433  0.86877  1.0000 -0.0590860751
C   C256      1.0  0.00000  0.79567  0.13123  1.0000 -0.0590860751
C   C257      1.0  0.50000  0.87390  0.35660  1.0000 -0.0929688064
C   C258      1.0  0.50000  0.12610  0.64340  1.0000 -0.0929688064
C   C259      1.0  0.50000  0.62610  0.85660  1.0000 -0.0929688064
C   C260      1.0  0.50000  0.37390  0.14340  1.0000 -0.0929688064
C   C261      1.0  0.00000  0.37390  0.35660  1.0000 -0.0929688064
C   C262      1.0  0.00000  0.62610  0.64340  1.0000 -0.0929688064
C   C263      1.0  0.00000  0.12610  0.85660  1.0000 -0.0929688064
C   C264      1.0  0.00000  0.87390  0.14340  1.0000 -0.0929688064
C   C265      1.0  0.50000  0.90163  0.30222  1.0000 -0.1008294493
C   C266      1.0  0.50000  0.09837  0.69778  1.0000 -0.1008294493
C   C267      1.0  0.50000  0.59837  0.80222  1.0000 -0.1008294493
C   C268      1.0  0.50000  0.40163  0.19778  1.0000 -0.1008294493
C   C269      1.0  0.00000  0.40163  0.30222  1.0000 -0.1008294493
C   C270      1.0  0.00000  0.59837  0.69778  1.0000 -0.1008294493
C   C271      1.0  0.00000  0.09837  0.80222  1.0000 -0.1008294493
C   C272      1.0  0.00000  0.90163  0.19778  1.0000 -0.1008294493
C   C273      1.0  0.50000  0.84893  0.25884  1.0000 -0.0537208563
C   C274      1.0  0.50000  0.15107  0.74116  1.0000 -0.0537208563
C   C275      1.0  0.50000  0.65107  0.75884  1.0000 -0.0537208563
C   C276      1.0  0.50000  0.34893  0.24116  1.0000 -0.0537208563
C   C277      1.0  0.00000  0.34893  0.25884  1.0000 -0.0537208563
C   C278      1.0  0.00000  0.65107  0.74116  1.0000 -0.0537208563
C   C279      1.0  0.00000  0.15107  0.75884  1.0000 -0.0537208563
C   C280      1.0  0.00000  0.84893  0.24116  1.0000 -0.0537208563
C   C281      1.0  0.50000  0.87763  0.20037  1.0000 0.6105814486
C   C282      1.0  0.50000  0.12237  0.79963  1.0000 0.6105814486
C   C283      1.0  0.50000  0.62237  0.70037  1.0000 0.6105814486
C   C284      1.0  0.50000  0.37763  0.29963  1.0000 0.6105814486
C   C285      1.0  0.00000  0.37763  0.20037  1.0000 0.6105814486
C   C286      1.0  0.00000  0.62237  0.79963  1.0000 0.6105814486
C   C287      1.0  0.00000  0.12237  0.70037  1.0000 0.6105814486
C   C288      1.0  0.00000  0.87763  0.29963  1.0000 0.6105814486
O   O1        1.0  0.65735  0.65472  0.58334  1.0000 -0.5383780578
O   O2        1.0  0.34265  0.34528  0.41666  1.0000 -0.5383780578
O   O3        1.0  0.34265  0.84528  0.08334  1.0000 -0.5383780578
O   O4        1.0  0.65735  0.15472  0.91666  1.0000 -0.5383780578
O   O5        1.0  0.34265  0.15472  0.91666  1.0000 -0.5383780578
O   O6        1.0  0.65735  0.84528  0.08334  1.0000 -0.5383780578
O   O7        1.0  0.65735  0.34528  0.41666  1.0000 -0.5383780578
O   O8        1.0  0.34265  0.65472  0.58334  1.0000 -0.5383780578
O   O9        1.0  0.15735  0.15472  0.58334  1.0000 -0.5383780578
O   O10       1.0  0.84265  0.84528  0.41666  1.0000 -0.5383780578
O   O11       1.0  0.84265  0.34528  0.08334  1.0000 -0.5383780578
O   O12       1.0  0.15735  0.65472  0.91666  1.0000 -0.5383780578
O   O13       1.0  0.84265  0.65472  0.91666  1.0000 -0.5383780578
O   O14       1.0  0.15735  0.34528  0.08334  1.0000 -0.5383780578
O   O15       1.0  0.15735  0.84528  0.41666  1.0000 -0.5383780578
O   O16       1.0  0.84265  0.15472  0.58334  1.0000 -0.5383780578
O   O17       1.0  0.57553  0.74205  0.55980  1.0000 -0.5383780578
O   O18       1.0  0.42447  0.25795  0.44020  1.0000 -0.5383780578
O   O19       1.0  0.42447  0.75795  0.05980  1.0000 -0.5383780578
O   O20       1.0  0.57553  0.24205  0.94020  1.0000 -0.5383780578
O   O21       1.0  0.42447  0.24206  0.94021  1.0000 -0.5383780578
O   O22       1.0  0.57553  0.75794  0.05979  1.0000 -0.5383780578
O   O23       1.0  0.57553  0.25794  0.44021  1.0000 -0.5383780578
O   O24       1.0  0.42447  0.74206  0.55979  1.0000 -0.5383780578
O   O25       1.0  0.07553  0.24205  0.55980  1.0000 -0.5383780578
O   O26       1.0  0.92447  0.75795  0.44020  1.0000 -0.5383780578
O   O27       1.0  0.92447  0.25795  0.05980  1.0000 -0.5383780578
O   O28       1.0  0.07553  0.74205  0.94020  1.0000 -0.5383780578
O   O29       1.0  0.92447  0.74206  0.94021  1.0000 -0.5383780578
O   O30       1.0  0.07553  0.25794  0.05979  1.0000 -0.5383780578
O   O31       1.0  0.07553  0.75794  0.44021  1.0000 -0.5383780578
O   O32       1.0  0.92447  0.24206  0.55979  1.0000 -0.5383780578
O   O33       1.0  0.91403  0.92804  0.53301  1.0000 -0.5531423779
O   O34       1.0  0.08597  0.07196  0.46699  1.0000 -0.5531423779
O   O35       1.0  0.08597  0.57196  0.03301  1.0000 -0.5531423779
O   O36       1.0  0.91403  0.42804  0.96699  1.0000 -0.5531423779
O   O37       1.0  0.08597  0.42804  0.96699  1.0000 -0.5531423779
O   O38       1.0  0.91403  0.57196  0.03301  1.0000 -0.5531423779
O   O39       1.0  0.91403  0.07196  0.46699  1.0000 -0.5531423779
O   O40       1.0  0.08597  0.92804  0.53301  1.0000 -0.5531423779
O   O41       1.0  0.41403  0.42804  0.53301  1.0000 -0.5531423779
O   O42       1.0  0.58597  0.57196  0.46699  1.0000 -0.5531423779
O   O43       1.0  0.58597  0.07196  0.03301  1.0000 -0.5531423779
O   O44       1.0  0.41403  0.92804  0.96699  1.0000 -0.5531423779
O   O45       1.0  0.58597  0.92804  0.96699  1.0000 -0.5531423779
O   O46       1.0  0.41403  0.07196  0.03301  1.0000 -0.5531423779
O   O47       1.0  0.41403  0.57196  0.46699  1.0000 -0.5531423779
O   O48       1.0  0.58597  0.42804  0.53301  1.0000 -0.5531423779
O   O49       1.0  0.86929  0.98506  0.61076  1.0000 -0.5181923692
O   O50       1.0  0.13071  0.01494  0.38924  1.0000 -0.5181923692
O   O51       1.0  0.13071  0.51494  0.11076  1.0000 -0.5181923692
O   O52       1.0  0.86929  0.48506  0.88924  1.0000 -0.5181923692
O   O53       1.0  0.13070  0.48506  0.88924  1.0000 -0.5181923692
O   O54       1.0  0.86930  0.51494  0.11076  1.0000 -0.5181923692
O   O55       1.0  0.86930  0.01494  0.38924  1.0000 -0.5181923692
O   O56       1.0  0.13070  0.98506  0.61076  1.0000 -0.5181923692
O   O57       1.0  0.36929  0.48506  0.61076  1.0000 -0.5181923692
O   O58       1.0  0.63071  0.51494  0.38924  1.0000 -0.5181923692
O   O59       1.0  0.63071  0.01494  0.11076  1.0000 -0.5181923692
O   O60       1.0  0.36929  0.98506  0.88924  1.0000 -0.5181923692
O   O61       1.0  0.63070  0.98506  0.88924  1.0000 -0.5181923692
O   O62       1.0  0.36930  0.01494  0.11076  1.0000 -0.5181923692
O   O63       1.0  0.36930  0.51494  0.38924  1.0000 -0.5181923692
O   O64       1.0  0.63070  0.48506  0.61076  1.0000 -0.5181923692
O   O65       1.0  0.50000  0.58125  0.55666  1.0000 -0.9658464284
O   O66       1.0  0.50000  0.41875  0.44334  1.0000 -0.9658464284
O   O67       1.0  0.50000  0.91875  0.05666  1.0000 -0.9658464284
O   O68       1.0  0.50000  0.08125  0.94334  1.0000 -0.964306304
O   O69       1.0  0.00000  0.08125  0.55666  1.0000 -0.964306304
O   O70       1.0  0.00000  0.91875  0.44334  1.0000 -0.9658464284
O   O71       1.0  0.00000  0.41875  0.05666  1.0000 -0.9658464284
O   O72       1.0  0.00000  0.58125  0.94334  1.0000 -0.9658464284
O   O73       1.0  0.50000  0.70652  0.44363  1.0000 -0.5575053783
O   O74       1.0  0.50000  0.29348  0.55637  1.0000 -0.5575053783
O   O75       1.0  0.50000  0.79348  0.94363  1.0000 -0.5575053783
O   O76       1.0  0.50000  0.20652  0.05637  1.0000 -0.5575053783
O   O77       1.0  0.00000  0.20652  0.44363  1.0000 -0.5575053783
O   O78       1.0  0.00000  0.79348  0.55637  1.0000 -0.5575053783
O   O79       1.0  0.00000  0.29348  0.94363  1.0000 -0.5575053783
O   O80       1.0  0.00000  0.70652  0.05637  1.0000 -0.5575053783
O   O81       1.0  0.49999  0.83382  0.46439  1.0000 -0.5033351051
O   O82       1.0  0.50001  0.16618  0.53561  1.0000 -0.5033351051
O   O83       1.0  0.50001  0.66618  0.96439  1.0000 -0.5033351051
O   O84       1.0  0.49999  0.33382  0.03561  1.0000 -0.5033351051
O   O85       1.0  0.99999  0.33382  0.46439  1.0000 -0.5033351051
O   O86       1.0  0.00001  0.66618  0.53561  1.0000 -0.5033351051
O   O87       1.0  0.00001  0.16618  0.96439  1.0000 -0.5033351051
O   O88       1.0  0.99999  0.83382  0.03561  1.0000 -0.5033351051
O   O89       1.0  0.44035  0.88820  0.17899  1.0000 -0.5181923692
O   O90       1.0  0.55965  0.11180  0.82101  1.0000 -0.5181923692
O   O91       1.0  0.55965  0.61180  0.67899  1.0000 -0.5181923692
O   O92       1.0  0.44035  0.38820  0.32101  1.0000 -0.5181923692
O   O93       1.0  0.55965  0.38820  0.32100  1.0000 -0.5181923692
O   O94       1.0  0.44035  0.61180  0.67900  1.0000 -0.5181923692
O   O95       1.0  0.44035  0.11180  0.82100  1.0000 -0.5181923692
O   O96       1.0  0.55965  0.88820  0.17900  1.0000 -0.5181923692
O   O97       1.0  0.94035  0.38820  0.17899  1.0000 -0.5181923692
O   O98       1.0  0.05965  0.61180  0.82101  1.0000 -0.5181923692
O   O99       1.0  0.05965  0.11180  0.67899  1.0000 -0.5181923692
O   O100      1.0  0.94035  0.88820  0.32101  1.0000 -0.5181923692
O   O101      1.0  0.05965  0.88820  0.32100  1.0000 -0.5181923692
O   O102      1.0  0.94035  0.11180  0.67900  1.0000 -0.5181923692
O   O103      1.0  0.94035  0.61180  0.82100  1.0000 -0.5181923692
O   O104      1.0  0.05965  0.38820  0.17900  1.0000 -0.5181923692
