# DDEC6 charges by PACMAN v1.1 (https://github.com/mtap-research/PACMAN-charge/)
data_2016[Zn][ths]3[ASR]9
_chemical_formula_sum              "Zn24 H192 C288 I48 N96"
_cell_length_a       39.7112
_cell_length_b       34.5319
_cell_length_c       8.26132
_cell_angle_alpha    90
_cell_angle_beta     90
_cell_angle_gamma    90

_symmetry_space_group_name_H-M    "P 1"
_symmetry_Int_Tables_number       1

loop_
  _symmetry_equiv_pos_as_xyz
  'x, y, z'

loop_
  _atom_site_type_symbol
  _atom_site_label
  _atom_site_symmetry_multiplicity
  _atom_site_fract_x
  _atom_site_fract_y
  _atom_site_fract_z
  _atom_site_occupancy
  _atom_site_charge
Zn  Zn1       1.0  0.07163  0.24518  0.28848  1.0000 0.4726198255
Zn  Zn2       1.0  0.92837  0.75482  0.28848  1.0000 0.4726198255
Zn  Zn3       1.0  0.32163  0.00482  0.53848  1.0000 0.4726198255
Zn  Zn4       1.0  0.17837  0.49518  0.53848  1.0000 0.4726198255
Zn  Zn5       1.0  0.07163  0.74518  0.78848  1.0000 0.4726198255
Zn  Zn6       1.0  0.92837  0.25482  0.78848  1.0000 0.4726198255
Zn  Zn7       1.0  0.32163  0.50482  0.03848  1.0000 0.4726198255
Zn  Zn8       1.0  0.17837  0.99518  0.03848  1.0000 0.4726198255
Zn  Zn9       1.0  0.57163  0.24518  0.78848  1.0000 0.4726198255
Zn  Zn10      1.0  0.42837  0.75482  0.78848  1.0000 0.4726198255
Zn  Zn11      1.0  0.82163  0.00482  0.03848  1.0000 0.4726198255
Zn  Zn12      1.0  0.67837  0.49518  0.03848  1.0000 0.4726198255
Zn  Zn13      1.0  0.57163  0.74518  0.28848  1.0000 0.4726198255
Zn  Zn14      1.0  0.42837  0.25482  0.28848  1.0000 0.4726198255
Zn  Zn15      1.0  0.82163  0.50482  0.53848  1.0000 0.4726198255
Zn  Zn16      1.0  0.67837  0.99518  0.53848  1.0000 0.4726198255
Zn  Zn17      1.0  0.25000  0.25000  0.95641  1.0000 0.4606593769
Zn  Zn18      1.0  0.75000  0.75000  0.95641  1.0000 0.4606593769
Zn  Zn19      1.0  0.50000  0.00000  0.20641  1.0000 0.4606593769
Zn  Zn20      1.0  0.00000  0.50000  0.20641  1.0000 0.4606593769
Zn  Zn21      1.0  0.25000  0.75000  0.45641  1.0000 0.4606593769
Zn  Zn22      1.0  0.75000  0.25000  0.45641  1.0000 0.4606593769
Zn  Zn23      1.0  0.50000  0.50000  0.70641  1.0000 0.4606593769
Zn  Zn24      1.0  0.00000  0.00000  0.70641  1.0000 0.4606593769
H   H1        1.0  0.15327  0.35786  0.13900  1.0000 0.1260182835
H   H2        1.0  0.84673  0.64214  0.13900  1.0000 0.1260182835
H   H3        1.0  0.40327  0.89214  0.38900  1.0000 0.1260182835
H   H4        1.0  0.09673  0.60786  0.38900  1.0000 0.1260182835
H   H5        1.0  0.15327  0.85786  0.63900  1.0000 0.1260182835
H   H6        1.0  0.84673  0.14214  0.63900  1.0000 0.1260182835
H   H7        1.0  0.40327  0.39214  0.88900  1.0000 0.1260182835
H   H8        1.0  0.09673  0.10786  0.88900  1.0000 0.1260182835
H   H9        1.0  0.65327  0.35786  0.63900  1.0000 0.1260182835
H   H10       1.0  0.34673  0.64214  0.63900  1.0000 0.1260182835
H   H11       1.0  0.90327  0.89214  0.88900  1.0000 0.1260182835
H   H12       1.0  0.59673  0.60786  0.88900  1.0000 0.1260182835
H   H13       1.0  0.65327  0.85786  0.13900  1.0000 0.1260182835
H   H14       1.0  0.34673  0.14214  0.13900  1.0000 0.1260182835
H   H15       1.0  0.90327  0.39214  0.38900  1.0000 0.1260182835
H   H16       1.0  0.59673  0.10786  0.38900  1.0000 0.1260182835
H   H17       1.0  0.10998  0.22815  0.99003  1.0000 0.082587272
H   H18       1.0  0.89002  0.77185  0.99003  1.0000 0.082587272
H   H19       1.0  0.35998  0.02185  0.24003  1.0000 0.082587272
H   H20       1.0  0.14002  0.47815  0.24003  1.0000 0.082587272
H   H21       1.0  0.10998  0.72815  0.49003  1.0000 0.082587272
H   H22       1.0  0.89002  0.27185  0.49003  1.0000 0.082587272
H   H23       1.0  0.35998  0.52185  0.74003  1.0000 0.082587272
H   H24       1.0  0.14002  0.97815  0.74003  1.0000 0.082587272
H   H25       1.0  0.60998  0.22815  0.49003  1.0000 0.082587272
H   H26       1.0  0.39002  0.77185  0.49003  1.0000 0.082587272
H   H27       1.0  0.85998  0.02185  0.74003  1.0000 0.082587272
H   H28       1.0  0.64002  0.47815  0.74003  1.0000 0.082587272
H   H29       1.0  0.60998  0.72815  0.99003  1.0000 0.082587272
H   H30       1.0  0.39002  0.27185  0.99003  1.0000 0.082587272
H   H31       1.0  0.85998  0.52185  0.24003  1.0000 0.082587272
H   H32       1.0  0.64002  0.97815  0.24003  1.0000 0.082587272
H   H33       1.0  0.11223  0.32062  0.31450  1.0000 0.0955519634
H   H34       1.0  0.88777  0.67938  0.31450  1.0000 0.0955519634
H   H35       1.0  0.36223  0.92938  0.56450  1.0000 0.0955519634
H   H36       1.0  0.13777  0.57062  0.56450  1.0000 0.0955519634
H   H37       1.0  0.11223  0.82062  0.81450  1.0000 0.0955519634
H   H38       1.0  0.88777  0.17938  0.81450  1.0000 0.0955519634
H   H39       1.0  0.36223  0.42938  0.06450  1.0000 0.0955519634
H   H40       1.0  0.13777  0.07062  0.06450  1.0000 0.0955519634
H   H41       1.0  0.61223  0.32062  0.81450  1.0000 0.0955519634
H   H42       1.0  0.38777  0.67938  0.81450  1.0000 0.0955519634
H   H43       1.0  0.86223  0.92938  0.06450  1.0000 0.0955519634
H   H44       1.0  0.63777  0.57062  0.06450  1.0000 0.0955519634
H   H45       1.0  0.61223  0.82062  0.31450  1.0000 0.0955519634
H   H46       1.0  0.38777  0.17938  0.31450  1.0000 0.0955519634
H   H47       1.0  0.86223  0.42938  0.56450  1.0000 0.0955519634
H   H48       1.0  0.63777  0.07062  0.56450  1.0000 0.0955519634
H   H49       1.0  0.04749  0.27484  0.96934  1.0000 0.089742115
H   H50       1.0  0.95251  0.72516  0.96934  1.0000 0.089742115
H   H51       1.0  0.29749  0.97516  0.21934  1.0000 0.089742115
H   H52       1.0  0.20251  0.52484  0.21934  1.0000 0.089742115
H   H53       1.0  0.04749  0.77484  0.46934  1.0000 0.089742115
H   H54       1.0  0.95251  0.22516  0.46934  1.0000 0.089742115
H   H55       1.0  0.29749  0.47516  0.71934  1.0000 0.089742115
H   H56       1.0  0.20251  0.02484  0.71934  1.0000 0.089742115
H   H57       1.0  0.54749  0.27484  0.46934  1.0000 0.089742115
H   H58       1.0  0.45251  0.72516  0.46934  1.0000 0.089742115
H   H59       1.0  0.79749  0.97516  0.71934  1.0000 0.089742115
H   H60       1.0  0.70251  0.52484  0.71934  1.0000 0.089742115
H   H61       1.0  0.54749  0.77484  0.96934  1.0000 0.089742115
H   H62       1.0  0.45251  0.22516  0.96934  1.0000 0.089742115
H   H63       1.0  0.79749  0.47516  0.21934  1.0000 0.089742115
H   H64       1.0  0.70251  0.02484  0.21934  1.0000 0.089742115
H   H65       1.0  0.97610  0.34601  0.35847  1.0000 0.1128655768
H   H66       1.0  0.02390  0.65399  0.35847  1.0000 0.1128655768
H   H67       1.0  0.22610  0.90399  0.60847  1.0000 0.1128655768
H   H68       1.0  0.27390  0.59601  0.60847  1.0000 0.1128655768
H   H69       1.0  0.97610  0.84601  0.85847  1.0000 0.1128655768
H   H70       1.0  0.02390  0.15399  0.85847  1.0000 0.1128655768
H   H71       1.0  0.22610  0.40399  0.10847  1.0000 0.1128655768
H   H72       1.0  0.27390  0.09601  0.10847  1.0000 0.1128655768
H   H73       1.0  0.47610  0.34601  0.85847  1.0000 0.1128655768
H   H74       1.0  0.52390  0.65399  0.85847  1.0000 0.1128655768
H   H75       1.0  0.72610  0.90399  0.10847  1.0000 0.1128655768
H   H76       1.0  0.77390  0.59601  0.10847  1.0000 0.1128655768
H   H77       1.0  0.47610  0.84601  0.35847  1.0000 0.1128655768
H   H78       1.0  0.52390  0.15399  0.35847  1.0000 0.1128655768
H   H79       1.0  0.72610  0.40399  0.60847  1.0000 0.1128655768
H   H80       1.0  0.77390  0.09601  0.60847  1.0000 0.1128655768
H   H81       1.0  0.14940  0.26267  0.79742  1.0000 0.1128655768
H   H82       1.0  0.85060  0.73733  0.79742  1.0000 0.1128655768
H   H83       1.0  0.39940  0.98733  0.04742  1.0000 0.1128655768
H   H84       1.0  0.10060  0.51267  0.04742  1.0000 0.1128655768
H   H85       1.0  0.14940  0.76267  0.29742  1.0000 0.1128655768
H   H86       1.0  0.85060  0.23733  0.29742  1.0000 0.1128655768
H   H87       1.0  0.39940  0.48733  0.54742  1.0000 0.1128655768
H   H88       1.0  0.10060  0.01267  0.54742  1.0000 0.1128655768
H   H89       1.0  0.64940  0.26267  0.29742  1.0000 0.1128655768
H   H90       1.0  0.35060  0.73733  0.29742  1.0000 0.1128655768
H   H91       1.0  0.89940  0.98733  0.54742  1.0000 0.1128655768
H   H92       1.0  0.60060  0.51267  0.54742  1.0000 0.1128655768
H   H93       1.0  0.64940  0.76267  0.79742  1.0000 0.1128655768
H   H94       1.0  0.35060  0.23733  0.79742  1.0000 0.1128655768
H   H95       1.0  0.89940  0.48733  0.04742  1.0000 0.1128655768
H   H96       1.0  0.60060  0.01267  0.04742  1.0000 0.1128655768
H   H97       1.0  0.01734  0.29428  0.44698  1.0000 0.082587272
H   H98       1.0  0.98266  0.70572  0.44698  1.0000 0.082587272
H   H99       1.0  0.26734  0.95572  0.69698  1.0000 0.082587272
H   H100      1.0  0.23266  0.54428  0.69698  1.0000 0.082587272
H   H101      1.0  0.01734  0.79428  0.94698  1.0000 0.082587272
H   H102      1.0  0.98266  0.20572  0.94698  1.0000 0.082587272
H   H103      1.0  0.26734  0.45572  0.19698  1.0000 0.082587272
H   H104      1.0  0.23266  0.04428  0.19698  1.0000 0.082587272
H   H105      1.0  0.51734  0.29428  0.94698  1.0000 0.082587272
H   H106      1.0  0.48266  0.70572  0.94698  1.0000 0.082587272
H   H107      1.0  0.76734  0.95572  0.19698  1.0000 0.082587272
H   H108      1.0  0.73266  0.54428  0.19698  1.0000 0.082587272
H   H109      1.0  0.51734  0.79428  0.44698  1.0000 0.082587272
H   H110      1.0  0.48266  0.20572  0.44698  1.0000 0.082587272
H   H111      1.0  0.76734  0.45572  0.69698  1.0000 0.082587272
H   H112      1.0  0.73266  0.04428  0.69698  1.0000 0.082587272
H   H113      1.0  0.00992  0.32817  0.86580  1.0000 0.1223086449
H   H114      1.0  0.99008  0.67183  0.86580  1.0000 0.1223086449
H   H115      1.0  0.25992  0.92183  0.11580  1.0000 0.1223086449
H   H116      1.0  0.24008  0.57817  0.11580  1.0000 0.1223086449
H   H117      1.0  0.00992  0.82817  0.36580  1.0000 0.1223086449
H   H118      1.0  0.99008  0.17183  0.36580  1.0000 0.1223086449
H   H119      1.0  0.25992  0.42183  0.61580  1.0000 0.1223086449
H   H120      1.0  0.24008  0.07817  0.61580  1.0000 0.1223086449
H   H121      1.0  0.50992  0.32817  0.36580  1.0000 0.1223086449
H   H122      1.0  0.49008  0.67183  0.36580  1.0000 0.1223086449
H   H123      1.0  0.75992  0.92183  0.61580  1.0000 0.1223086449
H   H124      1.0  0.74008  0.57817  0.61580  1.0000 0.1223086449
H   H125      1.0  0.50992  0.82817  0.86580  1.0000 0.1223086449
H   H126      1.0  0.49008  0.17183  0.86580  1.0000 0.1223086449
H   H127      1.0  0.75992  0.42183  0.11580  1.0000 0.1223086449
H   H128      1.0  0.74008  0.07817  0.11580  1.0000 0.1223086449
H   H129      1.0  0.17959  0.26596  0.47934  1.0000 0.1260182835
H   H130      1.0  0.82041  0.73404  0.47934  1.0000 0.1260182835
H   H131      1.0  0.42959  0.98404  0.72934  1.0000 0.1260182835
H   H132      1.0  0.07041  0.51596  0.72934  1.0000 0.1260182835
H   H133      1.0  0.17959  0.76596  0.97934  1.0000 0.1260182835
H   H134      1.0  0.82041  0.23404  0.97934  1.0000 0.1260182835
H   H135      1.0  0.42959  0.48404  0.22934  1.0000 0.1260182835
H   H136      1.0  0.07041  0.01596  0.22934  1.0000 0.1260182835
H   H137      1.0  0.67959  0.26596  0.97934  1.0000 0.1260182835
H   H138      1.0  0.32041  0.73404  0.97934  1.0000 0.1260182835
H   H139      1.0  0.92959  0.98404  0.22934  1.0000 0.1260182835
H   H140      1.0  0.57041  0.51596  0.22934  1.0000 0.1260182835
H   H141      1.0  0.67959  0.76596  0.47934  1.0000 0.1260182835
H   H142      1.0  0.32041  0.23404  0.47934  1.0000 0.1260182835
H   H143      1.0  0.92959  0.48404  0.72934  1.0000 0.1260182835
H   H144      1.0  0.57041  0.01596  0.72934  1.0000 0.1260182835
H   H145      1.0  0.24680  0.36107  0.37268  1.0000 0.1223086449
H   H146      1.0  0.75320  0.63893  0.37268  1.0000 0.1223086449
H   H147      1.0  0.49680  0.88893  0.62268  1.0000 0.1223086449
H   H148      1.0  0.00320  0.61107  0.62268  1.0000 0.1223086449
H   H149      1.0  0.24680  0.86107  0.87268  1.0000 0.1223086449
H   H150      1.0  0.75320  0.13893  0.87268  1.0000 0.1223086449
H   H151      1.0  0.49680  0.38893  0.12268  1.0000 0.1223086449
H   H152      1.0  0.00320  0.11107  0.12268  1.0000 0.1223086449
H   H153      1.0  0.74680  0.36107  0.87268  1.0000 0.1223086449
H   H154      1.0  0.25320  0.63893  0.87268  1.0000 0.1223086449
H   H155      1.0  0.99680  0.88893  0.12268  1.0000 0.1223086449
H   H156      1.0  0.50320  0.61107  0.12268  1.0000 0.1223086449
H   H157      1.0  0.74680  0.86107  0.37268  1.0000 0.1223086449
H   H158      1.0  0.25320  0.13893  0.37268  1.0000 0.1223086449
H   H159      1.0  0.99680  0.38893  0.62268  1.0000 0.1223086449
H   H160      1.0  0.50320  0.11107  0.62268  1.0000 0.1223086449
H   H161      1.0  0.19383  0.23791  0.20360  1.0000 0.089742115
H   H162      1.0  0.80617  0.76209  0.20360  1.0000 0.089742115
H   H163      1.0  0.44383  0.01209  0.45360  1.0000 0.089742115
H   H164      1.0  0.05617  0.48791  0.45360  1.0000 0.089742115
H   H165      1.0  0.19383  0.73791  0.70360  1.0000 0.089742115
H   H166      1.0  0.80617  0.26209  0.70360  1.0000 0.089742115
H   H167      1.0  0.44383  0.51209  0.95360  1.0000 0.089742115
H   H168      1.0  0.05617  0.98791  0.95360  1.0000 0.089742115
H   H169      1.0  0.69383  0.23791  0.70360  1.0000 0.089742115
H   H170      1.0  0.30617  0.76209  0.70360  1.0000 0.089742115
H   H171      1.0  0.94383  0.01209  0.95360  1.0000 0.089742115
H   H172      1.0  0.55617  0.48791  0.95360  1.0000 0.089742115
H   H173      1.0  0.69383  0.73791  0.20360  1.0000 0.089742115
H   H174      1.0  0.30617  0.26209  0.20360  1.0000 0.089742115
H   H175      1.0  0.94383  0.51209  0.45360  1.0000 0.089742115
H   H176      1.0  0.55617  0.98791  0.45360  1.0000 0.089742115
H   H177      1.0  0.25796  0.32997  0.09781  1.0000 0.082587272
H   H178      1.0  0.74204  0.67003  0.09781  1.0000 0.082587272
H   H179      1.0  0.50796  0.92003  0.34781  1.0000 0.082587272
H   H180      1.0  0.99204  0.57997  0.34781  1.0000 0.082587272
H   H181      1.0  0.25796  0.82997  0.59781  1.0000 0.082587272
H   H182      1.0  0.74204  0.17003  0.59781  1.0000 0.082587272
H   H183      1.0  0.50796  0.42003  0.84781  1.0000 0.082587272
H   H184      1.0  0.99204  0.07997  0.84781  1.0000 0.082587272
H   H185      1.0  0.75796  0.32997  0.59781  1.0000 0.082587272
H   H186      1.0  0.24204  0.67003  0.59781  1.0000 0.082587272
H   H187      1.0  0.00796  0.92003  0.84781  1.0000 0.082587272
H   H188      1.0  0.49204  0.57997  0.84781  1.0000 0.082587272
H   H189      1.0  0.75796  0.82997  0.09781  1.0000 0.082587272
H   H190      1.0  0.24204  0.17003  0.09781  1.0000 0.082587272
H   H191      1.0  0.00796  0.42003  0.34781  1.0000 0.082587272
H   H192      1.0  0.49204  0.07997  0.34781  1.0000 0.082587272
C   C1        1.0  0.14367  0.32947  0.10139  1.0000 -0.1358980531
C   C2        1.0  0.85633  0.67053  0.10139  1.0000 -0.1358980531
C   C3        1.0  0.39367  0.92053  0.35139  1.0000 -0.1358980531
C   C4        1.0  0.10633  0.57947  0.35139  1.0000 -0.1358980531
C   C5        1.0  0.14367  0.82947  0.60139  1.0000 -0.1358980531
C   C6        1.0  0.85633  0.17053  0.60139  1.0000 -0.1358980531
C   C7        1.0  0.39367  0.42053  0.85139  1.0000 -0.1358980531
C   C8        1.0  0.10633  0.07947  0.85139  1.0000 -0.1358980531
C   C9        1.0  0.64367  0.32947  0.60139  1.0000 -0.1358980531
C   C10       1.0  0.35633  0.67053  0.60139  1.0000 -0.1358980531
C   C11       1.0  0.89367  0.92053  0.85139  1.0000 -0.1358980531
C   C12       1.0  0.60633  0.57947  0.85139  1.0000 -0.1358980531
C   C13       1.0  0.64367  0.82947  0.10139  1.0000 -0.1358980531
C   C14       1.0  0.35633  0.17053  0.10139  1.0000 -0.1358980531
C   C15       1.0  0.89367  0.42053  0.35139  1.0000 -0.1358980531
C   C16       1.0  0.60633  0.07947  0.35139  1.0000 -0.1358980531
C   C17       1.0  0.12000  0.25704  0.01675  1.0000 0.089742115
C   C18       1.0  0.88000  0.74296  0.01675  1.0000 0.089742115
C   C19       1.0  0.37000  0.99296  0.26675  1.0000 0.089742115
C   C20       1.0  0.13000  0.50704  0.26675  1.0000 0.089742115
C   C21       1.0  0.12000  0.75704  0.51675  1.0000 0.089742115
C   C22       1.0  0.88000  0.24296  0.51675  1.0000 0.089742115
C   C23       1.0  0.37000  0.49296  0.76675  1.0000 0.089742115
C   C24       1.0  0.13000  0.00704  0.76675  1.0000 0.089742115
C   C25       1.0  0.62000  0.25704  0.51675  1.0000 0.089742115
C   C26       1.0  0.38000  0.74296  0.51675  1.0000 0.089742115
C   C27       1.0  0.87000  0.99296  0.76675  1.0000 0.089742115
C   C28       1.0  0.63000  0.50704  0.76675  1.0000 0.089742115
C   C29       1.0  0.62000  0.75704  0.01675  1.0000 0.089742115
C   C30       1.0  0.38000  0.24296  0.01675  1.0000 0.089742115
C   C31       1.0  0.87000  0.49296  0.26675  1.0000 0.089742115
C   C32       1.0  0.63000  0.00704  0.26675  1.0000 0.089742115
C   C33       1.0  0.12131  0.30895  0.19907  1.0000 0.089742115
C   C34       1.0  0.87869  0.69105  0.19907  1.0000 0.089742115
C   C35       1.0  0.37131  0.94105  0.44907  1.0000 0.089742115
C   C36       1.0  0.12869  0.55895  0.44907  1.0000 0.089742115
C   C37       1.0  0.12131  0.80895  0.69907  1.0000 0.089742115
C   C38       1.0  0.87869  0.19105  0.69907  1.0000 0.089742115
C   C39       1.0  0.37131  0.44105  0.94907  1.0000 0.089742115
C   C40       1.0  0.12869  0.05895  0.94907  1.0000 0.089742115
C   C41       1.0  0.62131  0.30895  0.69907  1.0000 0.089742115
C   C42       1.0  0.37869  0.69105  0.69907  1.0000 0.089742115
C   C43       1.0  0.87131  0.94105  0.94907  1.0000 0.089742115
C   C44       1.0  0.62869  0.55895  0.94907  1.0000 0.089742115
C   C45       1.0  0.62131  0.80895  0.19907  1.0000 0.089742115
C   C46       1.0  0.37869  0.19105  0.19907  1.0000 0.089742115
C   C47       1.0  0.87131  0.44105  0.44907  1.0000 0.089742115
C   C48       1.0  0.62869  0.05895  0.44907  1.0000 0.089742115
C   C49       1.0  0.17871  0.33151  0.84630  1.0000 0.3786647837
C   C50       1.0  0.82129  0.66849  0.84630  1.0000 0.3786647837
C   C51       1.0  0.42871  0.91849  0.09630  1.0000 0.3786647837
C   C52       1.0  0.07129  0.58151  0.09630  1.0000 0.3786647837
C   C53       1.0  0.17871  0.83151  0.34630  1.0000 0.3786647837
C   C54       1.0  0.82129  0.16849  0.34630  1.0000 0.3786647837
C   C55       1.0  0.42871  0.41849  0.59630  1.0000 0.3786647837
C   C56       1.0  0.07129  0.08151  0.59630  1.0000 0.3786647837
C   C57       1.0  0.67871  0.33151  0.34630  1.0000 0.3786647837
C   C58       1.0  0.32129  0.66849  0.34630  1.0000 0.3786647837
C   C59       1.0  0.92871  0.91849  0.59630  1.0000 0.3786647837
C   C60       1.0  0.57129  0.58151  0.59630  1.0000 0.3786647837
C   C61       1.0  0.67871  0.83151  0.84630  1.0000 0.3786647837
C   C62       1.0  0.32129  0.16849  0.84630  1.0000 0.3786647837
C   C63       1.0  0.92871  0.41849  0.09630  1.0000 0.3786647837
C   C64       1.0  0.57129  0.08151  0.09630  1.0000 0.3786647837
C   C65       1.0  0.99102  0.34157  0.10620  1.0000 0.051333432
C   C66       1.0  0.00898  0.65843  0.10620  1.0000 0.051333432
C   C67       1.0  0.24102  0.90843  0.35620  1.0000 0.051333432
C   C68       1.0  0.25898  0.59157  0.35620  1.0000 0.051333432
C   C69       1.0  0.99102  0.84157  0.60620  1.0000 0.051333432
C   C70       1.0  0.00898  0.15843  0.60620  1.0000 0.051333432
C   C71       1.0  0.24102  0.40843  0.85620  1.0000 0.051333432
C   C72       1.0  0.25898  0.09157  0.85620  1.0000 0.051333432
C   C73       1.0  0.49102  0.34157  0.60620  1.0000 0.051333432
C   C74       1.0  0.50898  0.65843  0.60620  1.0000 0.051333432
C   C75       1.0  0.74102  0.90843  0.85620  1.0000 0.051333432
C   C76       1.0  0.75898  0.59157  0.85620  1.0000 0.051333432
C   C77       1.0  0.49102  0.84157  0.10620  1.0000 0.051333432
C   C78       1.0  0.50898  0.15843  0.10620  1.0000 0.051333432
C   C79       1.0  0.74102  0.40843  0.35620  1.0000 0.051333432
C   C80       1.0  0.75898  0.09157  0.35620  1.0000 0.051333432
C   C81       1.0  0.03182  0.29190  0.05202  1.0000 0.0955519634
C   C82       1.0  0.96818  0.70810  0.05202  1.0000 0.0955519634
C   C83       1.0  0.28182  0.95810  0.30202  1.0000 0.0955519634
C   C84       1.0  0.21818  0.54190  0.30202  1.0000 0.0955519634
C   C85       1.0  0.03182  0.79190  0.55202  1.0000 0.0955519634
C   C86       1.0  0.96818  0.20810  0.55202  1.0000 0.0955519634
C   C87       1.0  0.28182  0.45810  0.80202  1.0000 0.0955519634
C   C88       1.0  0.21818  0.04190  0.80202  1.0000 0.0955519634
C   C89       1.0  0.53182  0.29190  0.55202  1.0000 0.0955519634
C   C90       1.0  0.46818  0.70810  0.55202  1.0000 0.0955519634
C   C91       1.0  0.78182  0.95810  0.80202  1.0000 0.0955519634
C   C92       1.0  0.71818  0.54190  0.80202  1.0000 0.0955519634
C   C93       1.0  0.53182  0.79190  0.05202  1.0000 0.0955519634
C   C94       1.0  0.46818  0.20810  0.05202  1.0000 0.0955519634
C   C95       1.0  0.78182  0.45810  0.30202  1.0000 0.0955519634
C   C96       1.0  0.71818  0.04190  0.30202  1.0000 0.0955519634
C   C97       1.0  0.99230  0.33145  0.27022  1.0000 -0.1358980531
C   C98       1.0  0.00770  0.66855  0.27022  1.0000 -0.1358980531
C   C99       1.0  0.24230  0.91855  0.52022  1.0000 -0.1358980531
C   C100      1.0  0.25770  0.58145  0.52022  1.0000 -0.1358980531
C   C101      1.0  0.99230  0.83145  0.77022  1.0000 -0.1358980531
C   C102      1.0  0.00770  0.16855  0.77022  1.0000 -0.1358980531
C   C103      1.0  0.24230  0.41855  0.02022  1.0000 -0.1358980531
C   C104      1.0  0.25770  0.08145  0.02022  1.0000 -0.1358980531
C   C105      1.0  0.49230  0.33145  0.77022  1.0000 -0.1358980531
C   C106      1.0  0.50770  0.66855  0.77022  1.0000 -0.1358980531
C   C107      1.0  0.74230  0.91855  0.02022  1.0000 -0.1358980531
C   C108      1.0  0.75770  0.58145  0.02022  1.0000 -0.1358980531
C   C109      1.0  0.49230  0.83145  0.27022  1.0000 -0.1358980531
C   C110      1.0  0.50770  0.16855  0.27022  1.0000 -0.1358980531
C   C111      1.0  0.74230  0.41855  0.52022  1.0000 -0.1358980531
C   C112      1.0  0.75770  0.08145  0.52022  1.0000 -0.1358980531
C   C113      1.0  0.14167  0.27612  0.91126  1.0000 -0.1262898251
C   C114      1.0  0.85833  0.72388  0.91126  1.0000 -0.1262898251
C   C115      1.0  0.39167  0.97388  0.16126  1.0000 -0.1262898251
C   C116      1.0  0.10833  0.52612  0.16126  1.0000 -0.1262898251
C   C117      1.0  0.14167  0.77612  0.41126  1.0000 -0.1262898251
C   C118      1.0  0.85833  0.22388  0.41126  1.0000 -0.1262898251
C   C119      1.0  0.39167  0.47388  0.66126  1.0000 -0.1262898251
C   C120      1.0  0.10833  0.02612  0.66126  1.0000 -0.1262898251
C   C121      1.0  0.64167  0.27612  0.41126  1.0000 -0.1262898251
C   C122      1.0  0.35833  0.72388  0.41126  1.0000 -0.1262898251
C   C123      1.0  0.89167  0.97388  0.66126  1.0000 -0.1262898251
C   C124      1.0  0.60833  0.52612  0.66126  1.0000 -0.1262898251
C   C125      1.0  0.64167  0.77612  0.91126  1.0000 -0.1262898251
C   C126      1.0  0.35833  0.22388  0.91126  1.0000 -0.1262898251
C   C127      1.0  0.89167  0.47388  0.16126  1.0000 -0.1262898251
C   C128      1.0  0.60833  0.02612  0.16126  1.0000 -0.1262898251
C   C129      1.0  0.01449  0.30254  0.31928  1.0000 0.089742115
C   C130      1.0  0.98551  0.69746  0.31928  1.0000 0.089742115
C   C131      1.0  0.26449  0.94746  0.56928  1.0000 0.089742115
C   C132      1.0  0.23551  0.55254  0.56928  1.0000 0.089742115
C   C133      1.0  0.01449  0.80254  0.81928  1.0000 0.089742115
C   C134      1.0  0.98551  0.19746  0.81928  1.0000 0.089742115
C   C135      1.0  0.26449  0.44746  0.06928  1.0000 0.089742115
C   C136      1.0  0.23551  0.05254  0.06928  1.0000 0.089742115
C   C137      1.0  0.51449  0.30254  0.81928  1.0000 0.089742115
C   C138      1.0  0.48551  0.69746  0.81928  1.0000 0.089742115
C   C139      1.0  0.76449  0.94746  0.06928  1.0000 0.089742115
C   C140      1.0  0.73551  0.55254  0.06928  1.0000 0.089742115
C   C141      1.0  0.51449  0.80254  0.31928  1.0000 0.089742115
C   C142      1.0  0.48551  0.19746  0.31928  1.0000 0.089742115
C   C143      1.0  0.76449  0.44746  0.56928  1.0000 0.089742115
C   C144      1.0  0.73551  0.05254  0.56928  1.0000 0.089742115
C   C145      1.0  0.15403  0.31270  0.95446  1.0000 0.051333432
C   C146      1.0  0.84597  0.68730  0.95446  1.0000 0.051333432
C   C147      1.0  0.40403  0.93730  0.20446  1.0000 0.051333432
C   C148      1.0  0.09597  0.56270  0.20446  1.0000 0.051333432
C   C149      1.0  0.15403  0.81270  0.45446  1.0000 0.051333432
C   C150      1.0  0.84597  0.18730  0.45446  1.0000 0.051333432
C   C151      1.0  0.40403  0.43730  0.70446  1.0000 0.051333432
C   C152      1.0  0.09597  0.06270  0.70446  1.0000 0.051333432
C   C153      1.0  0.65403  0.31270  0.45446  1.0000 0.051333432
C   C154      1.0  0.34597  0.68730  0.45446  1.0000 0.051333432
C   C155      1.0  0.90403  0.93730  0.70446  1.0000 0.051333432
C   C156      1.0  0.59597  0.56270  0.70446  1.0000 0.051333432
C   C157      1.0  0.65403  0.81270  0.95446  1.0000 0.051333432
C   C158      1.0  0.34597  0.18730  0.95446  1.0000 0.051333432
C   C159      1.0  0.90403  0.43730  0.20446  1.0000 0.051333432
C   C160      1.0  0.59597  0.06270  0.20446  1.0000 0.051333432
C   C161      1.0  0.20656  0.33212  0.60593  1.0000 0.3786647837
C   C162      1.0  0.79344  0.66788  0.60593  1.0000 0.3786647837
C   C163      1.0  0.45656  0.91788  0.85593  1.0000 0.3786647837
C   C164      1.0  0.04344  0.58212  0.85593  1.0000 0.3786647837
C   C165      1.0  0.20656  0.83212  0.10593  1.0000 0.3786647837
C   C166      1.0  0.79344  0.16788  0.10593  1.0000 0.3786647837
C   C167      1.0  0.45656  0.41788  0.35593  1.0000 0.3786647837
C   C168      1.0  0.04344  0.08212  0.35593  1.0000 0.3786647837
C   C169      1.0  0.70656  0.33212  0.10593  1.0000 0.3786647837
C   C170      1.0  0.29344  0.66788  0.10593  1.0000 0.3786647837
C   C171      1.0  0.95656  0.91788  0.35593  1.0000 0.3786647837
C   C172      1.0  0.54344  0.58212  0.35593  1.0000 0.3786647837
C   C173      1.0  0.70656  0.83212  0.60593  1.0000 0.3786647837
C   C174      1.0  0.29344  0.16788  0.60593  1.0000 0.3786647837
C   C175      1.0  0.95656  0.41788  0.85593  1.0000 0.3786647837
C   C176      1.0  0.54344  0.08212  0.85593  1.0000 0.3786647837
C   C177      1.0  0.01100  0.32119  0.99489  1.0000 -0.1262898251
C   C178      1.0  0.98900  0.67881  0.99489  1.0000 -0.1262898251
C   C179      1.0  0.26100  0.92881  0.24489  1.0000 -0.1262898251
C   C180      1.0  0.23900  0.57119  0.24489  1.0000 -0.1262898251
C   C181      1.0  0.01100  0.82119  0.49489  1.0000 -0.1262898251
C   C182      1.0  0.98900  0.17881  0.49489  1.0000 -0.1262898251
C   C183      1.0  0.26100  0.42881  0.74489  1.0000 -0.1262898251
C   C184      1.0  0.23900  0.07119  0.74489  1.0000 -0.1262898251
C   C185      1.0  0.51100  0.32119  0.49489  1.0000 -0.1262898251
C   C186      1.0  0.48900  0.67881  0.49489  1.0000 -0.1262898251
C   C187      1.0  0.76100  0.92881  0.74489  1.0000 -0.1262898251
C   C188      1.0  0.73900  0.57119  0.74489  1.0000 -0.1262898251
C   C189      1.0  0.51100  0.82119  0.99489  1.0000 -0.1262898251
C   C190      1.0  0.48900  0.17881  0.99489  1.0000 -0.1262898251
C   C191      1.0  0.76100  0.42881  0.24489  1.0000 -0.1262898251
C   C192      1.0  0.73900  0.07119  0.24489  1.0000 -0.1262898251
C   C193      1.0  0.19698  0.28072  0.39694  1.0000 -0.1262898251
C   C194      1.0  0.80302  0.71928  0.39694  1.0000 -0.1262898251
C   C195      1.0  0.44698  0.96928  0.64694  1.0000 -0.1262898251
C   C196      1.0  0.05302  0.53072  0.64694  1.0000 -0.1262898251
C   C197      1.0  0.19698  0.78072  0.89694  1.0000 -0.1262898251
C   C198      1.0  0.80302  0.21928  0.89694  1.0000 -0.1262898251
C   C199      1.0  0.44698  0.46928  0.14694  1.0000 -0.1262898251
C   C200      1.0  0.05302  0.03072  0.14694  1.0000 -0.1262898251
C   C201      1.0  0.69698  0.28072  0.89694  1.0000 -0.1262898251
C   C202      1.0  0.30302  0.71928  0.89694  1.0000 -0.1262898251
C   C203      1.0  0.94698  0.96928  0.14694  1.0000 -0.1262898251
C   C204      1.0  0.55302  0.53072  0.14694  1.0000 -0.1262898251
C   C205      1.0  0.69698  0.78072  0.39694  1.0000 -0.1262898251
C   C206      1.0  0.30302  0.21928  0.39694  1.0000 -0.1262898251
C   C207      1.0  0.94698  0.46928  0.64694  1.0000 -0.1262898251
C   C208      1.0  0.55302  0.03072  0.64694  1.0000 -0.1262898251
C   C209      1.0  0.21971  0.37601  0.80063  1.0000 0.3786647837
C   C210      1.0  0.78029  0.62399  0.80063  1.0000 0.3786647837
C   C211      1.0  0.46971  0.87399  0.05063  1.0000 0.3786647837
C   C212      1.0  0.03029  0.62601  0.05063  1.0000 0.3786647837
C   C213      1.0  0.21971  0.87601  0.30063  1.0000 0.3786647837
C   C214      1.0  0.78029  0.12399  0.30063  1.0000 0.3786647837
C   C215      1.0  0.46971  0.37399  0.55063  1.0000 0.3786647837
C   C216      1.0  0.03029  0.12601  0.55063  1.0000 0.3786647837
C   C217      1.0  0.71971  0.37601  0.30063  1.0000 0.3786647837
C   C218      1.0  0.28029  0.62399  0.30063  1.0000 0.3786647837
C   C219      1.0  0.96971  0.87399  0.55063  1.0000 0.3786647837
C   C220      1.0  0.53029  0.62601  0.55063  1.0000 0.3786647837
C   C221      1.0  0.71971  0.87601  0.80063  1.0000 0.3786647837
C   C222      1.0  0.28029  0.12399  0.80063  1.0000 0.3786647837
C   C223      1.0  0.96971  0.37399  0.05063  1.0000 0.3786647837
C   C224      1.0  0.53029  0.12601  0.05063  1.0000 0.3786647837
C   C225      1.0  0.21270  0.31536  0.44435  1.0000 0.0556208028
C   C226      1.0  0.78730  0.68464  0.44435  1.0000 0.0556208028
C   C227      1.0  0.46270  0.93464  0.69435  1.0000 0.0556208028
C   C228      1.0  0.03730  0.56536  0.69435  1.0000 0.0556208028
C   C229      1.0  0.21270  0.81536  0.94435  1.0000 0.0556208028
C   C230      1.0  0.78730  0.18464  0.94435  1.0000 0.0556208028
C   C231      1.0  0.46270  0.43464  0.19435  1.0000 0.0556208028
C   C232      1.0  0.03730  0.06536  0.19435  1.0000 0.0556208028
C   C233      1.0  0.71270  0.31536  0.94435  1.0000 0.0556208028
C   C234      1.0  0.28730  0.68464  0.94435  1.0000 0.0556208028
C   C235      1.0  0.96270  0.93464  0.19435  1.0000 0.0556208028
C   C236      1.0  0.53730  0.56536  0.19435  1.0000 0.0556208028
C   C237      1.0  0.71270  0.81536  0.44435  1.0000 0.0556208028
C   C238      1.0  0.28730  0.18464  0.44435  1.0000 0.0556208028
C   C239      1.0  0.96270  0.43464  0.69435  1.0000 0.0556208028
C   C240      1.0  0.53730  0.06536  0.69435  1.0000 0.0556208028
C   C241      1.0  0.23475  0.33390  0.33675  1.0000 -0.1262898251
C   C242      1.0  0.76525  0.66610  0.33675  1.0000 -0.1262898251
C   C243      1.0  0.48475  0.91610  0.58675  1.0000 -0.1262898251
C   C244      1.0  0.01525  0.58390  0.58675  1.0000 -0.1262898251
C   C245      1.0  0.23475  0.83390  0.83675  1.0000 -0.1262898251
C   C246      1.0  0.76525  0.16610  0.83675  1.0000 -0.1262898251
C   C247      1.0  0.48475  0.41610  0.08675  1.0000 -0.1262898251
C   C248      1.0  0.01525  0.08390  0.08675  1.0000 -0.1262898251
C   C249      1.0  0.73475  0.33390  0.83675  1.0000 -0.1262898251
C   C250      1.0  0.26525  0.66610  0.83675  1.0000 -0.1262898251
C   C251      1.0  0.98475  0.91610  0.08675  1.0000 -0.1262898251
C   C252      1.0  0.51525  0.58390  0.08675  1.0000 -0.1262898251
C   C253      1.0  0.73475  0.83390  0.33675  1.0000 -0.1262898251
C   C254      1.0  0.26525  0.16610  0.33675  1.0000 -0.1262898251
C   C255      1.0  0.98475  0.41610  0.58675  1.0000 -0.1262898251
C   C256      1.0  0.51525  0.08390  0.58675  1.0000 -0.1262898251
C   C257      1.0  0.20483  0.26526  0.24575  1.0000 0.089742115
C   C258      1.0  0.79517  0.73474  0.24575  1.0000 0.089742115
C   C259      1.0  0.45483  0.98474  0.49575  1.0000 0.089742115
C   C260      1.0  0.04517  0.51526  0.49575  1.0000 0.089742115
C   C261      1.0  0.20483  0.76526  0.74575  1.0000 0.089742115
C   C262      1.0  0.79517  0.23474  0.74575  1.0000 0.089742115
C   C263      1.0  0.45483  0.48474  0.99575  1.0000 0.089742115
C   C264      1.0  0.04517  0.01526  0.99575  1.0000 0.089742115
C   C265      1.0  0.70483  0.26526  0.74575  1.0000 0.089742115
C   C266      1.0  0.29517  0.73474  0.74575  1.0000 0.089742115
C   C267      1.0  0.95483  0.98474  0.99575  1.0000 0.089742115
C   C268      1.0  0.54517  0.51526  0.99575  1.0000 0.089742115
C   C269      1.0  0.70483  0.76526  0.24575  1.0000 0.089742115
C   C270      1.0  0.29517  0.23474  0.24575  1.0000 0.089742115
C   C271      1.0  0.95483  0.48474  0.49575  1.0000 0.089742115
C   C272      1.0  0.54517  0.01526  0.49575  1.0000 0.089742115
C   C273      1.0  0.24088  0.31696  0.18697  1.0000 0.089742115
C   C274      1.0  0.75912  0.68304  0.18697  1.0000 0.089742115
C   C275      1.0  0.49088  0.93304  0.43697  1.0000 0.089742115
C   C276      1.0  0.00912  0.56696  0.43697  1.0000 0.089742115
C   C277      1.0  0.24088  0.81696  0.68697  1.0000 0.089742115
C   C278      1.0  0.75912  0.18304  0.68697  1.0000 0.089742115
C   C279      1.0  0.49088  0.43304  0.93697  1.0000 0.089742115
C   C280      1.0  0.00912  0.06696  0.93697  1.0000 0.089742115
C   C281      1.0  0.74088  0.31696  0.68697  1.0000 0.089742115
C   C282      1.0  0.25912  0.68304  0.68697  1.0000 0.089742115
C   C283      1.0  0.99088  0.93304  0.93697  1.0000 0.089742115
C   C284      1.0  0.50912  0.56696  0.93697  1.0000 0.089742115
C   C285      1.0  0.74088  0.81696  0.18697  1.0000 0.089742115
C   C286      1.0  0.25912  0.18304  0.18697  1.0000 0.089742115
C   C287      1.0  0.99088  0.43304  0.43697  1.0000 0.089742115
C   C288      1.0  0.50912  0.06696  0.43697  1.0000 0.089742115
I   I1        1.0  0.06303  0.17948  0.14738  1.0000 -0.4336006944
I   I2        1.0  0.93697  0.82052  0.14738  1.0000 -0.4336006944
I   I3        1.0  0.31303  0.07052  0.39738  1.0000 -0.4336006944
I   I4        1.0  0.18697  0.42948  0.39738  1.0000 -0.4336006944
I   I5        1.0  0.06303  0.67948  0.64738  1.0000 -0.4336006944
I   I6        1.0  0.93697  0.32052  0.64738  1.0000 -0.4336006944
I   I7        1.0  0.31303  0.57052  0.89738  1.0000 -0.4336006944
I   I8        1.0  0.18697  0.92948  0.89738  1.0000 -0.4336006944
I   I9        1.0  0.56303  0.17948  0.64738  1.0000 -0.4336006944
I   I10       1.0  0.43697  0.82052  0.64738  1.0000 -0.4336006944
I   I11       1.0  0.81303  0.07052  0.89738  1.0000 -0.4336006944
I   I12       1.0  0.68697  0.42948  0.89738  1.0000 -0.4336006944
I   I13       1.0  0.56303  0.67948  0.14738  1.0000 -0.4336006944
I   I14       1.0  0.43697  0.32052  0.14738  1.0000 -0.4336006944
I   I15       1.0  0.81303  0.57052  0.39738  1.0000 -0.4336006944
I   I16       1.0  0.68697  0.92948  0.39738  1.0000 -0.4336006944
I   I17       1.0  0.07795  0.24843  0.59261  1.0000 -0.4233246525
I   I18       1.0  0.92205  0.75157  0.59261  1.0000 -0.4233246525
I   I19       1.0  0.32795  0.00157  0.84261  1.0000 -0.4233246525
I   I20       1.0  0.17205  0.49843  0.84261  1.0000 -0.4233246525
I   I21       1.0  0.07795  0.74843  0.09261  1.0000 -0.4233246525
I   I22       1.0  0.92205  0.25157  0.09261  1.0000 -0.4233246525
I   I23       1.0  0.32795  0.50157  0.34261  1.0000 -0.4233246525
I   I24       1.0  0.17205  0.99843  0.34261  1.0000 -0.4233246525
I   I25       1.0  0.57795  0.24843  0.09261  1.0000 -0.4233246525
I   I26       1.0  0.42205  0.75157  0.09261  1.0000 -0.4233246525
I   I27       1.0  0.82795  0.00157  0.34261  1.0000 -0.4233246525
I   I28       1.0  0.67205  0.49843  0.34261  1.0000 -0.4233246525
I   I29       1.0  0.57795  0.74843  0.59261  1.0000 -0.4233246525
I   I30       1.0  0.42205  0.25157  0.59261  1.0000 -0.4233246525
I   I31       1.0  0.82795  0.50157  0.84261  1.0000 -0.4233246525
I   I32       1.0  0.67205  0.99843  0.84261  1.0000 -0.4233246525
I   I33       1.0  0.21013  0.20517  0.80257  1.0000 -0.3961578426
I   I34       1.0  0.78987  0.79483  0.80257  1.0000 -0.3961578426
I   I35       1.0  0.46013  0.04483  0.05257  1.0000 -0.3961578426
I   I36       1.0  0.03987  0.45517  0.05257  1.0000 -0.3961578426
I   I37       1.0  0.21013  0.70517  0.30257  1.0000 -0.3961578426
I   I38       1.0  0.78987  0.29483  0.30257  1.0000 -0.3961578426
I   I39       1.0  0.46013  0.54483  0.55257  1.0000 -0.3961578426
I   I40       1.0  0.03987  0.95517  0.55257  1.0000 -0.3961578426
I   I41       1.0  0.71013  0.20517  0.30257  1.0000 -0.3961578426
I   I42       1.0  0.28987  0.79483  0.30257  1.0000 -0.3961578426
I   I43       1.0  0.96013  0.04483  0.55257  1.0000 -0.3961578426
I   I44       1.0  0.53987  0.45517  0.55257  1.0000 -0.3961578426
I   I45       1.0  0.71013  0.70517  0.80257  1.0000 -0.3961578426
I   I46       1.0  0.28987  0.29483  0.80257  1.0000 -0.3961578426
I   I47       1.0  0.96013  0.54483  0.05257  1.0000 -0.3961578426
I   I48       1.0  0.53987  0.95517  0.05257  1.0000 -0.3961578426
N   N1        1.0  0.10978  0.27303  0.15874  1.0000 -0.2012486853
N   N2        1.0  0.89022  0.72697  0.15874  1.0000 -0.2012486853
N   N3        1.0  0.35978  0.97697  0.40874  1.0000 -0.2012486853
N   N4        1.0  0.14022  0.52303  0.40874  1.0000 -0.2012486853
N   N5        1.0  0.10978  0.77303  0.65874  1.0000 -0.2012486853
N   N6        1.0  0.89022  0.22697  0.65874  1.0000 -0.2012486853
N   N7        1.0  0.35978  0.47697  0.90874  1.0000 -0.2012486853
N   N8        1.0  0.14022  0.02303  0.90874  1.0000 -0.2012486853
N   N9        1.0  0.60978  0.27303  0.65874  1.0000 -0.2012486853
N   N10       1.0  0.39022  0.72697  0.65874  1.0000 -0.2012486853
N   N11       1.0  0.85978  0.97697  0.90874  1.0000 -0.2012486853
N   N12       1.0  0.64022  0.52303  0.90874  1.0000 -0.2012486853
N   N13       1.0  0.60978  0.77303  0.15874  1.0000 -0.2012486853
N   N14       1.0  0.39022  0.22697  0.15874  1.0000 -0.2012486853
N   N15       1.0  0.85978  0.47697  0.40874  1.0000 -0.2012486853
N   N16       1.0  0.64022  0.02303  0.40874  1.0000 -0.2012486853
N   N17       1.0  0.03433  0.28319  0.21253  1.0000 -0.2012486853
N   N18       1.0  0.96567  0.71681  0.21253  1.0000 -0.2012486853
N   N19       1.0  0.28433  0.96681  0.46253  1.0000 -0.2012486853
N   N20       1.0  0.21567  0.53319  0.46253  1.0000 -0.2012486853
N   N21       1.0  0.03433  0.78319  0.71253  1.0000 -0.2012486853
N   N22       1.0  0.96567  0.21681  0.71253  1.0000 -0.2012486853
N   N23       1.0  0.28433  0.46681  0.96253  1.0000 -0.2012486853
N   N24       1.0  0.21567  0.03319  0.96253  1.0000 -0.2012486853
N   N25       1.0  0.53433  0.28319  0.71253  1.0000 -0.2012486853
N   N26       1.0  0.46567  0.71681  0.71253  1.0000 -0.2012486853
N   N27       1.0  0.78433  0.96681  0.96253  1.0000 -0.2012486853
N   N28       1.0  0.71567  0.53319  0.96253  1.0000 -0.2012486853
N   N29       1.0  0.53433  0.78319  0.21253  1.0000 -0.2012486853
N   N30       1.0  0.46567  0.21681  0.21253  1.0000 -0.2012486853
N   N31       1.0  0.78433  0.46681  0.46253  1.0000 -0.2012486853
N   N32       1.0  0.71567  0.03319  0.46253  1.0000 -0.2012486853
N   N33       1.0  0.19667  0.36166  0.90562  1.0000 -0.3814123668
N   N34       1.0  0.80333  0.63834  0.90562  1.0000 -0.3814123668
N   N35       1.0  0.44667  0.88834  0.15562  1.0000 -0.3814123668
N   N36       1.0  0.05333  0.61166  0.15562  1.0000 -0.3814123668
N   N37       1.0  0.19667  0.86166  0.40562  1.0000 -0.3814123668
N   N38       1.0  0.80333  0.13834  0.40562  1.0000 -0.3814123668
N   N39       1.0  0.44667  0.38834  0.65562  1.0000 -0.3814123668
N   N40       1.0  0.05333  0.11166  0.65562  1.0000 -0.3814123668
N   N41       1.0  0.69667  0.36166  0.40562  1.0000 -0.3814123668
N   N42       1.0  0.30333  0.63834  0.40562  1.0000 -0.3814123668
N   N43       1.0  0.94667  0.88834  0.65562  1.0000 -0.3814123668
N   N44       1.0  0.55333  0.61166  0.65562  1.0000 -0.3814123668
N   N45       1.0  0.69667  0.86166  0.90562  1.0000 -0.3814123668
N   N46       1.0  0.30333  0.13834  0.90562  1.0000 -0.3814123668
N   N47       1.0  0.94667  0.38834  0.15562  1.0000 -0.3814123668
N   N48       1.0  0.55333  0.11166  0.15562  1.0000 -0.3814123668
N   N49       1.0  0.18241  0.31563  0.69770  1.0000 -0.3900677044
N   N50       1.0  0.81759  0.68437  0.69770  1.0000 -0.3900677044
N   N51       1.0  0.43241  0.93437  0.94770  1.0000 -0.3900677044
N   N52       1.0  0.06759  0.56563  0.94770  1.0000 -0.3900677044
N   N53       1.0  0.18241  0.81563  0.19770  1.0000 -0.3900677044
N   N54       1.0  0.81759  0.18437  0.19770  1.0000 -0.3900677044
N   N55       1.0  0.43241  0.43437  0.44770  1.0000 -0.3900677044
N   N56       1.0  0.06759  0.06563  0.44770  1.0000 -0.3900677044
N   N57       1.0  0.68241  0.31563  0.19770  1.0000 -0.3900677044
N   N58       1.0  0.31759  0.68437  0.19770  1.0000 -0.3900677044
N   N59       1.0  0.93241  0.93437  0.44770  1.0000 -0.3900677044
N   N60       1.0  0.56759  0.56563  0.44770  1.0000 -0.3900677044
N   N61       1.0  0.68241  0.81563  0.69770  1.0000 -0.3900677044
N   N62       1.0  0.31759  0.18437  0.69770  1.0000 -0.3900677044
N   N63       1.0  0.93241  0.43437  0.94770  1.0000 -0.3900677044
N   N64       1.0  0.56759  0.06563  0.94770  1.0000 -0.3900677044
N   N65       1.0  0.22652  0.28287  0.14150  1.0000 -0.2012486853
N   N66       1.0  0.77348  0.71713  0.14150  1.0000 -0.2012486853
N   N67       1.0  0.47652  0.96713  0.39150  1.0000 -0.2012486853
N   N68       1.0  0.02348  0.53287  0.39150  1.0000 -0.2012486853
N   N69       1.0  0.22652  0.78287  0.64150  1.0000 -0.2012486853
N   N70       1.0  0.77348  0.21713  0.64150  1.0000 -0.2012486853
N   N71       1.0  0.47652  0.46713  0.89150  1.0000 -0.2012486853
N   N72       1.0  0.02348  0.03287  0.89150  1.0000 -0.2012486853
N   N73       1.0  0.72652  0.28287  0.64150  1.0000 -0.2012486853
N   N74       1.0  0.27348  0.71713  0.64150  1.0000 -0.2012486853
N   N75       1.0  0.97652  0.96713  0.89150  1.0000 -0.2012486853
N   N76       1.0  0.52348  0.53287  0.89150  1.0000 -0.2012486853
N   N77       1.0  0.72652  0.78287  0.14150  1.0000 -0.2012486853
N   N78       1.0  0.27348  0.21713  0.14150  1.0000 -0.2012486853
N   N79       1.0  0.97652  0.46713  0.39150  1.0000 -0.2012486853
N   N80       1.0  0.52348  0.03287  0.39150  1.0000 -0.2012486853
N   N81       1.0  0.22593  0.36254  0.65011  1.0000 -0.3814123668
N   N82       1.0  0.77407  0.63746  0.65011  1.0000 -0.3814123668
N   N83       1.0  0.47593  0.88746  0.90011  1.0000 -0.3814123668
N   N84       1.0  0.02407  0.61254  0.90011  1.0000 -0.3814123668
N   N85       1.0  0.22593  0.86254  0.15011  1.0000 -0.3814123668
N   N86       1.0  0.77407  0.13746  0.15011  1.0000 -0.3814123668
N   N87       1.0  0.47593  0.38746  0.40011  1.0000 -0.3814123668
N   N88       1.0  0.02407  0.11254  0.40011  1.0000 -0.3814123668
N   N89       1.0  0.72593  0.36254  0.15011  1.0000 -0.3814123668
N   N90       1.0  0.27407  0.63746  0.15011  1.0000 -0.3814123668
N   N91       1.0  0.97593  0.88746  0.40011  1.0000 -0.3814123668
N   N92       1.0  0.52407  0.61254  0.40011  1.0000 -0.3814123668
N   N93       1.0  0.72593  0.86254  0.65011  1.0000 -0.3814123668
N   N94       1.0  0.27407  0.13746  0.65011  1.0000 -0.3814123668
N   N95       1.0  0.97593  0.38746  0.90011  1.0000 -0.3814123668
N   N96       1.0  0.52407  0.11254  0.90011  1.0000 -0.3814123668
