# DDEC6 charges by PACMAN v1.1 (https://github.com/mtap-research/PACMAN-charge/)
data_2016[Zn][ins]3[ASR]1
_chemical_formula_sum              "Zn8 H168 C248 N32 O32"
_cell_length_a       14.2232
_cell_length_b       26.5395
_cell_length_c       19.467
_cell_angle_alpha    90
_cell_angle_beta     107.701
_cell_angle_gamma    90

_symmetry_space_group_name_H-M    "P 1"
_symmetry_Int_Tables_number       1

loop_
  _symmetry_equiv_pos_as_xyz
  'x, y, z'

loop_
  _atom_site_type_symbol
  _atom_site_label
  _atom_site_symmetry_multiplicity
  _atom_site_fract_x
  _atom_site_fract_y
  _atom_site_fract_z
  _atom_site_occupancy
  _atom_site_charge
Zn  Zn1       1.0  0.39333  0.54182  0.31070  1.0000 0.7285110825
Zn  Zn2       1.0  0.60667  0.45818  0.68930  1.0000 0.7285110825
Zn  Zn3       1.0  0.98604  0.04144  0.65439  1.0000 0.7438354963
Zn  Zn4       1.0  0.01396  0.95856  0.34561  1.0000 0.7438354963
Zn  Zn5       1.0  0.60667  0.04182  0.18930  1.0000 0.7285110825
Zn  Zn6       1.0  0.39333  0.95818  0.81070  1.0000 0.7285110825
Zn  Zn7       1.0  0.01396  0.54144  0.84561  1.0000 0.7438354963
Zn  Zn8       1.0  0.98604  0.45856  0.15439  1.0000 0.7438354963
H   H1        1.0  0.73340  0.14540  0.52570  1.0000 0.1191982901
H   H2        1.0  0.26660  0.85460  0.47430  1.0000 0.1191982901
H   H3        1.0  0.58990  0.18960  0.49980  1.0000 0.1303744142
H   H4        1.0  0.41010  0.81040  0.50020  1.0000 0.1303744142
H   H5        1.0  0.52350  0.11950  0.66120  1.0000 0.1191982901
H   H6        1.0  0.47650  0.88050  0.33880  1.0000 0.1191982901
H   H7        1.0  0.66770  0.07500  0.68540  1.0000 0.1104559905
H   H8        1.0  0.33230  0.92500  0.31460  1.0000 0.1104559905
H   H9        1.0  0.22660  0.19290  0.67840  1.0000 0.1104559905
H   H10       1.0  0.77340  0.80710  0.32160  1.0000 0.1104559905
H   H11       1.0  0.35780  0.22500  0.64390  1.0000 0.1191982901
H   H12       1.0  0.64220  0.77500  0.35610  1.0000 0.1191982901
H   H13       1.0  0.36030  0.10020  0.53130  1.0000 0.1104559905
H   H14       1.0  0.63970  0.89980  0.46870  1.0000 0.1104559905
H   H15       1.0  0.23280  0.06760  0.56730  1.0000 0.1104559905
H   H16       1.0  0.76720  0.93240  0.43270  1.0000 0.1104559905
H   H17       1.0  0.42860  0.49490  0.45100  1.0000 0.1104559905
H   H18       1.0  0.57140  0.50510  0.54900  1.0000 0.1104559905
H   H19       1.0  0.44360  0.41970  0.50940  1.0000 0.1406602225
H   H20       1.0  0.55640  0.58030  0.49060  1.0000 0.1406602225
H   H21       1.0  0.36430  0.35170  0.31760  1.0000 0.1303744142
H   H22       1.0  0.63570  0.64830  0.68240  1.0000 0.1303744142
H   H23       1.0  0.35630  0.42900  0.26490  1.0000 0.1013189271
H   H24       1.0  0.64370  0.57100  0.73510  1.0000 0.1013189271
H   H25       1.0  0.53980  0.34370  0.53770  1.0000 0.1303744142
H   H26       1.0  0.46020  0.65630  0.46230  1.0000 0.1303744142
H   H27       1.0  0.56070  0.26670  0.59430  1.0000 0.1303744142
H   H28       1.0  0.43930  0.73330  0.40570  1.0000 0.1303744142
H   H29       1.0  0.31300  0.21770  0.45130  1.0000 0.1191982901
H   H30       1.0  0.68700  0.78230  0.54870  1.0000 0.1191982901
H   H31       1.0  0.29330  0.29360  0.39320  1.0000 0.1191982901
H   H32       1.0  0.70670  0.70640  0.60680  1.0000 0.1191982901
H   H33       1.0  0.87670  0.94250  0.65400  1.0000 0.1104559905
H   H34       1.0  0.12330  0.05750  0.34600  1.0000 0.1104559905
H   H35       1.0  0.87160  0.86230  0.61260  1.0000 0.1303744142
H   H36       1.0  0.12840  0.13770  0.38740  1.0000 0.1303744142
H   H37       1.0  0.07420  0.90120  0.51800  1.0000 0.1303744142
H   H38       1.0  0.92580  0.09880  0.48200  1.0000 0.1303744142
H   H39       1.0  0.07390  0.97960  0.56270  1.0000 0.1104559905
H   H40       1.0  0.92610  0.02040  0.43730  1.0000 0.1104559905
H   H41       1.0  0.89040  0.78550  0.58640  1.0000 0.1104559905
H   H42       1.0  0.10960  0.21450  0.41360  1.0000 0.1104559905
H   H43       1.0  0.87970  0.70770  0.53520  1.0000 0.1303744142
H   H44       1.0  0.12030  0.29230  0.46480  1.0000 0.1303744142
H   H45       1.0  0.03220  0.75610  0.40710  1.0000 0.1303744142
H   H46       1.0  0.96780  0.24390  0.59290  1.0000 0.1303744142
H   H47       1.0  0.04560  0.83430  0.45980  1.0000 0.1191982901
H   H48       1.0  0.95440  0.16570  0.54020  1.0000 0.1191982901
H   H49       1.0  0.62020  0.67690  0.34560  1.0000 0.1191982901
H   H50       1.0  0.37980  0.32310  0.65440  1.0000 0.1191982901
H   H51       1.0  0.77110  0.71430  0.37860  1.0000 0.1191982901
H   H52       1.0  0.22890  0.28570  0.62140  1.0000 0.1191982901
H   H53       1.0  0.89760  0.58140  0.43840  1.0000 0.1191982901
H   H54       1.0  0.10240  0.41860  0.56160  1.0000 0.1191982901
H   H55       1.0  0.74210  0.54540  0.40480  1.0000 0.1191982901
H   H56       1.0  0.25790  0.45460  0.59520  1.0000 0.1191982901
H   H57       1.0  0.08140  0.59130  0.29000  1.0000 0.1104559905
H   H58       1.0  0.91860  0.40870  0.71000  1.0000 0.1104559905
H   H59       1.0  0.94840  0.62600  0.31730  1.0000 0.1191982901
H   H60       1.0  0.05160  0.37400  0.68270  1.0000 0.1191982901
H   H61       1.0  0.12960  0.67550  0.50490  1.0000 0.1191982901
H   H62       1.0  0.87040  0.32450  0.49510  1.0000 0.1191982901
H   H63       1.0  0.26150  0.63890  0.47870  1.0000 0.1191982901
H   H64       1.0  0.73850  0.36110  0.52130  1.0000 0.1191982901
H   H65       1.0  0.92310  0.01810  0.79600  1.0000 0.1191982901
H   H66       1.0  0.07690  0.98190  0.20400  1.0000 0.1191982901
H   H67       1.0  0.20390  0.02890  0.90930  1.0000 0.1303744142
H   H68       1.0  0.79610  0.97110  0.09070  1.0000 0.1303744142
H   H69       1.0  0.18730  0.04080  0.78280  1.0000 0.1191982901
H   H70       1.0  0.81270  0.95920  0.21720  1.0000 0.1191982901
H   H71       1.0  0.14210  0.96520  0.98520  1.0000 0.1303744142
H   H72       1.0  0.85790  0.03480  0.01480  1.0000 0.1303744142
H   H73       1.0  0.90060  0.05150  0.91150  1.0000 0.1303744142
H   H74       1.0  0.09940  0.94850  0.08850  1.0000 0.1303744142
H   H75       1.0  0.23320  0.56040  0.15680  1.0000 0.1303744142
H   H76       1.0  0.76680  0.43960  0.84320  1.0000 0.1303744142
H   H77       1.0  0.26310  0.55050  0.04110  1.0000 0.1303744142
H   H78       1.0  0.73690  0.44950  0.95890  1.0000 0.1303744142
H   H79       1.0  0.49710  0.50350  0.19470  1.0000 0.1104559905
H   H80       1.0  0.50290  0.49650  0.80530  1.0000 0.1104559905
H   H81       1.0  0.33110  0.48970  0.96880  1.0000 0.1303744142
H   H82       1.0  0.66890  0.51030  0.03120  1.0000 0.1303744142
H   H83       1.0  0.58640  0.53020  0.11270  1.0000 0.1303744142
H   H84       1.0  0.41360  0.46980  0.88730  1.0000 0.1303744142
H   H85       1.0  0.26660  0.64540  0.97430  1.0000 0.1191982901
H   H86       1.0  0.73340  0.35460  0.02570  1.0000 0.1191982901
H   H87       1.0  0.41010  0.68960  0.00020  1.0000 0.1303744142
H   H88       1.0  0.58990  0.31040  0.99980  1.0000 0.1303744142
H   H89       1.0  0.47650  0.61950  0.83880  1.0000 0.1191982901
H   H90       1.0  0.52350  0.38050  0.16120  1.0000 0.1191982901
H   H91       1.0  0.33230  0.57500  0.81460  1.0000 0.1104559905
H   H92       1.0  0.66770  0.42500  0.18540  1.0000 0.1104559905
H   H93       1.0  0.77340  0.69290  0.82160  1.0000 0.1104559905
H   H94       1.0  0.22660  0.30710  0.17840  1.0000 0.1104559905
H   H95       1.0  0.64220  0.72500  0.85610  1.0000 0.1191982901
H   H96       1.0  0.35780  0.27500  0.14390  1.0000 0.1191982901
H   H97       1.0  0.63970  0.60020  0.96870  1.0000 0.1104559905
H   H98       1.0  0.36030  0.39980  0.03130  1.0000 0.1104559905
H   H99       1.0  0.76720  0.56760  0.93270  1.0000 0.1104559905
H   H100      1.0  0.23280  0.43240  0.06730  1.0000 0.1104559905
H   H101      1.0  0.57140  0.99490  0.04900  1.0000 0.1104559905
H   H102      1.0  0.42860  0.00510  0.95100  1.0000 0.1104559905
H   H103      1.0  0.55640  0.91970  0.99060  1.0000 0.1406602225
H   H104      1.0  0.44360  0.08030  0.00940  1.0000 0.1406602225
H   H105      1.0  0.63570  0.85170  0.18240  1.0000 0.1303744142
H   H106      1.0  0.36430  0.14830  0.81760  1.0000 0.1303744142
H   H107      1.0  0.64370  0.92900  0.23510  1.0000 0.1013189271
H   H108      1.0  0.35630  0.07100  0.76490  1.0000 0.1013189271
H   H109      1.0  0.46020  0.84370  0.96230  1.0000 0.1303744142
H   H110      1.0  0.53980  0.15630  0.03770  1.0000 0.1303744142
H   H111      1.0  0.43930  0.76670  0.90570  1.0000 0.1303744142
H   H112      1.0  0.56070  0.23330  0.09430  1.0000 0.1303744142
H   H113      1.0  0.68700  0.71770  0.04870  1.0000 0.1191982901
H   H114      1.0  0.31300  0.28230  0.95130  1.0000 0.1191982901
H   H115      1.0  0.70670  0.79360  0.10680  1.0000 0.1191982901
H   H116      1.0  0.29330  0.20640  0.89320  1.0000 0.1191982901
H   H117      1.0  0.12330  0.44250  0.84600  1.0000 0.1104559905
H   H118      1.0  0.87670  0.55750  0.15400  1.0000 0.1104559905
H   H119      1.0  0.12840  0.36230  0.88740  1.0000 0.1303744142
H   H120      1.0  0.87160  0.63770  0.11260  1.0000 0.1303744142
H   H121      1.0  0.92580  0.40120  0.98200  1.0000 0.1303744142
H   H122      1.0  0.07420  0.59880  0.01800  1.0000 0.1303744142
H   H123      1.0  0.92610  0.47960  0.93730  1.0000 0.1104559905
H   H124      1.0  0.07390  0.52040  0.06270  1.0000 0.1104559905
H   H125      1.0  0.10960  0.28550  0.91360  1.0000 0.1104559905
H   H126      1.0  0.89040  0.71450  0.08640  1.0000 0.1104559905
H   H127      1.0  0.12030  0.20770  0.96480  1.0000 0.1303744142
H   H128      1.0  0.87970  0.79230  0.03520  1.0000 0.1303744142
H   H129      1.0  0.96780  0.25610  0.09290  1.0000 0.1303744142
H   H130      1.0  0.03220  0.74390  0.90710  1.0000 0.1303744142
H   H131      1.0  0.95440  0.33430  0.04020  1.0000 0.1191982901
H   H132      1.0  0.04560  0.66570  0.95980  1.0000 0.1191982901
H   H133      1.0  0.37980  0.17690  0.15440  1.0000 0.1191982901
H   H134      1.0  0.62020  0.82310  0.84560  1.0000 0.1191982901
H   H135      1.0  0.22890  0.21430  0.12140  1.0000 0.1191982901
H   H136      1.0  0.77110  0.78570  0.87860  1.0000 0.1191982901
H   H137      1.0  0.10240  0.08140  0.06160  1.0000 0.1191982901
H   H138      1.0  0.89760  0.91860  0.93840  1.0000 0.1191982901
H   H139      1.0  0.25790  0.04540  0.09520  1.0000 0.1191982901
H   H140      1.0  0.74210  0.95460  0.90480  1.0000 0.1191982901
H   H141      1.0  0.91860  0.09130  0.21000  1.0000 0.1104559905
H   H142      1.0  0.08140  0.90870  0.79000  1.0000 0.1104559905
H   H143      1.0  0.05160  0.12600  0.18270  1.0000 0.1191982901
H   H144      1.0  0.94840  0.87400  0.81730  1.0000 0.1191982901
H   H145      1.0  0.87040  0.17550  0.99510  1.0000 0.1191982901
H   H146      1.0  0.12960  0.82450  0.00490  1.0000 0.1191982901
H   H147      1.0  0.73850  0.13890  0.02130  1.0000 0.1191982901
H   H148      1.0  0.26150  0.86110  0.97870  1.0000 0.1191982901
H   H149      1.0  0.07690  0.51810  0.70400  1.0000 0.1191982901
H   H150      1.0  0.92310  0.48190  0.29600  1.0000 0.1191982901
H   H151      1.0  0.79610  0.52890  0.59070  1.0000 0.1303744142
H   H152      1.0  0.20390  0.47110  0.40930  1.0000 0.1303744142
H   H153      1.0  0.81270  0.54080  0.71720  1.0000 0.1191982901
H   H154      1.0  0.18730  0.45920  0.28280  1.0000 0.1191982901
H   H155      1.0  0.85790  0.46520  0.51480  1.0000 0.1303744142
H   H156      1.0  0.14210  0.53480  0.48520  1.0000 0.1303744142
H   H157      1.0  0.09940  0.55150  0.58850  1.0000 0.1303744142
H   H158      1.0  0.90060  0.44850  0.41150  1.0000 0.1303744142
H   H159      1.0  0.76680  0.06040  0.34320  1.0000 0.1303744142
H   H160      1.0  0.23320  0.93960  0.65680  1.0000 0.1303744142
H   H161      1.0  0.73690  0.05050  0.45890  1.0000 0.1303744142
H   H162      1.0  0.26310  0.94950  0.54110  1.0000 0.1303744142
H   H163      1.0  0.50290  0.00350  0.30530  1.0000 0.1104559905
H   H164      1.0  0.49710  0.99650  0.69470  1.0000 0.1104559905
H   H165      1.0  0.66890  0.98970  0.53120  1.0000 0.1303744142
H   H166      1.0  0.33110  0.01030  0.46880  1.0000 0.1303744142
H   H167      1.0  0.41360  0.03020  0.38730  1.0000 0.1303744142
H   H168      1.0  0.58640  0.96980  0.61270  1.0000 0.1303744142
C   C1        1.0  0.80870  0.07520  0.62443  1.0000 0.5333762341
C   C2        1.0  0.19130  0.92480  0.37557  1.0000 0.5333762341
C   C3        1.0  0.71650  0.10463  0.60770  1.0000 -0.0590914278
C   C4        1.0  0.28350  0.89537  0.39230  1.0000 -0.0590914278
C   C5        1.0  0.69080  0.13976  0.55300  1.0000 -0.1010353681
C   C6        1.0  0.30920  0.86024  0.44700  1.0000 -0.1010353681
C   C7        1.0  0.60500  0.16643  0.53750  1.0000 -0.1897420096
C   C8        1.0  0.39500  0.83357  0.46250  1.0000 -0.1897420096
C   C9        1.0  0.54000  0.15942  0.57737  1.0000 0.1946800151
C   C10       1.0  0.46000  0.84058  0.42263  1.0000 0.1946800151
C   C11       1.0  0.56540  0.12473  0.63330  1.0000 -0.1993650224
C   C12       1.0  0.43460  0.87527  0.36670  1.0000 -0.1993650224
C   C13       1.0  0.65190  0.09811  0.64772  1.0000 -0.0924913322
C   C14       1.0  0.34810  0.90189  0.35228  1.0000 -0.0924913322
C   C15       1.0  0.13150  0.10638  0.64823  1.0000 0.5389325791
C   C16       1.0  0.86850  0.89362  0.35177  1.0000 0.5389325791
C   C17       1.0  0.21580  0.12700  0.62551  1.0000 -0.0370923974
C   C18       1.0  0.78420  0.87300  0.37449  1.0000 -0.0370923974
C   C19       1.0  0.25340  0.17402  0.64870  1.0000 -0.1010353681
C   C20       1.0  0.74660  0.82598  0.35130  1.0000 -0.1075618379
C   C21       1.0  0.33180  0.19348  0.62760  1.0000 -0.1897420096
C   C22       1.0  0.66820  0.80652  0.37240  1.0000 -0.1897420096
C   C23       1.0  0.37030  0.16607  0.58290  1.0000 0.1681133635
C   C24       1.0  0.62970  0.83393  0.41710  1.0000 0.1681133635
C   C25       1.0  0.33350  0.11917  0.56100  1.0000 -0.1993650224
C   C26       1.0  0.66650  0.88083  0.43900  1.0000 -0.1993650224
C   C27       1.0  0.25680  0.09967  0.58240  1.0000 -0.1075618379
C   C28       1.0  0.74320  0.90033  0.41760  1.0000 -0.1075618379
C   C29       1.0  0.41660  0.46552  0.42369  1.0000 0.0778269773
C   C30       1.0  0.58340  0.53448  0.57631  1.0000 0.0778269773
C   C31       1.0  0.42520  0.42046  0.45929  1.0000 -0.1797221344
C   C32       1.0  0.57480  0.57954  0.54071  1.0000 -0.1797221344
C   C33       1.0  0.40630  0.37596  0.42016  1.0000 0.1191982901
C   C34       1.0  0.59370  0.62404  0.57984  1.0000 0.1191982901
C   C35       1.0  0.37910  0.38034  0.34634  1.0000 -0.1897420096
C   C36       1.0  0.62090  0.61966  0.65366  1.0000 -0.1897420096
C   C37       1.0  0.37380  0.42725  0.31490  1.0000 0.0717095607
C   C38       1.0  0.62620  0.57275  0.68510  1.0000 0.0717095607
C   C39       1.0  0.41640  0.32679  0.45726  1.0000 0.0538715921
C   C40       1.0  0.58360  0.67321  0.54274  1.0000 0.0538715921
C   C41       1.0  0.49470  0.31804  0.51912  1.0000 -0.1075618379
C   C42       1.0  0.50530  0.68196  0.48088  1.0000 -0.1075618379
C   C43       1.0  0.50690  0.27203  0.55350  1.0000 -0.1697843014
C   C44       1.0  0.49310  0.72797  0.44650  1.0000 -0.1697843014
C   C45       1.0  0.43930  0.23372  0.52750  1.0000 0.1681133635
C   C46       1.0  0.56070  0.76628  0.47250  1.0000 0.1681133635
C   C47       1.0  0.35980  0.24288  0.46830  1.0000 -0.1797221344
C   C48       1.0  0.64020  0.75712  0.53170  1.0000 -0.1797221344
C   C49       1.0  0.34800  0.28835  0.43340  1.0000 -0.1363540231
C   C50       1.0  0.65200  0.71165  0.56660  1.0000 -0.1363540231
C   C51       1.0  0.91690  0.93407  0.62600  1.0000 0.0778269773
C   C52       1.0  0.08310  0.06593  0.37400  1.0000 0.0778269773
C   C53       1.0  0.91350  0.88555  0.60130  1.0000 -0.2065157122
C   C54       1.0  0.08650  0.11445  0.39870  1.0000 -0.2065157122
C   C55       1.0  0.97242  0.87093  0.55926  1.0000 0.1303744142
C   C56       1.0  0.02758  0.12907  0.44074  1.0000 0.1303744142
C   C57       1.0  0.03290  0.90853  0.54571  1.0000 -0.1797221344
C   C58       1.0  0.96710  0.09147  0.45429  1.0000 -0.1797221344
C   C59       1.0  0.03210  0.95562  0.57251  1.0000 0.0623323568
C   C60       1.0  0.96790  0.04438  0.42749  1.0000 0.0623323568
C   C61       1.0  0.96920  0.81959  0.52876  1.0000 0.0438299482
C   C62       1.0  0.03080  0.18041  0.47124  1.0000 0.0438299482
C   C63       1.0  0.91950  0.77996  0.55035  1.0000 -0.131656093
C   C64       1.0  0.08050  0.22004  0.44965  1.0000 -0.131656093
C   C65       1.0  0.91290  0.73327  0.51950  1.0000 -0.1797221344
C   C66       1.0  0.08710  0.26673  0.48050  1.0000 -0.1797221344
C   C67       1.0  0.95460  0.72357  0.46581  1.0000 0.1681133635
C   C68       1.0  0.04540  0.27643  0.53419  1.0000 0.1681133635
C   C69       1.0  0.00390  0.76189  0.44352  1.0000 -0.1697843014
C   C70       1.0  0.99610  0.23811  0.55648  1.0000 -0.1697843014
C   C71       1.0  0.01130  0.80907  0.47513  1.0000 -0.1010353681
C   C72       1.0  0.98870  0.19093  0.52487  1.0000 -0.1010353681
C   C73       1.0  0.56300  0.58560  0.34800  1.0000 0.5013666773
C   C74       1.0  0.43700  0.41440  0.65200  1.0000 0.5013666773
C   C75       1.0  0.66490  0.60735  0.37072  1.0000 -0.0212969323
C   C76       1.0  0.33510  0.39265  0.62928  1.0000 -0.0212969323
C   C77       1.0  0.67610  0.65705  0.36430  1.0000 -0.1010353681
C   C78       1.0  0.32390  0.34295  0.63570  1.0000 -0.1010353681
C   C79       1.0  0.76650  0.67967  0.38400  1.0000 -0.1797221344
C   C80       1.0  0.23350  0.32033  0.61600  1.0000 -0.1797221344
C   C81       1.0  0.85030  0.65194  0.41158  1.0000 0.1681133635
C   C82       1.0  0.14970  0.34806  0.58842  1.0000 0.1681133635
C   C83       1.0  0.84180  0.60131  0.41958  1.0000 -0.1797221344
C   C84       1.0  0.15820  0.39869  0.58042  1.0000 -0.1797221344
C   C85       1.0  0.74790  0.57996  0.39890  1.0000 -0.1010353681
C   C86       1.0  0.25210  0.42004  0.60110  1.0000 -0.1010353681
C   C87       1.0  0.27170  0.58694  0.36570  1.0000 0.5389325791
C   C88       1.0  0.72830  0.41306  0.63430  1.0000 0.5389325791
C   C89       1.0  0.18535  0.61172  0.38156  1.0000 -0.0370923974
C   C90       1.0  0.81465  0.38828  0.61844  1.0000 -0.0370923974
C   C91       1.0  0.09120  0.60800  0.33362  1.0000 -0.1010353681
C   C92       1.0  0.90880  0.39200  0.66638  1.0000 -0.1010353681
C   C93       1.0  0.01140  0.62888  0.34986  1.0000 -0.1993650224
C   C94       1.0  0.98860  0.37112  0.65014  1.0000 -0.1993650224
C   C95       1.0  0.02479  0.65400  0.41434  1.0000 0.1792736263
C   C96       1.0  0.97521  0.34600  0.58566  1.0000 0.1792736263
C   C97       1.0  0.11940  0.65807  0.46182  1.0000 -0.1897420096
C   C98       1.0  0.88060  0.34193  0.53818  1.0000 -0.1897420096
C   C99       1.0  0.19870  0.63654  0.44579  1.0000 -0.0924913322
C   C100      1.0  0.80130  0.36346  0.55421  1.0000 -0.0924913322
C   C101      1.0  0.99100  0.02273  0.80834  1.0000 0.1191982901
C   C102      1.0  0.00900  0.97727  0.19166  1.0000 0.1191982901
C   C103      1.0  0.14550  0.02827  0.87130  1.0000 -0.0924913322
C   C104      1.0  0.85450  0.97173  0.12870  1.0000 -0.0924913322
C   C105      1.0  0.13540  0.03511  0.80160  1.0000 -0.0212969323
C   C106      1.0  0.86460  0.96489  0.19840  1.0000 -0.0212969323
C   C107      1.0  0.08520  0.97910  0.99138  1.0000 -0.1523212693
C   C108      1.0  0.91480  0.02090  0.00862  1.0000 -0.1523212693
C   C109      1.0  0.02540  0.00995  0.93921  1.0000 0.1406602225
C   C110      1.0  0.97460  0.99005  0.06079  1.0000 0.1406602225
C   C111      1.0  0.94030  0.03086  0.94730  1.0000 -0.1697843014
C   C112      1.0  0.05970  0.96914  0.05270  1.0000 -0.1697843014
C   C113      1.0  0.29050  0.54753  0.14988  1.0000 -0.0342484875
C   C114      1.0  0.70950  0.45247  0.85012  1.0000 -0.0342484875
C   C115      1.0  0.30670  0.54242  0.08603  1.0000 -0.0924913322
C   C116      1.0  0.69330  0.45758  0.91397  1.0000 -0.0924913322
C   C117      1.0  0.43490  0.51658  0.17114  1.0000 0.1013189271
C   C118      1.0  0.56510  0.48342  0.82886  1.0000 0.1013189271
C   C119      1.0  0.39920  0.49382  0.98131  1.0000 -0.1523212693
C   C120      1.0  0.60080  0.50618  0.01869  1.0000 -0.1523212693
C   C121      1.0  0.45070  0.51185  0.04877  1.0000 0.1406602225
C   C122      1.0  0.54930  0.48815  0.95123  1.0000 0.1406602225
C   C123      1.0  0.55160  0.51804  0.06733  1.0000 -0.1623309716
C   C124      1.0  0.44840  0.48196  0.93267  1.0000 -0.1623309716
C   C125      1.0  0.19130  0.57520  0.87557  1.0000 0.5333762341
C   C126      1.0  0.80870  0.42480  0.12443  1.0000 0.5333762341
C   C127      1.0  0.28350  0.60463  0.89230  1.0000 -0.0590914278
C   C128      1.0  0.71650  0.39537  0.10770  1.0000 -0.0590914278
C   C129      1.0  0.30920  0.63976  0.94700  1.0000 -0.1010353681
C   C130      1.0  0.69080  0.36024  0.05300  1.0000 -0.1010353681
C   C131      1.0  0.39500  0.66643  0.96250  1.0000 -0.1897420096
C   C132      1.0  0.60500  0.33357  0.03750  1.0000 -0.1897420096
C   C133      1.0  0.46000  0.65942  0.92263  1.0000 0.1946800151
C   C134      1.0  0.54000  0.34058  0.07737  1.0000 0.1946800151
C   C135      1.0  0.43460  0.62473  0.86670  1.0000 -0.1993650224
C   C136      1.0  0.56540  0.37527  0.13330  1.0000 -0.1993650224
C   C137      1.0  0.34810  0.59811  0.85228  1.0000 -0.0924913322
C   C138      1.0  0.65190  0.40189  0.14772  1.0000 -0.0924913322
C   C139      1.0  0.86850  0.60638  0.85177  1.0000 0.5389325791
C   C140      1.0  0.13150  0.39362  0.14823  1.0000 0.5389325791
C   C141      1.0  0.78420  0.62700  0.87449  1.0000 -0.0370923974
C   C142      1.0  0.21580  0.37300  0.12551  1.0000 -0.0370923974
C   C143      1.0  0.74660  0.67402  0.85130  1.0000 -0.1075618379
C   C144      1.0  0.25340  0.32598  0.14870  1.0000 -0.1075618379
C   C145      1.0  0.66820  0.69348  0.87240  1.0000 -0.1897420096
C   C146      1.0  0.33180  0.30652  0.12760  1.0000 -0.1897420096
C   C147      1.0  0.62970  0.66607  0.91710  1.0000 0.1681133635
C   C148      1.0  0.37030  0.33393  0.08290  1.0000 0.1681133635
C   C149      1.0  0.66650  0.61917  0.93900  1.0000 -0.1993650224
C   C150      1.0  0.33350  0.38083  0.06100  1.0000 -0.1993650224
C   C151      1.0  0.74320  0.59967  0.91760  1.0000 -0.1075618379
C   C152      1.0  0.25680  0.40033  0.08240  1.0000 -0.1075618379
C   C153      1.0  0.58340  0.96552  0.07631  1.0000 0.0778269773
C   C154      1.0  0.41660  0.03448  0.92369  1.0000 0.0778269773
C   C155      1.0  0.57480  0.92046  0.04071  1.0000 -0.1797221344
C   C156      1.0  0.42520  0.07954  0.95929  1.0000 -0.1797221344
C   C157      1.0  0.59370  0.87596  0.07984  1.0000 0.1191982901
C   C158      1.0  0.40630  0.12404  0.92016  1.0000 0.1191982901
C   C159      1.0  0.62090  0.88034  0.15366  1.0000 -0.1897420096
C   C160      1.0  0.37910  0.11966  0.84634  1.0000 -0.1897420096
C   C161      1.0  0.62620  0.92725  0.18510  1.0000 0.0717095607
C   C162      1.0  0.37380  0.07275  0.81490  1.0000 0.0717095607
C   C163      1.0  0.58360  0.82679  0.04274  1.0000 0.0538715921
C   C164      1.0  0.41640  0.17321  0.95726  1.0000 0.0538715921
C   C165      1.0  0.50530  0.81804  0.98088  1.0000 -0.1075618379
C   C166      1.0  0.49470  0.18196  0.01912  1.0000 -0.1075618379
C   C167      1.0  0.49310  0.77203  0.94650  1.0000 -0.1697843014
C   C168      1.0  0.50690  0.22797  0.05350  1.0000 -0.1697843014
C   C169      1.0  0.56070  0.73372  0.97250  1.0000 0.1681133635
C   C170      1.0  0.43930  0.26628  0.02750  1.0000 0.1681133635
C   C171      1.0  0.64020  0.74288  0.03170  1.0000 -0.1797221344
C   C172      1.0  0.35980  0.25712  0.96830  1.0000 -0.1797221344
C   C173      1.0  0.65200  0.78835  0.06660  1.0000 -0.1363540231
C   C174      1.0  0.34800  0.21165  0.93340  1.0000 -0.1363540231
C   C175      1.0  0.08310  0.43407  0.87400  1.0000 0.0778269773
C   C176      1.0  0.91690  0.56593  0.12600  1.0000 0.0778269773
C   C177      1.0  0.08650  0.38555  0.89870  1.0000 -0.2065157122
C   C178      1.0  0.91350  0.61445  0.10130  1.0000 -0.2065157122
C   C179      1.0  0.02758  0.37093  0.94074  1.0000 0.1303744142
C   C180      1.0  0.97242  0.62907  0.05926  1.0000 0.1303744142
C   C181      1.0  0.96710  0.40853  0.95429  1.0000 -0.1797221344
C   C182      1.0  0.03290  0.59147  0.04571  1.0000 -0.1797221344
C   C183      1.0  0.96790  0.45562  0.92749  1.0000 0.0623323568
C   C184      1.0  0.03210  0.54438  0.07251  1.0000 0.0623323568
C   C185      1.0  0.03080  0.31959  0.97124  1.0000 0.0438299482
C   C186      1.0  0.96920  0.68041  0.02876  1.0000 0.0438299482
C   C187      1.0  0.08050  0.27996  0.94965  1.0000 -0.131656093
C   C188      1.0  0.91950  0.72004  0.05035  1.0000 -0.131656093
C   C189      1.0  0.08710  0.23327  0.98050  1.0000 -0.1797221344
C   C190      1.0  0.91290  0.76673  0.01950  1.0000 -0.1797221344
C   C191      1.0  0.04540  0.22357  0.03419  1.0000 0.1681133635
C   C192      1.0  0.95460  0.77643  0.96581  1.0000 0.1681133635
C   C193      1.0  0.99610  0.26189  0.05648  1.0000 -0.1697843014
C   C194      1.0  0.00390  0.73811  0.94352  1.0000 -0.1697843014
C   C195      1.0  0.98870  0.30907  0.02487  1.0000 -0.1010353681
C   C196      1.0  0.01130  0.69093  0.97513  1.0000 -0.1010353681
C   C197      1.0  0.43700  0.08560  0.15200  1.0000 0.5013666773
C   C198      1.0  0.56300  0.91440  0.84800  1.0000 0.5013666773
C   C199      1.0  0.33510  0.10735  0.12928  1.0000 -0.0212969323
C   C200      1.0  0.66490  0.89265  0.87072  1.0000 -0.0212969323
C   C201      1.0  0.32390  0.15705  0.13570  1.0000 -0.1010353681
C   C202      1.0  0.67610  0.84295  0.86430  1.0000 -0.1010353681
C   C203      1.0  0.23350  0.17967  0.11600  1.0000 -0.1797221344
C   C204      1.0  0.76650  0.82033  0.88400  1.0000 -0.1797221344
C   C205      1.0  0.14970  0.15194  0.08842  1.0000 0.1681133635
C   C206      1.0  0.85030  0.84806  0.91158  1.0000 0.1681133635
C   C207      1.0  0.15820  0.10131  0.08042  1.0000 -0.1797221344
C   C208      1.0  0.84180  0.89869  0.91958  1.0000 -0.1797221344
C   C209      1.0  0.25210  0.07996  0.10110  1.0000 -0.1010353681
C   C210      1.0  0.74790  0.92004  0.89890  1.0000 -0.1010353681
C   C211      1.0  0.72830  0.08694  0.13430  1.0000 0.5389325791
C   C212      1.0  0.27170  0.91306  0.86570  1.0000 0.5389325791
C   C213      1.0  0.81465  0.11172  0.11844  1.0000 -0.0370923974
C   C214      1.0  0.18535  0.88828  0.88156  1.0000 -0.0370923974
C   C215      1.0  0.90880  0.10800  0.16638  1.0000 -0.1010353681
C   C216      1.0  0.09120  0.89200  0.83362  1.0000 -0.1010353681
C   C217      1.0  0.98860  0.12888  0.15014  1.0000 -0.1993650224
C   C218      1.0  0.01140  0.87112  0.84986  1.0000 -0.1993650224
C   C219      1.0  0.97521  0.15400  0.08566  1.0000 0.1792736263
C   C220      1.0  0.02479  0.84600  0.91434  1.0000 0.1792736263
C   C221      1.0  0.88060  0.15807  0.03818  1.0000 -0.1897420096
C   C222      1.0  0.11940  0.84193  0.96182  1.0000 -0.1897420096
C   C223      1.0  0.80130  0.13654  0.05421  1.0000 -0.1010353681
C   C224      1.0  0.19870  0.86346  0.94579  1.0000 -0.1010353681
C   C225      1.0  0.00900  0.52273  0.69166  1.0000 0.1191982901
C   C226      1.0  0.99100  0.47727  0.30834  1.0000 0.1191982901
C   C227      1.0  0.85450  0.52827  0.62870  1.0000 -0.0924913322
C   C228      1.0  0.14550  0.47173  0.37130  1.0000 -0.0924913322
C   C229      1.0  0.86460  0.53511  0.69840  1.0000 -0.0212969323
C   C230      1.0  0.13540  0.46489  0.30160  1.0000 -0.0212969323
C   C231      1.0  0.91480  0.47910  0.50862  1.0000 -0.1523212693
C   C232      1.0  0.08520  0.52090  0.49138  1.0000 -0.1523212693
C   C233      1.0  0.97460  0.50995  0.56079  1.0000 0.1406602225
C   C234      1.0  0.02540  0.49005  0.43921  1.0000 0.1406602225
C   C235      1.0  0.05970  0.53086  0.55270  1.0000 -0.1697843014
C   C236      1.0  0.94030  0.46914  0.44730  1.0000 -0.1697843014
C   C237      1.0  0.70950  0.04753  0.35012  1.0000 -0.0342484875
C   C238      1.0  0.29050  0.95247  0.64988  1.0000 -0.0342484875
C   C239      1.0  0.69330  0.04242  0.41397  1.0000 -0.0924913322
C   C240      1.0  0.30670  0.95758  0.58603  1.0000 -0.0924913322
C   C241      1.0  0.56510  0.01658  0.32886  1.0000 0.1013189271
C   C242      1.0  0.43490  0.98342  0.67114  1.0000 0.1013189271
C   C243      1.0  0.60080  0.99382  0.51869  1.0000 -0.1523212693
C   C244      1.0  0.39920  0.00618  0.48131  1.0000 -0.1523212693
C   C245      1.0  0.54930  0.01185  0.45123  1.0000 0.1406602225
C   C246      1.0  0.45070  0.98815  0.54877  1.0000 0.1406602225
C   C247      1.0  0.44840  0.01804  0.43267  1.0000 -0.1623309716
C   C248      1.0  0.55160  0.98196  0.56733  1.0000 -0.1623309716
N   N1        1.0  0.39214  0.46988  0.35194  1.0000 -0.2323047924
N   N2        1.0  0.60786  0.53012  0.64806  1.0000 -0.2323047924
N   N3        1.0  0.45054  0.18595  0.56189  1.0000 -0.1797221344
N   N4        1.0  0.54946  0.81405  0.43811  1.0000 -0.1797221344
N   N5        1.0  0.97417  0.96963  0.61248  1.0000 -0.2323047924
N   N6        1.0  0.02583  0.03037  0.38752  1.0000 -0.2323047924
N   N7        1.0  0.94460  0.67569  0.43259  1.0000 -0.1797221344
N   N8        1.0  0.05540  0.32431  0.56741  1.0000 -0.1797221344
N   N9        1.0  0.03844  0.03256  0.76165  1.0000 -0.2740448243
N   N10       1.0  0.96156  0.96744  0.23835  1.0000 -0.2740448243
N   N11       1.0  0.05183  0.02014  0.87550  1.0000 0.0021533757
N   N12       1.0  0.94817  0.97986  0.12450  1.0000 0.0021533757
N   N13       1.0  0.37178  0.53072  0.20375  1.0000 -0.275889886
N   N14       1.0  0.62822  0.46928  0.79625  1.0000 -0.275889886
N   N15       1.0  0.39952  0.52316  0.09948  1.0000 0.0071269614
N   N16       1.0  0.60048  0.47684  0.90052  1.0000 0.0071269614
N   N17       1.0  0.60786  0.96988  0.14806  1.0000 -0.2323047924
N   N18       1.0  0.39214  0.03012  0.85194  1.0000 -0.2323047924
N   N19       1.0  0.54946  0.68595  0.93811  1.0000 -0.1797221344
N   N20       1.0  0.45054  0.31405  0.06189  1.0000 -0.1797221344
N   N21       1.0  0.02583  0.46963  0.88752  1.0000 -0.2323047924
N   N22       1.0  0.97417  0.53037  0.11248  1.0000 -0.2323047924
N   N23       1.0  0.05540  0.17569  0.06741  1.0000 -0.1797221344
N   N24       1.0  0.94460  0.82431  0.93259  1.0000 -0.1797221344
N   N25       1.0  0.96156  0.53256  0.73835  1.0000 -0.2740448243
N   N26       1.0  0.03844  0.46744  0.26165  1.0000 -0.2740448243
N   N27       1.0  0.94817  0.52014  0.62450  1.0000 0.0021533757
N   N28       1.0  0.05183  0.47986  0.37550  1.0000 0.0021533757
N   N29       1.0  0.62822  0.03072  0.29625  1.0000 -0.275889886
N   N30       1.0  0.37178  0.96928  0.70375  1.0000 -0.275889886
N   N31       1.0  0.60048  0.02316  0.40052  1.0000 0.0071269614
N   N32       1.0  0.39952  0.97684  0.59948  1.0000 0.0071269614
O   O1        1.0  0.87097  0.08445  0.59295  1.0000 -0.5269297785
O   O2        1.0  0.12903  0.91555  0.40705  1.0000 -0.5269297785
O   O3        1.0  0.82360  0.03996  0.67101  1.0000 -0.5893549449
O   O4        1.0  0.17640  0.96004  0.32899  1.0000 -0.5893549449
O   O5        1.0  0.09969  0.06306  0.62433  1.0000 -0.5595083213
O   O6        1.0  0.90031  0.93694  0.37567  1.0000 -0.5595083213
O   O7        1.0  0.09607  0.13139  0.68796  1.0000 -0.5378987617
O   O8        1.0  0.90393  0.86861  0.31204  1.0000 -0.5378987617
O   O9        1.0  0.26378  0.57544  0.30080  1.0000 -0.5378987617
O   O10       1.0  0.73622  0.42456  0.69920  1.0000 -0.5378987617
O   O11       1.0  0.34826  0.57774  0.41596  1.0000 -0.5595083213
O   O12       1.0  0.65174  0.42226  0.58404  1.0000 -0.5595083213
O   O13       1.0  0.55030  0.54260  0.35936  1.0000 -0.453758148
O   O14       1.0  0.44970  0.45740  0.64064  1.0000 -0.453758148
O   O15       1.0  0.49080  0.60946  0.31700  1.0000 -0.433899065
O   O16       1.0  0.50920  0.39054  0.68300  1.0000 -0.433899065
O   O17       1.0  0.12903  0.58445  0.90705  1.0000 -0.5269297785
O   O18       1.0  0.87097  0.41555  0.09295  1.0000 -0.5269297785
O   O19       1.0  0.17640  0.53996  0.82899  1.0000 -0.5893549449
O   O20       1.0  0.82360  0.46004  0.17101  1.0000 -0.5893549449
O   O21       1.0  0.90031  0.56306  0.87567  1.0000 -0.5595083213
O   O22       1.0  0.09969  0.43694  0.12433  1.0000 -0.5595083213
O   O23       1.0  0.90393  0.63139  0.81204  1.0000 -0.5378987617
O   O24       1.0  0.09607  0.36861  0.18796  1.0000 -0.5378987617
O   O25       1.0  0.73622  0.07544  0.19920  1.0000 -0.5378987617
O   O26       1.0  0.26378  0.92456  0.80080  1.0000 -0.5378987617
O   O27       1.0  0.65174  0.07774  0.08404  1.0000 -0.5595083213
O   O28       1.0  0.34826  0.92226  0.91596  1.0000 -0.5595083213
O   O29       1.0  0.44970  0.04260  0.14064  1.0000 -0.453758148
O   O30       1.0  0.55030  0.95740  0.85936  1.0000 -0.453758148
O   O31       1.0  0.50920  0.10946  0.18300  1.0000 -0.433899065
O   O32       1.0  0.49080  0.89054  0.81700  1.0000 -0.433899065
