# DDEC6 charges by PACMAN v1.1 (https://github.com/mtap-research/PACMAN-charge/)
data_2016[Cd][dia]3[ASR]3
_chemical_formula_sum              "Cd8 H208 C144 N32 O32"
_cell_length_a       16.1672
_cell_length_b       16.8283
_cell_length_c       17.6907
_cell_angle_alpha    90
_cell_angle_beta     90
_cell_angle_gamma    90

_symmetry_space_group_name_H-M    "P 1"
_symmetry_Int_Tables_number       1

loop_
  _symmetry_equiv_pos_as_xyz
  'x, y, z'

loop_
  _atom_site_type_symbol
  _atom_site_label
  _atom_site_symmetry_multiplicity
  _atom_site_fract_x
  _atom_site_fract_y
  _atom_site_fract_z
  _atom_site_occupancy
  _atom_site_charge
Cd  Cd1       1.0  0.32943  0.77661  0.24584  1.0000 0.8144551084
Cd  Cd2       1.0  0.32943  0.72339  0.75416  1.0000 0.8144551084
Cd  Cd3       1.0  0.67057  0.22339  0.75416  1.0000 0.8144551084
Cd  Cd4       1.0  0.67057  0.27661  0.24584  1.0000 0.8144551084
Cd  Cd5       1.0  0.17057  0.27661  0.25416  1.0000 0.8144551084
Cd  Cd6       1.0  0.17057  0.22339  0.74584  1.0000 0.8144551084
Cd  Cd7       1.0  0.82943  0.72339  0.74584  1.0000 0.8144551084
Cd  Cd8       1.0  0.82943  0.77661  0.25416  1.0000 0.8144551084
H   H1        1.0  0.17970  0.54760  0.30100  1.0000 0.1283438692
H   H2        1.0  0.17970  0.95240  0.69900  1.0000 0.1283438692
H   H3        1.0  0.82030  0.45240  0.69900  1.0000 0.1283438692
H   H4        1.0  0.82030  0.04760  0.30100  1.0000 0.1283438692
H   H5        1.0  0.11260  0.61440  0.30380  1.0000 0.1106686513
H   H6        1.0  0.11260  0.88560  0.69620  1.0000 0.1106686513
H   H7        1.0  0.88740  0.38560  0.69620  1.0000 0.1106686513
H   H8        1.0  0.88740  0.11440  0.30380  1.0000 0.1106686513
H   H9        1.0  0.15200  0.52290  0.17610  1.0000 0.0902966772
H   H10       1.0  0.15200  0.97710  0.82390  1.0000 0.0902966772
H   H11       1.0  0.84800  0.47710  0.82390  1.0000 0.0902966772
H   H12       1.0  0.84800  0.02290  0.17610  1.0000 0.0902966772
H   H13       1.0  0.09260  0.59640  0.17170  1.0000 0.0902966772
H   H14       1.0  0.09260  0.90360  0.82830  1.0000 0.0902966772
H   H15       1.0  0.90740  0.40360  0.82830  1.0000 0.0902966772
H   H16       1.0  0.90740  0.09640  0.17170  1.0000 0.0902966772
H   H17       1.0  0.02460  0.46950  0.18260  1.0000 0.0827858166
H   H18       1.0  0.02460  0.03050  0.81740  1.0000 0.0827858166
H   H19       1.0  0.97540  0.53050  0.81740  1.0000 0.0827858166
H   H20       1.0  0.97540  0.96950  0.18260  1.0000 0.0827858166
H   H21       1.0  0.05750  0.46560  0.26570  1.0000 0.1004875203
H   H22       1.0  0.05750  0.03440  0.73430  1.0000 0.1004875203
H   H23       1.0  0.94250  0.53440  0.73430  1.0000 0.1004875203
H   H24       1.0  0.94250  0.96560  0.26570  1.0000 0.1004875203
H   H25       1.0  0.94660  0.58090  0.21260  1.0000 0.1004875203
H   H26       1.0  0.94660  0.91910  0.78740  1.0000 0.1004875203
H   H27       1.0  0.05340  0.41910  0.78740  1.0000 0.1004875203
H   H28       1.0  0.05340  0.08090  0.21260  1.0000 0.1004875203
H   H29       1.0  0.98050  0.57880  0.29530  1.0000 0.0827858166
H   H30       1.0  0.98050  0.92120  0.70470  1.0000 0.0827858166
H   H31       1.0  0.01950  0.42120  0.70470  1.0000 0.0827858166
H   H32       1.0  0.01950  0.07880  0.29530  1.0000 0.0827858166
H   H33       1.0  0.91180  0.45260  0.30990  1.0000 0.0902966772
H   H34       1.0  0.91180  0.04740  0.69010  1.0000 0.0902966772
H   H35       1.0  0.08820  0.54740  0.69010  1.0000 0.0902966772
H   H36       1.0  0.08820  0.95260  0.30990  1.0000 0.0902966772
H   H37       1.0  0.85310  0.52640  0.30490  1.0000 0.0902966772
H   H38       1.0  0.85310  0.97360  0.69510  1.0000 0.0902966772
H   H39       1.0  0.14690  0.47360  0.69510  1.0000 0.0902966772
H   H40       1.0  0.14690  0.02640  0.30490  1.0000 0.0902966772
H   H41       1.0  0.82350  0.49810  0.18040  1.0000 0.1283438692
H   H42       1.0  0.82350  0.00190  0.81960  1.0000 0.1283438692
H   H43       1.0  0.17650  0.50190  0.81960  1.0000 0.1283438692
H   H44       1.0  0.17650  0.99810  0.18040  1.0000 0.1283438692
H   H45       1.0  0.88690  0.42790  0.18080  1.0000 0.1106686513
H   H46       1.0  0.88690  0.07210  0.81920  1.0000 0.1106686513
H   H47       1.0  0.11310  0.57210  0.81920  1.0000 0.1106686513
H   H48       1.0  0.11310  0.92790  0.18080  1.0000 0.1106686513
H   H49       1.0  0.53000  0.75660  0.32170  1.0000 0.1283438692
H   H50       1.0  0.53000  0.74340  0.67830  1.0000 0.1283438692
H   H51       1.0  0.47000  0.24340  0.67830  1.0000 0.1283438692
H   H52       1.0  0.47000  0.25660  0.32170  1.0000 0.1283438692
H   H53       1.0  0.57430  0.81140  0.44320  1.0000 0.1364283596
H   H54       1.0  0.57430  0.68860  0.55680  1.0000 0.1364283596
H   H55       1.0  0.42570  0.18860  0.55680  1.0000 0.1364283596
H   H56       1.0  0.42570  0.31140  0.44320  1.0000 0.1364283596
H   H57       1.0  0.33980  0.86750  0.40860  1.0000 0.1283438692
H   H58       1.0  0.33980  0.63250  0.59140  1.0000 0.1283438692
H   H59       1.0  0.66020  0.13250  0.59140  1.0000 0.1283438692
H   H60       1.0  0.66020  0.36750  0.40860  1.0000 0.1283438692
H   H61       1.0  0.49560  0.87880  0.55550  1.0000 0.1106686513
H   H62       1.0  0.49560  0.62120  0.44450  1.0000 0.1106686513
H   H63       1.0  0.50440  0.12120  0.44450  1.0000 0.1106686513
H   H64       1.0  0.50440  0.37880  0.55550  1.0000 0.1106686513
H   H65       1.0  0.39930  0.88560  0.54800  1.0000 0.1283438692
H   H66       1.0  0.39930  0.61440  0.45200  1.0000 0.1283438692
H   H67       1.0  0.60070  0.11440  0.45200  1.0000 0.1283438692
H   H68       1.0  0.60070  0.38560  0.54800  1.0000 0.1283438692
H   H69       1.0  0.41850  0.00410  0.47560  1.0000 0.1106686513
H   H70       1.0  0.41850  0.49590  0.52440  1.0000 0.1106686513
H   H71       1.0  0.58150  0.99590  0.52440  1.0000 0.1106686513
H   H72       1.0  0.58150  0.50410  0.47560  1.0000 0.1106686513
H   H73       1.0  0.44630  0.01280  0.56000  1.0000 0.1004875203
H   H74       1.0  0.44630  0.48720  0.44000  1.0000 0.1004875203
H   H75       1.0  0.55370  0.98720  0.44000  1.0000 0.1004875203
H   H76       1.0  0.55370  0.51280  0.56000  1.0000 0.1004875203
H   H77       1.0  0.53370  0.78990  0.18200  1.0000 0.1283438692
H   H78       1.0  0.53370  0.71010  0.81800  1.0000 0.1283438692
H   H79       1.0  0.46630  0.21010  0.81800  1.0000 0.1283438692
H   H80       1.0  0.46630  0.28990  0.18200  1.0000 0.1283438692
H   H81       1.0  0.59090  0.71190  0.07890  1.0000 0.1364283596
H   H82       1.0  0.59090  0.78810  0.92110  1.0000 0.1364283596
H   H83       1.0  0.40910  0.28810  0.92110  1.0000 0.1364283596
H   H84       1.0  0.40910  0.21190  0.07890  1.0000 0.1364283596
H   H85       1.0  0.35200  0.66840  0.09300  1.0000 0.1283438692
H   H86       1.0  0.35200  0.83160  0.90700  1.0000 0.1283438692
H   H87       1.0  0.64800  0.33160  0.90700  1.0000 0.1283438692
H   H88       1.0  0.64800  0.16840  0.09300  1.0000 0.1283438692
H   H89       1.0  0.52080  0.62760  0.96670  1.0000 0.1106686513
H   H90       1.0  0.52080  0.87240  0.03330  1.0000 0.1106686513
H   H91       1.0  0.47920  0.37240  0.03330  1.0000 0.1106686513
H   H92       1.0  0.47920  0.12760  0.96670  1.0000 0.1106686513
H   H93       1.0  0.42580  0.61080  0.97510  1.0000 0.1203024552
H   H94       1.0  0.42580  0.88920  0.02490  1.0000 0.1203024552
H   H95       1.0  0.57420  0.38920  0.02490  1.0000 0.1203024552
H   H96       1.0  0.57420  0.11080  0.97510  1.0000 0.1203024552
H   H97       1.0  0.45350  0.51410  0.06610  1.0000 0.1106686513
H   H98       1.0  0.45350  0.98590  0.93390  1.0000 0.1106686513
H   H99       1.0  0.54650  0.48590  0.93390  1.0000 0.1106686513
H   H100      1.0  0.54650  0.01410  0.06610  1.0000 0.1106686513
H   H101      1.0  0.54850  0.53150  0.05910  1.0000 0.1106686513
H   H102      1.0  0.54850  0.96850  0.94090  1.0000 0.1106686513
H   H103      1.0  0.45150  0.46850  0.94090  1.0000 0.1106686513
H   H104      1.0  0.45150  0.03150  0.05910  1.0000 0.1106686513
H   H105      1.0  0.32030  0.04760  0.19900  1.0000 0.1283438692
H   H106      1.0  0.32030  0.45240  0.80100  1.0000 0.1283438692
H   H107      1.0  0.67970  0.95240  0.80100  1.0000 0.1283438692
H   H108      1.0  0.67970  0.54760  0.19900  1.0000 0.1283438692
H   H109      1.0  0.38740  0.11440  0.19620  1.0000 0.1106686513
H   H110      1.0  0.38740  0.38560  0.80380  1.0000 0.1106686513
H   H111      1.0  0.61260  0.88560  0.80380  1.0000 0.1106686513
H   H112      1.0  0.61260  0.61440  0.19620  1.0000 0.1106686513
H   H113      1.0  0.34800  0.02290  0.32390  1.0000 0.0902966772
H   H114      1.0  0.34800  0.47710  0.67610  1.0000 0.0902966772
H   H115      1.0  0.65200  0.97710  0.67610  1.0000 0.0902966772
H   H116      1.0  0.65200  0.52290  0.32390  1.0000 0.0902966772
H   H117      1.0  0.40740  0.09640  0.32830  1.0000 0.0902966772
H   H118      1.0  0.40740  0.40360  0.67170  1.0000 0.0902966772
H   H119      1.0  0.59260  0.90360  0.67170  1.0000 0.0902966772
H   H120      1.0  0.59260  0.59640  0.32830  1.0000 0.0902966772
H   H121      1.0  0.47540  0.96950  0.31740  1.0000 0.0827858166
H   H122      1.0  0.47540  0.53050  0.68260  1.0000 0.0827858166
H   H123      1.0  0.52460  0.03050  0.68260  1.0000 0.0827858166
H   H124      1.0  0.52460  0.46950  0.31740  1.0000 0.0827858166
H   H125      1.0  0.44250  0.96560  0.23430  1.0000 0.1004875203
H   H126      1.0  0.44250  0.53440  0.76570  1.0000 0.1004875203
H   H127      1.0  0.55750  0.03440  0.76570  1.0000 0.1004875203
H   H128      1.0  0.55750  0.46560  0.23430  1.0000 0.1004875203
H   H129      1.0  0.55340  0.08090  0.28740  1.0000 0.1004875203
H   H130      1.0  0.55340  0.41910  0.71260  1.0000 0.1004875203
H   H131      1.0  0.44660  0.91910  0.71260  1.0000 0.1004875203
H   H132      1.0  0.44660  0.58090  0.28740  1.0000 0.1004875203
H   H133      1.0  0.51950  0.07880  0.20470  1.0000 0.0827858166
H   H134      1.0  0.51950  0.42120  0.79530  1.0000 0.0827858166
H   H135      1.0  0.48050  0.92120  0.79530  1.0000 0.0827858166
H   H136      1.0  0.48050  0.57880  0.20470  1.0000 0.0827858166
H   H137      1.0  0.58820  0.95260  0.19010  1.0000 0.0902966772
H   H138      1.0  0.58820  0.54740  0.80990  1.0000 0.0902966772
H   H139      1.0  0.41180  0.04740  0.80990  1.0000 0.0902966772
H   H140      1.0  0.41180  0.45260  0.19010  1.0000 0.0902966772
H   H141      1.0  0.64690  0.02640  0.19510  1.0000 0.0902966772
H   H142      1.0  0.64690  0.47360  0.80490  1.0000 0.0902966772
H   H143      1.0  0.35310  0.97360  0.80490  1.0000 0.0902966772
H   H144      1.0  0.35310  0.52640  0.19510  1.0000 0.0902966772
H   H145      1.0  0.67650  0.99810  0.31960  1.0000 0.1283438692
H   H146      1.0  0.67650  0.50190  0.68040  1.0000 0.1283438692
H   H147      1.0  0.32350  0.00190  0.68040  1.0000 0.1283438692
H   H148      1.0  0.32350  0.49810  0.31960  1.0000 0.1283438692
H   H149      1.0  0.61310  0.92790  0.31920  1.0000 0.1106686513
H   H150      1.0  0.61310  0.57210  0.68080  1.0000 0.1106686513
H   H151      1.0  0.38690  0.07210  0.68080  1.0000 0.1106686513
H   H152      1.0  0.38690  0.42790  0.31920  1.0000 0.1106686513
H   H153      1.0  0.97000  0.25660  0.17830  1.0000 0.1283438692
H   H154      1.0  0.97000  0.24340  0.82170  1.0000 0.1283438692
H   H155      1.0  0.03000  0.74340  0.82170  1.0000 0.1283438692
H   H156      1.0  0.03000  0.75660  0.17830  1.0000 0.1283438692
H   H157      1.0  0.92570  0.31140  0.05680  1.0000 0.1364283596
H   H158      1.0  0.92570  0.18860  0.94320  1.0000 0.1364283596
H   H159      1.0  0.07430  0.68860  0.94320  1.0000 0.1364283596
H   H160      1.0  0.07430  0.81140  0.05680  1.0000 0.1364283596
H   H161      1.0  0.16020  0.36750  0.09140  1.0000 0.1283438692
H   H162      1.0  0.16020  0.13250  0.90860  1.0000 0.1283438692
H   H163      1.0  0.83980  0.63250  0.90860  1.0000 0.1283438692
H   H164      1.0  0.83980  0.86750  0.09140  1.0000 0.1283438692
H   H165      1.0  0.00440  0.37880  0.94450  1.0000 0.1106686513
H   H166      1.0  0.00440  0.12120  0.05550  1.0000 0.1106686513
H   H167      1.0  0.99560  0.62120  0.05550  1.0000 0.1106686513
H   H168      1.0  0.99560  0.87880  0.94450  1.0000 0.1106686513
H   H169      1.0  0.10070  0.38560  0.95200  1.0000 0.1283438692
H   H170      1.0  0.10070  0.11440  0.04800  1.0000 0.1283438692
H   H171      1.0  0.89930  0.61440  0.04800  1.0000 0.1283438692
H   H172      1.0  0.89930  0.88560  0.95200  1.0000 0.1283438692
H   H173      1.0  0.08150  0.50410  0.02440  1.0000 0.1106686513
H   H174      1.0  0.08150  0.99590  0.97560  1.0000 0.1106686513
H   H175      1.0  0.91850  0.49590  0.97560  1.0000 0.1106686513
H   H176      1.0  0.91850  0.00410  0.02440  1.0000 0.1106686513
H   H177      1.0  0.05370  0.51280  0.94000  1.0000 0.1004875203
H   H178      1.0  0.05370  0.98720  0.06000  1.0000 0.1004875203
H   H179      1.0  0.94630  0.48720  0.06000  1.0000 0.1004875203
H   H180      1.0  0.94630  0.01280  0.94000  1.0000 0.1004875203
H   H181      1.0  0.96630  0.28990  0.31800  1.0000 0.1283438692
H   H182      1.0  0.96630  0.21010  0.68200  1.0000 0.1283438692
H   H183      1.0  0.03370  0.71010  0.68200  1.0000 0.1283438692
H   H184      1.0  0.03370  0.78990  0.31800  1.0000 0.1283438692
H   H185      1.0  0.90910  0.21190  0.42110  1.0000 0.1364283596
H   H186      1.0  0.90910  0.28810  0.57890  1.0000 0.1364283596
H   H187      1.0  0.09090  0.78810  0.57890  1.0000 0.1364283596
H   H188      1.0  0.09090  0.71190  0.42110  1.0000 0.1364283596
H   H189      1.0  0.14800  0.16840  0.40700  1.0000 0.1283438692
H   H190      1.0  0.14800  0.33160  0.59300  1.0000 0.1283438692
H   H191      1.0  0.85200  0.83160  0.59300  1.0000 0.1283438692
H   H192      1.0  0.85200  0.66840  0.40700  1.0000 0.1283438692
H   H193      1.0  0.97920  0.12760  0.53330  1.0000 0.1106686513
H   H194      1.0  0.97920  0.37240  0.46670  1.0000 0.1106686513
H   H195      1.0  0.02080  0.87240  0.46670  1.0000 0.1106686513
H   H196      1.0  0.02080  0.62760  0.53330  1.0000 0.1106686513
H   H197      1.0  0.07420  0.11080  0.52490  1.0000 0.1203024552
H   H198      1.0  0.07420  0.38920  0.47510  1.0000 0.1203024552
H   H199      1.0  0.92580  0.88920  0.47510  1.0000 0.1203024552
H   H200      1.0  0.92580  0.61080  0.52490  1.0000 0.1203024552
H   H201      1.0  0.04650  0.01410  0.43390  1.0000 0.1106686513
H   H202      1.0  0.04650  0.48590  0.56610  1.0000 0.1106686513
H   H203      1.0  0.95350  0.98590  0.56610  1.0000 0.1106686513
H   H204      1.0  0.95350  0.51410  0.43390  1.0000 0.1106686513
H   H205      1.0  0.95150  0.03150  0.44090  1.0000 0.1106686513
H   H206      1.0  0.95150  0.46850  0.55910  1.0000 0.1106686513
H   H207      1.0  0.04850  0.96850  0.55910  1.0000 0.1106686513
H   H208      1.0  0.04850  0.53150  0.44090  1.0000 0.1106686513
C   C1        1.0  0.22060  0.65240  0.25470  1.0000 0.601442644
C   C2        1.0  0.22060  0.84760  0.74530  1.0000 0.601442644
C   C3        1.0  0.77940  0.34760  0.74530  1.0000 0.601442644
C   C4        1.0  0.77940  0.15240  0.25470  1.0000 0.601442644
C   C5        1.0  0.15440  0.59010  0.27210  1.0000 -0.3320320159
C   C6        1.0  0.15440  0.90990  0.72790  1.0000 -0.3320320159
C   C7        1.0  0.84560  0.40990  0.72790  1.0000 -0.3320320159
C   C8        1.0  0.84560  0.09010  0.27210  1.0000 -0.3320320159
C   C9        1.0  0.11220  0.55410  0.20440  1.0000 -0.1313818161
C   C10       1.0  0.11220  0.94590  0.79560  1.0000 -0.1313818161
C   C11       1.0  0.88780  0.44590  0.79560  1.0000 -0.1313818161
C   C12       1.0  0.88780  0.05410  0.20440  1.0000 -0.1313818161
C   C13       1.0  0.03980  0.50150  0.22600  1.0000 -0.1895783821
C   C14       1.0  0.03980  0.99850  0.77400  1.0000 -0.1849811434
C   C15       1.0  0.96020  0.49850  0.77400  1.0000 -0.1849811434
C   C16       1.0  0.96020  0.00150  0.22600  1.0000 -0.1895783821
C   C17       1.0  0.96480  0.54580  0.25280  1.0000 -0.1849811434
C   C18       1.0  0.96480  0.95420  0.74720  1.0000 -0.1849811434
C   C19       1.0  0.03520  0.45420  0.74720  1.0000 -0.1849811434
C   C20       1.0  0.03520  0.04580  0.25280  1.0000 -0.1849811434
C   C21       1.0  0.89190  0.49410  0.27650  1.0000 -0.1313818161
C   C22       1.0  0.89190  0.00590  0.72350  1.0000 -0.1313818161
C   C23       1.0  0.10810  0.50590  0.72350  1.0000 -0.1313818161
C   C24       1.0  0.10810  0.99410  0.27650  1.0000 -0.1313818161
C   C25       1.0  0.84700  0.45640  0.21150  1.0000 -0.339429228
C   C26       1.0  0.84700  0.04360  0.78850  1.0000 -0.339429228
C   C27       1.0  0.15300  0.54360  0.78850  1.0000 -0.339429228
C   C28       1.0  0.15300  0.95640  0.21150  1.0000 -0.339429228
C   C29       1.0  0.77950  0.40020  0.23300  1.0000 0.6071783394
C   C30       1.0  0.77950  0.09980  0.76700  1.0000 0.6071783394
C   C31       1.0  0.22050  0.59980  0.76700  1.0000 0.6071783394
C   C32       1.0  0.22050  0.90020  0.23300  1.0000 0.6071783394
C   C33       1.0  0.49680  0.78550  0.35470  1.0000 -0.0488869681
C   C34       1.0  0.49680  0.71450  0.64530  1.0000 -0.0488869681
C   C35       1.0  0.50320  0.21450  0.64530  1.0000 -0.0488869681
C   C36       1.0  0.50320  0.28550  0.35470  1.0000 -0.0488869681
C   C37       1.0  0.52200  0.81570  0.42170  1.0000 -0.120532146
C   C38       1.0  0.52200  0.68430  0.57830  1.0000 -0.120532146
C   C39       1.0  0.47800  0.18430  0.57830  1.0000 -0.120532146
C   C40       1.0  0.47800  0.31570  0.42170  1.0000 -0.120532146
C   C41       1.0  0.39230  0.84600  0.40200  1.0000 0.0827858166
C   C42       1.0  0.39230  0.65400  0.59800  1.0000 0.0827858166
C   C43       1.0  0.60770  0.15400  0.59800  1.0000 0.0827858166
C   C44       1.0  0.60770  0.34600  0.40200  1.0000 0.0827858166
C   C45       1.0  0.45130  0.89720  0.52300  1.0000 -0.1313818161
C   C46       1.0  0.45130  0.60280  0.47700  1.0000 -0.1313818161
C   C47       1.0  0.54870  0.10280  0.47700  1.0000 -0.1313818161
C   C48       1.0  0.54870  0.39720  0.52300  1.0000 -0.1313818161
C   C49       1.0  0.45920  0.98690  0.51240  1.0000 -0.1965561643
C   C50       1.0  0.45920  0.51310  0.48760  1.0000 -0.1965561643
C   C51       1.0  0.54080  0.01310  0.48760  1.0000 -0.1965561643
C   C52       1.0  0.54080  0.48690  0.51240  1.0000 -0.1965561643
C   C53       1.0  0.50390  0.75540  0.15120  1.0000 -0.0557081759
C   C54       1.0  0.50390  0.74460  0.84880  1.0000 -0.0557081759
C   C55       1.0  0.49610  0.24460  0.84880  1.0000 -0.0557081759
C   C56       1.0  0.49610  0.25540  0.15120  1.0000 -0.0557081759
C   C57       1.0  0.53590  0.71260  0.09420  1.0000 -0.1132227065
C   C58       1.0  0.53590  0.78740  0.90580  1.0000 -0.1132227065
C   C59       1.0  0.46410  0.28740  0.90580  1.0000 -0.1132227065
C   C60       1.0  0.46410  0.21260  0.09420  1.0000 -0.1132227065
C   C61       1.0  0.40430  0.68910  0.10260  1.0000 0.0649945528
C   C62       1.0  0.40430  0.81090  0.89740  1.0000 0.0649945528
C   C63       1.0  0.59570  0.31090  0.89740  1.0000 0.0649945528
C   C64       1.0  0.59570  0.18910  0.10260  1.0000 0.0649945528
C   C65       1.0  0.47800  0.61190  0.00210  1.0000 -0.1313818161
C   C66       1.0  0.47800  0.88810  0.99790  1.0000 -0.1313818161
C   C67       1.0  0.52200  0.38810  0.99790  1.0000 -0.1313818161
C   C68       1.0  0.52200  0.11190  0.00210  1.0000 -0.1313818161
C   C69       1.0  0.49680  0.53020  0.03140  1.0000 -0.1895783821
C   C70       1.0  0.49680  0.96980  0.96860  1.0000 -0.1895783821
C   C71       1.0  0.50320  0.46980  0.96860  1.0000 -0.1895783821
C   C72       1.0  0.50320  0.03020  0.03140  1.0000 -0.1895783821
C   C73       1.0  0.27940  0.15240  0.24530  1.0000 0.601442644
C   C74       1.0  0.27940  0.34760  0.75470  1.0000 0.601442644
C   C75       1.0  0.72060  0.84760  0.75470  1.0000 0.601442644
C   C76       1.0  0.72060  0.65240  0.24530  1.0000 0.601442644
C   C77       1.0  0.34560  0.09010  0.22790  1.0000 -0.3320320159
C   C78       1.0  0.34560  0.40990  0.77210  1.0000 -0.3320320159
C   C79       1.0  0.65440  0.90990  0.77210  1.0000 -0.3320320159
C   C80       1.0  0.65440  0.59010  0.22790  1.0000 -0.3320320159
C   C81       1.0  0.38780  0.05410  0.29560  1.0000 -0.1313818161
C   C82       1.0  0.38780  0.44590  0.70440  1.0000 -0.1313818161
C   C83       1.0  0.61220  0.94590  0.70440  1.0000 -0.1313818161
C   C84       1.0  0.61220  0.55410  0.29560  1.0000 -0.1313818161
C   C85       1.0  0.46020  0.00150  0.27400  1.0000 -0.1895783821
C   C86       1.0  0.46020  0.49850  0.72600  1.0000 -0.1895783821
C   C87       1.0  0.53980  0.99850  0.72600  1.0000 -0.1849811434
C   C88       1.0  0.53980  0.50150  0.27400  1.0000 -0.1895783821
C   C89       1.0  0.53520  0.04580  0.24720  1.0000 -0.1849811434
C   C90       1.0  0.53520  0.45420  0.75280  1.0000 -0.1849811434
C   C91       1.0  0.46480  0.95420  0.75280  1.0000 -0.1849811434
C   C92       1.0  0.46480  0.54580  0.24720  1.0000 -0.1849811434
C   C93       1.0  0.60810  0.99410  0.22350  1.0000 -0.1313818161
C   C94       1.0  0.60810  0.50590  0.77650  1.0000 -0.1313818161
C   C95       1.0  0.39190  0.00590  0.77650  1.0000 -0.1313818161
C   C96       1.0  0.39190  0.49410  0.22350  1.0000 -0.1313818161
C   C97       1.0  0.65300  0.95640  0.28850  1.0000 -0.339429228
C   C98       1.0  0.65300  0.54360  0.71150  1.0000 -0.339429228
C   C99       1.0  0.34700  0.04360  0.71150  1.0000 -0.339429228
C   C100      1.0  0.34700  0.45640  0.28850  1.0000 -0.339429228
C   C101      1.0  0.72050  0.90020  0.26700  1.0000 0.6071783394
C   C102      1.0  0.72050  0.59980  0.73300  1.0000 0.6071783394
C   C103      1.0  0.27950  0.09980  0.73300  1.0000 0.6071783394
C   C104      1.0  0.27950  0.40020  0.26700  1.0000 0.6071783394
C   C105      1.0  0.00320  0.28550  0.14530  1.0000 -0.0488869681
C   C106      1.0  0.00320  0.21450  0.85470  1.0000 -0.0488869681
C   C107      1.0  0.99680  0.71450  0.85470  1.0000 -0.0488869681
C   C108      1.0  0.99680  0.78550  0.14530  1.0000 -0.0488869681
C   C109      1.0  0.97800  0.31570  0.07830  1.0000 -0.120532146
C   C110      1.0  0.97800  0.18430  0.92170  1.0000 -0.120532146
C   C111      1.0  0.02200  0.68430  0.92170  1.0000 -0.120532146
C   C112      1.0  0.02200  0.81570  0.07830  1.0000 -0.120532146
C   C113      1.0  0.10770  0.34600  0.09800  1.0000 0.0827858166
C   C114      1.0  0.10770  0.15400  0.90200  1.0000 0.0827858166
C   C115      1.0  0.89230  0.65400  0.90200  1.0000 0.0827858166
C   C116      1.0  0.89230  0.84600  0.09800  1.0000 0.0827858166
C   C117      1.0  0.04870  0.39720  0.97700  1.0000 -0.1313818161
C   C118      1.0  0.04870  0.10280  0.02300  1.0000 -0.1313818161
C   C119      1.0  0.95130  0.60280  0.02300  1.0000 -0.1313818161
C   C120      1.0  0.95130  0.89720  0.97700  1.0000 -0.1313818161
C   C121      1.0  0.04080  0.48690  0.98760  1.0000 -0.1965561643
C   C122      1.0  0.04080  0.01310  0.01240  1.0000 -0.1965561643
C   C123      1.0  0.95920  0.51310  0.01240  1.0000 -0.1965561643
C   C124      1.0  0.95920  0.98690  0.98760  1.0000 -0.1965561643
C   C125      1.0  0.99610  0.25540  0.34880  1.0000 -0.0557081759
C   C126      1.0  0.99610  0.24460  0.65120  1.0000 -0.0557081759
C   C127      1.0  0.00390  0.74460  0.65120  1.0000 -0.0557081759
C   C128      1.0  0.00390  0.75540  0.34880  1.0000 -0.0557081759
C   C129      1.0  0.96410  0.21260  0.40580  1.0000 -0.1132227065
C   C130      1.0  0.96410  0.28740  0.59420  1.0000 -0.1132227065
C   C131      1.0  0.03590  0.78740  0.59420  1.0000 -0.1132227065
C   C132      1.0  0.03590  0.71260  0.40580  1.0000 -0.1132227065
C   C133      1.0  0.09570  0.18910  0.39740  1.0000 0.0649945528
C   C134      1.0  0.09570  0.31090  0.60260  1.0000 0.0649945528
C   C135      1.0  0.90430  0.81090  0.60260  1.0000 0.0649945528
C   C136      1.0  0.90430  0.68910  0.39740  1.0000 0.0649945528
C   C137      1.0  0.02200  0.11190  0.49790  1.0000 -0.1313818161
C   C138      1.0  0.02200  0.38810  0.50210  1.0000 -0.1313818161
C   C139      1.0  0.97800  0.88810  0.50210  1.0000 -0.1313818161
C   C140      1.0  0.97800  0.61190  0.49790  1.0000 -0.1313818161
C   C141      1.0  0.00320  0.03020  0.46860  1.0000 -0.1895783821
C   C142      1.0  0.00320  0.46980  0.53140  1.0000 -0.1895783821
C   C143      1.0  0.99680  0.96980  0.53140  1.0000 -0.1895783821
C   C144      1.0  0.99680  0.53020  0.46860  1.0000 -0.1895783821
N   N1        1.0  0.41550  0.80350  0.34260  1.0000 -0.2964098475
N   N2        1.0  0.41550  0.69650  0.65740  1.0000 -0.2964098475
N   N3        1.0  0.58450  0.19650  0.65740  1.0000 -0.2964098475
N   N4        1.0  0.58450  0.30350  0.34260  1.0000 -0.2964098475
N   N5        1.0  0.45450  0.85380  0.45120  1.0000 0.0324314003
N   N6        1.0  0.45450  0.64620  0.54880  1.0000 0.0324314003
N   N7        1.0  0.54550  0.14620  0.54880  1.0000 0.0324314003
N   N8        1.0  0.54550  0.35380  0.45120  1.0000 0.0324314003
N   N9        1.0  0.42140  0.74080  0.15700  1.0000 -0.2964098475
N   N10       1.0  0.42140  0.75920  0.84300  1.0000 -0.2964098475
N   N11       1.0  0.57860  0.25920  0.84300  1.0000 -0.2964098475
N   N12       1.0  0.57860  0.24080  0.15700  1.0000 -0.2964098475
N   N13       1.0  0.47310  0.67070  0.06310  1.0000 0.0324314003
N   N14       1.0  0.47310  0.82930  0.93690  1.0000 0.0324314003
N   N15       1.0  0.52690  0.32930  0.93690  1.0000 0.0324314003
N   N16       1.0  0.52690  0.17070  0.06310  1.0000 0.0324314003
N   N17       1.0  0.08450  0.30350  0.15740  1.0000 -0.2964098475
N   N18       1.0  0.08450  0.19650  0.84260  1.0000 -0.2964098475
N   N19       1.0  0.91550  0.69650  0.84260  1.0000 -0.2964098475
N   N20       1.0  0.91550  0.80350  0.15740  1.0000 -0.2964098475
N   N21       1.0  0.04550  0.35380  0.04880  1.0000 0.0324314003
N   N22       1.0  0.04550  0.14620  0.95120  1.0000 0.0324314003
N   N23       1.0  0.95450  0.64620  0.95120  1.0000 0.0324314003
N   N24       1.0  0.95450  0.85380  0.04880  1.0000 0.0324314003
N   N25       1.0  0.07860  0.24080  0.34300  1.0000 -0.2964098475
N   N26       1.0  0.07860  0.25920  0.65700  1.0000 -0.2964098475
N   N27       1.0  0.92140  0.75920  0.65700  1.0000 -0.2964098475
N   N28       1.0  0.92140  0.74080  0.34300  1.0000 -0.2964098475
N   N29       1.0  0.02690  0.17070  0.43690  1.0000 0.0324314003
N   N30       1.0  0.02690  0.32930  0.56310  1.0000 0.0324314003
N   N31       1.0  0.97310  0.82930  0.56310  1.0000 0.0324314003
N   N32       1.0  0.97310  0.67070  0.43690  1.0000 0.0324314003
O   O1        1.0  0.26850  0.67030  0.30790  1.0000 -0.5672556146
O   O2        1.0  0.26850  0.82970  0.69210  1.0000 -0.5672556146
O   O3        1.0  0.73150  0.32970  0.69210  1.0000 -0.5672556146
O   O4        1.0  0.73150  0.17030  0.30790  1.0000 -0.5672556146
O   O5        1.0  0.22540  0.68690  0.19310  1.0000 -0.5510328918
O   O6        1.0  0.22540  0.81310  0.80690  1.0000 -0.5510328918
O   O7        1.0  0.77460  0.31310  0.80690  1.0000 -0.5510328918
O   O8        1.0  0.77460  0.18690  0.19310  1.0000 -0.5510328918
O   O9        1.0  0.72750  0.38290  0.18240  1.0000 -0.5672556146
O   O10       1.0  0.72750  0.11710  0.81760  1.0000 -0.5672556146
O   O11       1.0  0.27250  0.61710  0.81760  1.0000 -0.5672556146
O   O12       1.0  0.27250  0.88290  0.18240  1.0000 -0.5672556146
O   O13       1.0  0.77660  0.36730  0.29570  1.0000 -0.5575145542
O   O14       1.0  0.77660  0.13270  0.70430  1.0000 -0.5575145542
O   O15       1.0  0.22340  0.63270  0.70430  1.0000 -0.5575145542
O   O16       1.0  0.22340  0.86730  0.29570  1.0000 -0.5575145542
O   O17       1.0  0.23150  0.17030  0.19210  1.0000 -0.5672556146
O   O18       1.0  0.23150  0.32970  0.80790  1.0000 -0.5672556146
O   O19       1.0  0.76850  0.82970  0.80790  1.0000 -0.5672556146
O   O20       1.0  0.76850  0.67030  0.19210  1.0000 -0.5672556146
O   O21       1.0  0.27460  0.18690  0.30690  1.0000 -0.5510328918
O   O22       1.0  0.27460  0.31310  0.69310  1.0000 -0.5510328918
O   O23       1.0  0.72540  0.81310  0.69310  1.0000 -0.5510328918
O   O24       1.0  0.72540  0.68690  0.30690  1.0000 -0.5510328918
O   O25       1.0  0.77250  0.88290  0.31760  1.0000 -0.5672556146
O   O26       1.0  0.77250  0.61710  0.68240  1.0000 -0.5672556146
O   O27       1.0  0.22750  0.11710  0.68240  1.0000 -0.5672556146
O   O28       1.0  0.22750  0.38290  0.31760  1.0000 -0.5672556146
O   O29       1.0  0.72340  0.86730  0.20430  1.0000 -0.5575145542
O   O30       1.0  0.72340  0.63270  0.79570  1.0000 -0.5575145542
O   O31       1.0  0.27660  0.13270  0.79570  1.0000 -0.5575145542
O   O32       1.0  0.27660  0.36730  0.20430  1.0000 -0.5575145542
