# DDEC6 charges by PACMAN v1.1 (https://github.com/mtap-research/PACMAN-charge/)
data_2016[Eu][nan]3[ASR]3
_chemical_formula_sum              "Eu8 H48 C120 N8 O64"
_cell_length_a       12.78
_cell_length_b       13.358
_cell_length_c       28.668
_cell_angle_alpha    90
_cell_angle_beta     90
_cell_angle_gamma    90

_symmetry_space_group_name_H-M    "P 1"
_symmetry_Int_Tables_number       1

loop_
  _symmetry_equiv_pos_as_xyz
  'x, y, z'

loop_
  _atom_site_type_symbol
  _atom_site_label
  _atom_site_symmetry_multiplicity
  _atom_site_fract_x
  _atom_site_fract_y
  _atom_site_fract_z
  _atom_site_occupancy
  _atom_site_charge
Eu  Eu1       1.0  0.58915  0.45801  0.93004  1.0000 2.0547559648
Eu  Eu2       1.0  0.91085  0.04199  0.43004  1.0000 2.0547559648
Eu  Eu3       1.0  0.08915  0.04199  0.06996  1.0000 2.0547559648
Eu  Eu4       1.0  0.41085  0.45801  0.56996  1.0000 2.0547559648
Eu  Eu5       1.0  0.41085  0.54199  0.06996  1.0000 2.0547559648
Eu  Eu6       1.0  0.08915  0.95801  0.56996  1.0000 2.0554387956
Eu  Eu7       1.0  0.91085  0.95801  0.93004  1.0000 2.0554387956
Eu  Eu8       1.0  0.58915  0.54199  0.43004  1.0000 2.0547559648
H   H1        1.0  0.67400  0.83450  0.72280  1.0000 0.1265754164
H   H2        1.0  0.82600  0.66550  0.22280  1.0000 0.1265754164
H   H3        1.0  0.17400  0.66550  0.27720  1.0000 0.1265754164
H   H4        1.0  0.32600  0.83450  0.77720  1.0000 0.1265754164
H   H5        1.0  0.32600  0.16550  0.27720  1.0000 0.1265754164
H   H6        1.0  0.17400  0.33450  0.77720  1.0000 0.1265754164
H   H7        1.0  0.82600  0.33450  0.72280  1.0000 0.1265754164
H   H8        1.0  0.67400  0.16550  0.22280  1.0000 0.1265754164
H   H9        1.0  0.66760  0.53610  0.70600  1.0000 0.1265754164
H   H10       1.0  0.83240  0.96390  0.20600  1.0000 0.1265754164
H   H11       1.0  0.16760  0.96390  0.29400  1.0000 0.1265754164
H   H12       1.0  0.33240  0.53610  0.79400  1.0000 0.1265754164
H   H13       1.0  0.33240  0.46390  0.29400  1.0000 0.1265754164
H   H14       1.0  0.16760  0.03610  0.79400  1.0000 0.1265754164
H   H15       1.0  0.83240  0.03610  0.70600  1.0000 0.1265754164
H   H16       1.0  0.66760  0.46390  0.20600  1.0000 0.1265754164
H   H17       1.0  0.63300  0.51650  0.78460  1.0000 0.1235710521
H   H18       1.0  0.86700  0.98350  0.28460  1.0000 0.1235710521
H   H19       1.0  0.13300  0.98350  0.21540  1.0000 0.1235710521
H   H20       1.0  0.36700  0.51650  0.71540  1.0000 0.1235710521
H   H21       1.0  0.36700  0.48350  0.21540  1.0000 0.1235710521
H   H22       1.0  0.13300  0.01650  0.71540  1.0000 0.1235710521
H   H23       1.0  0.86700  0.01650  0.78460  1.0000 0.1235710521
H   H24       1.0  0.63300  0.48350  0.28460  1.0000 0.1235710521
H   H25       1.0  0.81770  0.80310  0.66720  1.0000 0.1235710521
H   H26       1.0  0.68230  0.69690  0.16720  1.0000 0.1235710521
H   H27       1.0  0.31770  0.69690  0.33280  1.0000 0.1235710521
H   H28       1.0  0.18230  0.80310  0.83280  1.0000 0.1235710521
H   H29       1.0  0.18230  0.19690  0.33280  1.0000 0.1235710521
H   H30       1.0  0.31770  0.30310  0.83280  1.0000 0.1235710521
H   H31       1.0  0.68230  0.30310  0.66720  1.0000 0.1235710521
H   H32       1.0  0.81770  0.19690  0.16720  1.0000 0.1235710521
H   H33       1.0  0.78960  0.72770  0.53260  1.0000 0.1377527504
H   H34       1.0  0.71040  0.77230  0.03260  1.0000 0.1377527504
H   H35       1.0  0.28960  0.77230  0.46740  1.0000 0.1377527504
H   H36       1.0  0.21040  0.72770  0.96740  1.0000 0.1377527504
H   H37       1.0  0.21040  0.27230  0.46740  1.0000 0.1377527504
H   H38       1.0  0.28960  0.22770  0.96740  1.0000 0.1377527504
H   H39       1.0  0.71040  0.22770  0.53260  1.0000 0.1377527504
H   H40       1.0  0.78960  0.27230  0.03260  1.0000 0.1377527504
H   H41       1.0  0.60160  0.60290  0.62850  1.0000 0.1235710521
H   H42       1.0  0.89840  0.89710  0.12850  1.0000 0.1235710521
H   H43       1.0  0.10160  0.89710  0.37150  1.0000 0.1235710521
H   H44       1.0  0.39840  0.60290  0.87150  1.0000 0.1235710521
H   H45       1.0  0.39840  0.39710  0.37150  1.0000 0.1235710521
H   H46       1.0  0.10160  0.10290  0.87150  1.0000 0.1235710521
H   H47       1.0  0.89840  0.10290  0.62850  1.0000 0.1235710521
H   H48       1.0  0.60160  0.39710  0.12850  1.0000 0.1235710521
C   C1        1.0  0.63000  0.64470  0.85440  1.0000 0.6142063527
C   C2        1.0  0.87000  0.85530  0.35440  1.0000 0.6142063527
C   C3        1.0  0.13000  0.85530  0.14560  1.0000 0.6142063527
C   C4        1.0  0.37000  0.64470  0.64560  1.0000 0.6142063527
C   C5        1.0  0.37000  0.35530  0.14560  1.0000 0.6142063527
C   C6        1.0  0.13000  0.14470  0.64560  1.0000 0.6142063527
C   C7        1.0  0.87000  0.14470  0.85440  1.0000 0.6142063527
C   C8        1.0  0.63000  0.35530  0.35440  1.0000 0.6142063527
C   C9        1.0  0.63460  0.66340  0.80230  1.0000 -0.0577214905
C   C10       1.0  0.86540  0.83660  0.30230  1.0000 -0.0577214905
C   C11       1.0  0.13460  0.83660  0.19770  1.0000 -0.0577214905
C   C12       1.0  0.36540  0.66340  0.69770  1.0000 -0.0577214905
C   C13       1.0  0.36540  0.33660  0.19770  1.0000 -0.0577214905
C   C14       1.0  0.13460  0.16340  0.69770  1.0000 -0.0577214905
C   C15       1.0  0.86540  0.16340  0.80230  1.0000 -0.0577214905
C   C16       1.0  0.63460  0.33660  0.30230  1.0000 -0.0577214905
C   C17       1.0  0.64310  0.75590  0.78140  1.0000 0.0398019976
C   C18       1.0  0.85690  0.74410  0.28140  1.0000 0.0398019976
C   C19       1.0  0.14310  0.74410  0.21860  1.0000 0.0398019976
C   C20       1.0  0.35690  0.75590  0.71860  1.0000 0.0398019976
C   C21       1.0  0.35690  0.24410  0.21860  1.0000 0.0398019976
C   C22       1.0  0.14310  0.25590  0.71860  1.0000 0.0398019976
C   C23       1.0  0.85690  0.25590  0.78140  1.0000 0.0398019976
C   C24       1.0  0.64310  0.24410  0.28140  1.0000 0.0398019976
C   C25       1.0  0.66580  0.77010  0.73470  1.0000 -0.1990809799
C   C26       1.0  0.83420  0.72990  0.23470  1.0000 -0.1990809799
C   C27       1.0  0.16580  0.72990  0.26530  1.0000 -0.1990809799
C   C28       1.0  0.33420  0.77010  0.76530  1.0000 -0.1990809799
C   C29       1.0  0.33420  0.22990  0.26530  1.0000 -0.1990809799
C   C30       1.0  0.16580  0.27010  0.76530  1.0000 -0.1990809799
C   C31       1.0  0.83420  0.27010  0.73470  1.0000 -0.1990809799
C   C32       1.0  0.66580  0.22990  0.23470  1.0000 -0.1990809799
C   C33       1.0  0.67630  0.68690  0.70550  1.0000 0.0903586629
C   C34       1.0  0.82370  0.81310  0.20550  1.0000 0.0903586629
C   C35       1.0  0.17630  0.81310  0.29450  1.0000 0.0903586629
C   C36       1.0  0.32370  0.68690  0.79450  1.0000 0.0903586629
C   C37       1.0  0.32370  0.31310  0.29450  1.0000 0.0903586629
C   C38       1.0  0.17630  0.18690  0.79450  1.0000 0.0903586629
C   C39       1.0  0.82370  0.18690  0.70550  1.0000 0.0903586629
C   C40       1.0  0.67630  0.31310  0.20550  1.0000 0.0903586629
C   C41       1.0  0.66280  0.59240  0.72500  1.0000 -0.1293129981
C   C42       1.0  0.83720  0.90760  0.22500  1.0000 -0.1293129981
C   C43       1.0  0.16280  0.90760  0.27500  1.0000 -0.1293129981
C   C44       1.0  0.33720  0.59240  0.77500  1.0000 -0.1293129981
C   C45       1.0  0.33720  0.40760  0.27500  1.0000 -0.1293129981
C   C46       1.0  0.16280  0.09240  0.77500  1.0000 -0.1293129981
C   C47       1.0  0.83720  0.09240  0.72500  1.0000 -0.1293129981
C   C48       1.0  0.66280  0.40760  0.22500  1.0000 -0.1293129981
C   C49       1.0  0.64210  0.58050  0.77250  1.0000 -0.0809394917
C   C50       1.0  0.85790  0.91950  0.27250  1.0000 -0.0809394917
C   C51       1.0  0.14210  0.91950  0.22750  1.0000 -0.0809394917
C   C52       1.0  0.35790  0.58050  0.72750  1.0000 -0.0809394917
C   C53       1.0  0.35790  0.41950  0.22750  1.0000 -0.0809394917
C   C54       1.0  0.14210  0.08050  0.72750  1.0000 -0.0809394917
C   C55       1.0  0.85790  0.08050  0.77250  1.0000 -0.0809394917
C   C56       1.0  0.64210  0.41950  0.27250  1.0000 -0.0809394917
C   C57       1.0  0.70510  0.70030  0.65580  1.0000 0.0538177132
C   C58       1.0  0.79490  0.79970  0.15580  1.0000 0.0538177132
C   C59       1.0  0.20510  0.79970  0.34420  1.0000 0.0538177132
C   C60       1.0  0.29490  0.70030  0.84420  1.0000 0.0538177132
C   C61       1.0  0.29490  0.29970  0.34420  1.0000 0.0538177132
C   C62       1.0  0.20510  0.20030  0.84420  1.0000 0.0538177132
C   C63       1.0  0.79490  0.20030  0.65580  1.0000 0.0538177132
C   C64       1.0  0.70510  0.29970  0.15580  1.0000 0.0538177132
C   C65       1.0  0.78560  0.76540  0.64390  1.0000 -0.1391813666
C   C66       1.0  0.71440  0.73460  0.14390  1.0000 -0.1391813666
C   C67       1.0  0.28560  0.73460  0.35610  1.0000 -0.1391813666
C   C68       1.0  0.21440  0.76540  0.85610  1.0000 -0.1391813666
C   C69       1.0  0.21440  0.23460  0.35610  1.0000 -0.1391813666
C   C70       1.0  0.28560  0.26540  0.85610  1.0000 -0.1391813666
C   C71       1.0  0.71440  0.26540  0.64390  1.0000 -0.1391813666
C   C72       1.0  0.78560  0.23460  0.14390  1.0000 -0.1391813666
C   C73       1.0  0.81950  0.77540  0.59800  1.0000 -0.0167047049
C   C74       1.0  0.68050  0.72460  0.09800  1.0000 -0.0167047049
C   C75       1.0  0.31950  0.72460  0.40200  1.0000 -0.0167047049
C   C76       1.0  0.18050  0.77540  0.90200  1.0000 -0.0167047049
C   C77       1.0  0.18050  0.22460  0.40200  1.0000 -0.0167047049
C   C78       1.0  0.31950  0.27540  0.90200  1.0000 -0.0167047049
C   C79       1.0  0.68050  0.27540  0.59800  1.0000 -0.0167047049
C   C80       1.0  0.81950  0.22460  0.09800  1.0000 -0.0167047049
C   C81       1.0  0.76830  0.72100  0.56340  1.0000 -0.0894954051
C   C82       1.0  0.73170  0.77900  0.06340  1.0000 -0.0894954051
C   C83       1.0  0.26830  0.77900  0.43660  1.0000 -0.0894954051
C   C84       1.0  0.23170  0.72100  0.93660  1.0000 -0.0894954051
C   C85       1.0  0.23170  0.27900  0.43660  1.0000 -0.0894954051
C   C86       1.0  0.26830  0.22100  0.93660  1.0000 -0.0894954051
C   C87       1.0  0.73170  0.22100  0.56340  1.0000 -0.0894954051
C   C88       1.0  0.76830  0.27900  0.06340  1.0000 -0.0894954051
C   C89       1.0  0.68710  0.65780  0.57390  1.0000 -0.0304005877
C   C90       1.0  0.81290  0.84220  0.07390  1.0000 -0.0304005877
C   C91       1.0  0.18710  0.84220  0.42610  1.0000 -0.0304005877
C   C92       1.0  0.31290  0.65780  0.92610  1.0000 -0.0304005877
C   C93       1.0  0.31290  0.34220  0.42610  1.0000 -0.0304005877
C   C94       1.0  0.18710  0.15780  0.92610  1.0000 -0.0304005877
C   C95       1.0  0.81290  0.15780  0.57390  1.0000 -0.0304005877
C   C96       1.0  0.68710  0.34220  0.07390  1.0000 -0.0304005877
C   C97       1.0  0.65570  0.64660  0.62100  1.0000 -0.1230558338
C   C98       1.0  0.84430  0.85340  0.12100  1.0000 -0.1230558338
C   C99       1.0  0.15570  0.85340  0.37900  1.0000 -0.1230558338
C   C100      1.0  0.34430  0.64660  0.87900  1.0000 -0.1230558338
C   C101      1.0  0.34430  0.35340  0.37900  1.0000 -0.1230558338
C   C102      1.0  0.15570  0.14660  0.87900  1.0000 -0.1230558338
C   C103      1.0  0.84430  0.14660  0.62100  1.0000 -0.1230558338
C   C104      1.0  0.65570  0.35340  0.12100  1.0000 -0.1230558338
C   C105      1.0  0.91060  0.84070  0.58740  1.0000 0.5744745522
C   C106      1.0  0.58940  0.65930  0.08740  1.0000 0.5744745522
C   C107      1.0  0.41060  0.65930  0.41260  1.0000 0.5744745522
C   C108      1.0  0.08940  0.84070  0.91260  1.0000 0.5744745522
C   C109      1.0  0.08940  0.15930  0.41260  1.0000 0.5744745522
C   C110      1.0  0.41060  0.34070  0.91260  1.0000 0.5744745522
C   C111      1.0  0.58940  0.34070  0.58740  1.0000 0.5744745522
C   C112      1.0  0.91060  0.15930  0.08740  1.0000 0.5744745522
C   C113      1.0  0.63140  0.60350  0.53540  1.0000 0.6635802552
C   C114      1.0  0.86860  0.89650  0.03540  1.0000 0.6635802552
C   C115      1.0  0.13140  0.89650  0.46460  1.0000 0.6635802552
C   C116      1.0  0.36860  0.60350  0.96460  1.0000 0.6635802552
C   C117      1.0  0.36860  0.39650  0.46460  1.0000 0.6635802552
C   C118      1.0  0.13140  0.10350  0.96460  1.0000 0.6635802552
C   C119      1.0  0.86860  0.10350  0.53540  1.0000 0.6635802552
C   C120      1.0  0.63140  0.39650  0.03540  1.0000 0.6635802552
N   N1        1.0  0.62260  0.84710  0.80830  1.0000 0.4976926833
N   N2        1.0  0.87740  0.65290  0.30830  1.0000 0.4976926833
N   N3        1.0  0.12260  0.65290  0.19170  1.0000 0.4976926833
N   N4        1.0  0.37740  0.84710  0.69170  1.0000 0.4976926833
N   N5        1.0  0.37740  0.15290  0.19170  1.0000 0.4976926833
N   N6        1.0  0.12260  0.34710  0.69170  1.0000 0.4976926833
N   N7        1.0  0.87740  0.34710  0.80830  1.0000 0.4976926833
N   N8        1.0  0.62260  0.15290  0.30830  1.0000 0.4976926833
O   O1        1.0  0.59050  0.56290  0.86600  1.0000 -0.6845496805
O   O2        1.0  0.90950  0.93710  0.36600  1.0000 -0.6845496805
O   O3        1.0  0.09050  0.93710  0.13400  1.0000 -0.6845496805
O   O4        1.0  0.40950  0.56290  0.63400  1.0000 -0.6845496805
O   O5        1.0  0.40950  0.43710  0.13400  1.0000 -0.6845496805
O   O6        1.0  0.09050  0.06290  0.63400  1.0000 -0.6845496805
O   O7        1.0  0.90950  0.06290  0.86600  1.0000 -0.6845496805
O   O8        1.0  0.59050  0.43710  0.36600  1.0000 -0.6845496805
O   O9        1.0  0.66420  0.71150  0.88090  1.0000 -0.5513900132
O   O10       1.0  0.83580  0.78850  0.38090  1.0000 -0.5513900132
O   O11       1.0  0.16420  0.78850  0.11910  1.0000 -0.5513900132
O   O12       1.0  0.33580  0.71150  0.61910  1.0000 -0.5513900132
O   O13       1.0  0.33580  0.28850  0.11910  1.0000 -0.5513900132
O   O14       1.0  0.16420  0.21150  0.61910  1.0000 -0.5513900132
O   O15       1.0  0.83580  0.21150  0.88090  1.0000 -0.5513900132
O   O16       1.0  0.66420  0.28850  0.38090  1.0000 -0.5513900132
O   O17       1.0  0.53960  0.85360  0.82900  1.0000 -0.3220778913
O   O18       1.0  0.96040  0.64640  0.32900  1.0000 -0.3220778913
O   O19       1.0  0.03960  0.64640  0.17100  1.0000 -0.3220778913
O   O20       1.0  0.46040  0.85360  0.67100  1.0000 -0.3220778913
O   O21       1.0  0.46040  0.14640  0.17100  1.0000 -0.3220778913
O   O22       1.0  0.03960  0.35360  0.67100  1.0000 -0.3220778913
O   O23       1.0  0.96040  0.35360  0.82900  1.0000 -0.3220778913
O   O24       1.0  0.53960  0.14640  0.32900  1.0000 -0.3220778913
O   O25       1.0  0.68660  0.91410  0.80720  1.0000 -0.3089225576
O   O26       1.0  0.81340  0.58590  0.30720  1.0000 -0.3089225576
O   O27       1.0  0.18660  0.58590  0.19280  1.0000 -0.3089225576
O   O28       1.0  0.31340  0.91410  0.69280  1.0000 -0.3089225576
O   O29       1.0  0.31340  0.08590  0.19280  1.0000 -0.3089225576
O   O30       1.0  0.18660  0.41410  0.69280  1.0000 -0.3089225576
O   O31       1.0  0.81340  0.41410  0.80720  1.0000 -0.3089225576
O   O32       1.0  0.68660  0.08590  0.30720  1.0000 -0.3089225576
O   O33       1.0  0.94690  0.89650  0.61908  1.0000 -0.6385390968
O   O34       1.0  0.55310  0.60350  0.11908  1.0000 -0.6385390968
O   O35       1.0  0.44690  0.60350  0.38092  1.0000 -0.6385390968
O   O36       1.0  0.05310  0.89650  0.88092  1.0000 -0.6385390968
O   O37       1.0  0.05310  0.10350  0.38092  1.0000 -0.6385390968
O   O38       1.0  0.44690  0.39650  0.88092  1.0000 -0.6385390968
O   O39       1.0  0.55310  0.39650  0.61908  1.0000 -0.6385390968
O   O40       1.0  0.94690  0.10350  0.11908  1.0000 -0.6385390968
O   O41       1.0  0.95140  0.83850  0.54712  1.0000 -0.6322270171
O   O42       1.0  0.54860  0.66150  0.04712  1.0000 -0.6322270171
O   O43       1.0  0.45140  0.66150  0.45288  1.0000 -0.6322270171
O   O44       1.0  0.04860  0.83850  0.95288  1.0000 -0.6322270171
O   O45       1.0  0.04860  0.16150  0.45288  1.0000 -0.6322270171
O   O46       1.0  0.45140  0.33850  0.95288  1.0000 -0.6322270171
O   O47       1.0  0.54860  0.33850  0.54712  1.0000 -0.6322270171
O   O48       1.0  0.95140  0.16150  0.04712  1.0000 -0.6322270171
O   O49       1.0  0.66680  0.61150  0.49520  1.0000 -0.6623268337
O   O50       1.0  0.83320  0.88850  0.99520  1.0000 -0.6623268337
O   O51       1.0  0.16680  0.88850  0.50480  1.0000 -0.6623268337
O   O52       1.0  0.33320  0.61150  0.00480  1.0000 -0.6623268337
O   O53       1.0  0.33320  0.38850  0.50480  1.0000 -0.6623268337
O   O54       1.0  0.16680  0.11150  0.00480  1.0000 -0.6623268337
O   O55       1.0  0.83320  0.11150  0.49520  1.0000 -0.6623268337
O   O56       1.0  0.66680  0.38850  0.99520  1.0000 -0.6623268337
O   O57       1.0  0.55270  0.55310  0.54450  1.0000 -0.6845496805
O   O58       1.0  0.94730  0.94690  0.04450  1.0000 -0.6845496805
O   O59       1.0  0.05270  0.94690  0.45550  1.0000 -0.6845496805
O   O60       1.0  0.44730  0.55310  0.95550  1.0000 -0.6845496805
O   O61       1.0  0.44730  0.44690  0.45550  1.0000 -0.6845496805
O   O62       1.0  0.05270  0.05310  0.95550  1.0000 -0.6845496805
O   O63       1.0  0.94730  0.05310  0.54450  1.0000 -0.6845496805
O   O64       1.0  0.55270  0.44690  0.04450  1.0000 -0.6845496805
