# DDEC6 charges by PACMAN v1.1 (https://github.com/mtap-research/PACMAN-charge/)
data_2016[Cu][nan]3[ASR]9
_chemical_formula_sum              "Cu16 H88 C128 N8 O72"
_cell_length_a       25.7809
_cell_length_b       21.4164
_cell_length_c       19.6546
_cell_angle_alpha    77.6326
_cell_angle_beta     54.2358
_cell_angle_gamma    48.1316

_symmetry_space_group_name_H-M    "P 1"
_symmetry_Int_Tables_number       1

loop_
  _symmetry_equiv_pos_as_xyz
  'x, y, z'

loop_
  _atom_site_type_symbol
  _atom_site_label
  _atom_site_symmetry_multiplicity
  _atom_site_fract_x
  _atom_site_fract_y
  _atom_site_fract_z
  _atom_site_occupancy
  _atom_site_charge
Cu  Cu1       1.0  0.30366  0.62768  0.44136  1.0000 0.974721949
Cu  Cu2       1.0  0.62768  0.30366  0.62730  1.0000 0.9763681994
Cu  Cu3       1.0  0.44136  0.62730  0.30366  1.0000 0.974721949
Cu  Cu4       1.0  0.62730  0.44136  0.62768  1.0000 0.9763681994
Cu  Cu5       1.0  0.94634  0.62232  0.80864  1.0000 0.9763681994
Cu  Cu6       1.0  0.62232  0.94634  0.62270  1.0000 0.9763681994
Cu  Cu7       1.0  0.80864  0.62270  0.94634  1.0000 0.9763681994
Cu  Cu8       1.0  0.62270  0.80864  0.62232  1.0000 0.9763681994
Cu  Cu9       1.0  0.45018  0.47616  0.25264  1.0000 0.9908553766
Cu  Cu10      1.0  0.47616  0.45018  0.82102  1.0000 0.9908553766
Cu  Cu11      1.0  0.25264  0.82102  0.45018  1.0000 0.9908553766
Cu  Cu12      1.0  0.82102  0.25264  0.47616  1.0000 0.9908553766
Cu  Cu13      1.0  0.79982  0.77384  0.99736  1.0000 0.9908553766
Cu  Cu14      1.0  0.77384  0.79982  0.42898  1.0000 0.9908553766
Cu  Cu15      1.0  0.99736  0.42898  0.79982  1.0000 0.9908553766
Cu  Cu16      1.0  0.42898  0.99736  0.77384  1.0000 0.9908553766
H   H1        1.0  0.47850  0.51410  0.32590  1.0000 0.3757933223
H   H2        1.0  0.51410  0.47850  0.68150  1.0000 0.3757933223
H   H3        1.0  0.32590  0.68150  0.47850  1.0000 0.3757933223
H   H4        1.0  0.68150  0.32590  0.51410  1.0000 0.3757933223
H   H5        1.0  0.77150  0.73590  0.92410  1.0000 0.3757933223
H   H6        1.0  0.73590  0.77150  0.56850  1.0000 0.3757933223
H   H7        1.0  0.92410  0.56850  0.77150  1.0000 0.3757933223
H   H8        1.0  0.56850  0.92410  0.73590  1.0000 0.3757933223
H   H9        1.0  0.10570  0.78950  0.46390  1.0000 0.1698074298
H   H10       1.0  0.78950  0.10570  0.64090  1.0000 0.1698074298
H   H11       1.0  0.46390  0.64090  0.10570  1.0000 0.1698074298
H   H12       1.0  0.64090  0.46390  0.78950  1.0000 0.1698074298
H   H13       1.0  0.14430  0.46050  0.78610  1.0000 0.1698074298
H   H14       1.0  0.46050  0.14430  0.60910  1.0000 0.1698074298
H   H15       1.0  0.78610  0.60910  0.14430  1.0000 0.1698074298
H   H16       1.0  0.60910  0.78610  0.46050  1.0000 0.1698074298
H   H17       1.0  0.01990  0.82190  0.48850  1.0000 0.149321657
H   H18       1.0  0.82190  0.01990  0.66970  1.0000 0.149321657
H   H19       1.0  0.48850  0.66970  0.01990  1.0000 0.149321657
H   H20       1.0  0.66970  0.48850  0.82190  1.0000 0.149321657
H   H21       1.0  0.23010  0.42810  0.76150  1.0000 0.149321657
H   H22       1.0  0.42810  0.23010  0.58030  1.0000 0.149321657
H   H23       1.0  0.76150  0.58030  0.23010  1.0000 0.149321657
H   H24       1.0  0.58030  0.76150  0.42810  1.0000 0.149321657
H   H25       1.0  0.03880  0.88260  0.46020  1.0000 0.149321657
H   H26       1.0  0.88260  0.03880  0.61840  1.0000 0.149321657
H   H27       1.0  0.46020  0.61840  0.03880  1.0000 0.149321657
H   H28       1.0  0.61840  0.46020  0.88260  1.0000 0.149321657
H   H29       1.0  0.21120  0.36740  0.78980  1.0000 0.149321657
H   H30       1.0  0.36740  0.21120  0.63160  1.0000 0.149321657
H   H31       1.0  0.78980  0.63160  0.21120  1.0000 0.149321657
H   H32       1.0  0.63160  0.78980  0.36740  1.0000 0.149321657
H   H33       1.0  0.02610  0.85990  0.22050  1.0000 0.1300416844
H   H34       1.0  0.85990  0.02610  0.89350  1.0000 0.1300416844
H   H35       1.0  0.22050  0.89350  0.02610  1.0000 0.1300416844
H   H36       1.0  0.89350  0.22050  0.85990  1.0000 0.1300416844
H   H37       1.0  0.22390  0.39010  0.02950  1.0000 0.1300416844
H   H38       1.0  0.39010  0.22390  0.35650  1.0000 0.1300416844
H   H39       1.0  0.02950  0.35650  0.22390  1.0000 0.1300416844
H   H40       1.0  0.35650  0.02950  0.39010  1.0000 0.1300416844
H   H41       1.0  0.09820  0.76360  0.16080  1.0000 0.1609411616
H   H42       1.0  0.76360  0.09820  0.97740  1.0000 0.1609411616
H   H43       1.0  0.16080  0.97740  0.09820  1.0000 0.1609411616
H   H44       1.0  0.97740  0.16080  0.76360  1.0000 0.1609411616
H   H45       1.0  0.15180  0.48640  0.08920  1.0000 0.1609411616
H   H46       1.0  0.48640  0.15180  0.27260  1.0000 0.1609411616
H   H47       1.0  0.08920  0.27260  0.15180  1.0000 0.1609411616
H   H48       1.0  0.27260  0.08920  0.48640  1.0000 0.1609411616
H   H49       1.0  0.11770  0.82370  0.13610  1.0000 0.149321657
H   H50       1.0  0.82370  0.11770  0.92250  1.0000 0.149321657
H   H51       1.0  0.13610  0.92250  0.11770  1.0000 0.149321657
H   H52       1.0  0.92250  0.13610  0.82370  1.0000 0.149321657
H   H53       1.0  0.13230  0.42630  0.11390  1.0000 0.149321657
H   H54       1.0  0.42630  0.13230  0.32750  1.0000 0.149321657
H   H55       1.0  0.11390  0.32750  0.13230  1.0000 0.149321657
H   H56       1.0  0.32750  0.11390  0.42630  1.0000 0.149321657
H   H57       1.0  0.95200  0.81540  0.37640  1.0000 0.1398310851
H   H58       1.0  0.81540  0.95200  0.85620  1.0000 0.1398310851
H   H59       1.0  0.37640  0.85620  0.95200  1.0000 0.1398310851
H   H60       1.0  0.85620  0.37640  0.81540  1.0000 0.1398310851
H   H61       1.0  0.29800  0.43460  0.87360  1.0000 0.1398310851
H   H62       1.0  0.43460  0.29800  0.39380  1.0000 0.1398310851
H   H63       1.0  0.87360  0.39380  0.29800  1.0000 0.1398310851
H   H64       1.0  0.39380  0.87360  0.43460  1.0000 0.1398310851
H   H65       1.0  0.72790  0.06330  0.53050  1.0000 0.1398310851
H   H66       1.0  0.06330  0.72790  0.67830  1.0000 0.1398310851
H   H67       1.0  0.53050  0.67830  0.72790  1.0000 0.1398310851
H   H68       1.0  0.67830  0.53050  0.06330  1.0000 0.1398310851
H   H69       1.0  0.52210  0.18670  0.71950  1.0000 0.1398310851
H   H70       1.0  0.18670  0.52210  0.57170  1.0000 0.1398310851
H   H71       1.0  0.71950  0.57170  0.52210  1.0000 0.1398310851
H   H72       1.0  0.57170  0.71950  0.18670  1.0000 0.1398310851
H   H73       1.0  0.96110  0.99210  0.39010  1.0000 0.149321657
H   H74       1.0  0.99210  0.96110  0.65670  1.0000 0.149321657
H   H75       1.0  0.39010  0.65670  0.96110  1.0000 0.149321657
H   H76       1.0  0.65670  0.39010  0.99210  1.0000 0.149321657
H   H77       1.0  0.28890  0.25790  0.85990  1.0000 0.149321657
H   H78       1.0  0.25790  0.28890  0.59330  1.0000 0.149321657
H   H79       1.0  0.85990  0.59330  0.28890  1.0000 0.149321657
H   H80       1.0  0.59330  0.85990  0.25790  1.0000 0.149321657
H   H81       1.0  0.35100  0.59060  0.15340  1.0000 0.3386875273
H   H82       1.0  0.59060  0.35100  0.90500  1.0000 0.3386875273
H   H83       1.0  0.15340  0.90500  0.35100  1.0000 0.3386875273
H   H84       1.0  0.90500  0.15340  0.59060  1.0000 0.3386875273
H   H85       1.0  0.89900  0.65940  0.09660  1.0000 0.3386875273
H   H86       1.0  0.65940  0.89900  0.34500  1.0000 0.3386875273
H   H87       1.0  0.09660  0.34500  0.89900  1.0000 0.3386875273
H   H88       1.0  0.34500  0.09660  0.65940  1.0000 0.3386875273
C   C1        1.0  0.26594  0.65352  0.30548  1.0000 0.6276742997
C   C2        1.0  0.65352  0.26594  0.77506  1.0000 0.6276742997
C   C3        1.0  0.30548  0.77506  0.26594  1.0000 0.6276742997
C   C4        1.0  0.77506  0.30548  0.65352  1.0000 0.6276742997
C   C5        1.0  0.98406  0.59648  0.94452  1.0000 0.6276742997
C   C6        1.0  0.59648  0.98406  0.47494  1.0000 0.6276742997
C   C7        1.0  0.94452  0.47494  0.98406  1.0000 0.6276742997
C   C8        1.0  0.47494  0.94452  0.59648  1.0000 0.6276742997
C   C9        1.0  0.28041  0.64281  0.12599  1.0000 0.5635640429
C   C10       1.0  0.64281  0.28041  0.95079  1.0000 0.5635640429
C   C11       1.0  0.12599  0.95079  0.28041  1.0000 0.5635640429
C   C12       1.0  0.95079  0.12599  0.64281  1.0000 0.5635640429
C   C13       1.0  0.96959  0.60719  0.12401  1.0000 0.5635640429
C   C14       1.0  0.60719  0.96959  0.29921  1.0000 0.5635640429
C   C15       1.0  0.12401  0.29921  0.96959  1.0000 0.5635640429
C   C16       1.0  0.29921  0.12401  0.60719  1.0000 0.5635640429
C   C17       1.0  0.19644  0.71368  0.29172  1.0000 -0.1820812194
C   C18       1.0  0.71368  0.19644  0.79816  1.0000 -0.1820812194
C   C19       1.0  0.29172  0.79816  0.19644  1.0000 -0.1820812194
C   C20       1.0  0.79816  0.29172  0.71368  1.0000 -0.1820812194
C   C21       1.0  0.05356  0.53632  0.95828  1.0000 -0.1820812194
C   C22       1.0  0.53632  0.05356  0.45184  1.0000 -0.1820812194
C   C23       1.0  0.95828  0.45184  0.05356  1.0000 -0.1820812194
C   C24       1.0  0.45184  0.95828  0.53632  1.0000 -0.1820812194
C   C25       1.0  0.20368  0.70778  0.21402  1.0000 -0.2065549004
C   C26       1.0  0.70778  0.20368  0.87452  1.0000 -0.2047101153
C   C27       1.0  0.21402  0.87452  0.20368  1.0000 -0.2065549004
C   C28       1.0  0.87452  0.21402  0.70778  1.0000 -0.2065549004
C   C29       1.0  0.04632  0.54222  0.03598  1.0000 -0.2065549004
C   C30       1.0  0.54222  0.04632  0.37548  1.0000 -0.2065549004
C   C31       1.0  0.03598  0.37548  0.04632  1.0000 -0.2065549004
C   C32       1.0  0.37548  0.03598  0.54222  1.0000 -0.2065549004
C   C33       1.0  0.12139  0.77777  0.23623  1.0000 0.2083956444
C   C34       1.0  0.77777  0.12139  0.86461  1.0000 0.2083956444
C   C35       1.0  0.23623  0.86461  0.12139  1.0000 0.2083956444
C   C36       1.0  0.86461  0.23623  0.77777  1.0000 0.2083956444
C   C37       1.0  0.12861  0.47223  0.01377  1.0000 0.2083956444
C   C38       1.0  0.47223  0.12861  0.38539  1.0000 0.2083956444
C   C39       1.0  0.01377  0.38539  0.12861  1.0000 0.2083956444
C   C40       1.0  0.38539  0.01377  0.47223  1.0000 0.2083956444
C   C41       1.0  0.11181  0.78489  0.35691  1.0000 0.2205757418
C   C42       1.0  0.78489  0.11181  0.74639  1.0000 0.2205757418
C   C43       1.0  0.35691  0.74639  0.11181  1.0000 0.2205757418
C   C44       1.0  0.74639  0.35691  0.78489  1.0000 0.2205757418
C   C45       1.0  0.13819  0.46511  0.89309  1.0000 0.2205757418
C   C46       1.0  0.46511  0.13819  0.50361  1.0000 0.2205757418
C   C47       1.0  0.89309  0.50361  0.13819  1.0000 0.2205757418
C   C48       1.0  0.50361  0.89309  0.46511  1.0000 0.2205757418
C   C49       1.0  0.06478  0.82318  0.45082  1.0000 -0.4833106479
C   C50       1.0  0.82318  0.06478  0.66122  1.0000 -0.4833106479
C   C51       1.0  0.45082  0.66122  0.06478  1.0000 -0.4833106479
C   C52       1.0  0.66122  0.45082  0.82318  1.0000 -0.4833106479
C   C53       1.0  0.18522  0.42682  0.79918  1.0000 -0.4833106479
C   C54       1.0  0.42682  0.18522  0.58878  1.0000 -0.4833106479
C   C55       1.0  0.79918  0.58878  0.18522  1.0000 -0.4833106479
C   C56       1.0  0.58878  0.79918  0.42682  1.0000 -0.4833106479
C   C57       1.0  0.08780  0.80900  0.18380  1.0000 -0.4561392559
C   C58       1.0  0.80900  0.08780  0.91940  1.0000 -0.4561392559
C   C59       1.0  0.18380  0.91940  0.08780  1.0000 -0.4561392559
C   C60       1.0  0.91940  0.18380  0.80900  1.0000 -0.4561392559
C   C61       1.0  0.16220  0.44100  0.06620  1.0000 -0.4561392559
C   C62       1.0  0.44100  0.16220  0.33060  1.0000 -0.4561392559
C   C63       1.0  0.06620  0.33060  0.16220  1.0000 -0.4561392559
C   C64       1.0  0.33060  0.06620  0.44100  1.0000 -0.4561392559
C   C65       1.0  0.97159  0.89217  0.37483  1.0000 0.1609411616
C   C66       1.0  0.89217  0.97159  0.76141  1.0000 0.1609411616
C   C67       1.0  0.37483  0.76141  0.97159  1.0000 0.1609411616
C   C68       1.0  0.76141  0.37483  0.89217  1.0000 0.1609411616
C   C69       1.0  0.27841  0.35783  0.87517  1.0000 0.1609411616
C   C70       1.0  0.35783  0.27841  0.48859  1.0000 0.1609411616
C   C71       1.0  0.87517  0.48859  0.27841  1.0000 0.1609411616
C   C72       1.0  0.48859  0.87517  0.35783  1.0000 0.1609411616
C   C73       1.0  0.92350  0.87208  0.39832  1.0000 -0.1666683709
C   C74       1.0  0.87208  0.92350  0.80610  1.0000 -0.1666683709
C   C75       1.0  0.39832  0.80610  0.92350  1.0000 -0.1666683709
C   C76       1.0  0.80610  0.39832  0.87208  1.0000 -0.1666683709
C   C77       1.0  0.32650  0.37792  0.85168  1.0000 -0.1666683709
C   C78       1.0  0.37792  0.32650  0.44390  1.0000 -0.1666683709
C   C79       1.0  0.85168  0.44390  0.32650  1.0000 -0.1666683709
C   C80       1.0  0.44390  0.85168  0.37792  1.0000 -0.1666683709
C   C81       1.0  0.83275  0.93615  0.45465  1.0000 -0.0025316211
C   C82       1.0  0.93615  0.83275  0.77645  1.0000 -0.0025316211
C   C83       1.0  0.45465  0.77645  0.83275  1.0000 -0.0025316211
C   C84       1.0  0.77645  0.45465  0.93615  1.0000 -0.0025316211
C   C85       1.0  0.41725  0.31385  0.79535  1.0000 -0.0025316211
C   C86       1.0  0.31385  0.41725  0.47355  1.0000 -0.0025316211
C   C87       1.0  0.79535  0.47355  0.41725  1.0000 -0.0025316211
C   C88       1.0  0.47355  0.79535  0.31385  1.0000 -0.0025316211
C   C89       1.0  0.78862  0.02144  0.48996  1.0000 -0.1196290148
C   C90       1.0  0.02144  0.78862  0.69998  1.0000 -0.1196290148
C   C91       1.0  0.48996  0.69998  0.78862  1.0000 -0.1196290148
C   C92       1.0  0.69998  0.48996  0.02144  1.0000 -0.1196290148
C   C93       1.0  0.46138  0.22856  0.76004  1.0000 -0.1196290148
C   C94       1.0  0.22856  0.46138  0.55002  1.0000 -0.1196290148
C   C95       1.0  0.76004  0.55002  0.46138  1.0000 -0.1196290148
C   C96       1.0  0.55002  0.76004  0.22856  1.0000 -0.1196290148
C   C97       1.0  0.83776  0.04256  0.46304  1.0000 -0.0025316211
C   C98       1.0  0.04256  0.83776  0.65664  1.0000 -0.0025316211
C   C99       1.0  0.46304  0.65664  0.83776  1.0000 -0.0025316211
C   C100      1.0  0.65664  0.46304  0.04256  1.0000 -0.0025316211
C   C101      1.0  0.41224  0.20744  0.78696  1.0000 -0.0025316211
C   C102      1.0  0.20744  0.41224  0.59336  1.0000 -0.0025316211
C   C103      1.0  0.78696  0.59336  0.41224  1.0000 -0.0025316211
C   C104      1.0  0.59336  0.78696  0.20744  1.0000 -0.0025316211
C   C105      1.0  0.92863  0.97825  0.40675  1.0000 -0.1418912398
C   C106      1.0  0.97825  0.92863  0.68637  1.0000 -0.1418912398
C   C107      1.0  0.40675  0.68637  0.92863  1.0000 -0.1418912398
C   C108      1.0  0.68637  0.40675  0.97825  1.0000 -0.1418912398
C   C109      1.0  0.32137  0.27175  0.84325  1.0000 -0.1418912398
C   C110      1.0  0.27175  0.32137  0.56363  1.0000 -0.1418912398
C   C111      1.0  0.84325  0.56363  0.32137  1.0000 -0.1418912398
C   C112      1.0  0.56363  0.84325  0.27175  1.0000 -0.1418912398
C   C113      1.0  0.79083  0.13553  0.49767  1.0000 0.5808207126
C   C114      1.0  0.13553  0.79083  0.57597  1.0000 0.5808207126
C   C115      1.0  0.49767  0.57597  0.79083  1.0000 0.5808207126
C   C116      1.0  0.57597  0.49767  0.13553  1.0000 0.5808207126
C   C117      1.0  0.45917  0.11447  0.75233  1.0000 0.5808207126
C   C118      1.0  0.11447  0.45917  0.67403  1.0000 0.5808207126
C   C119      1.0  0.75233  0.67403  0.45917  1.0000 0.5808207126
C   C120      1.0  0.67403  0.75233  0.11447  1.0000 0.5808207126
C   C121      1.0  0.77977  0.91355  0.48385  1.0000 0.5933187635
C   C122      1.0  0.91355  0.77977  0.82283  1.0000 0.5933187635
C   C123      1.0  0.48385  0.82283  0.77977  1.0000 0.5933187635
C   C124      1.0  0.82283  0.48385  0.91355  1.0000 0.5933187635
C   C125      1.0  0.47023  0.33645  0.76615  1.0000 0.5933187635
C   C126      1.0  0.33645  0.47023  0.42717  1.0000 0.5933187635
C   C127      1.0  0.76615  0.42717  0.47023  1.0000 0.5933187635
C   C128      1.0  0.42717  0.76615  0.33645  1.0000 0.5933187635
N   N1        1.0  0.06572  0.82332  0.32268  1.0000 -0.1122809208
N   N2        1.0  0.82332  0.06572  0.78828  1.0000 -0.1122809208
N   N3        1.0  0.32268  0.78828  0.06572  1.0000 -0.1122809208
N   N4        1.0  0.78828  0.32268  0.82332  1.0000 -0.1122809208
N   N5        1.0  0.18428  0.42668  0.92732  1.0000 -0.1122809208
N   N6        1.0  0.42668  0.18428  0.46172  1.0000 -0.1122809208
N   N7        1.0  0.92732  0.46172  0.18428  1.0000 -0.1122809208
N   N8        1.0  0.46172  0.92732  0.42668  1.0000 -0.1122809208
O   O1        1.0  0.42762  0.54254  0.33526  1.0000 -0.8488962768
O   O2        1.0  0.54254  0.42762  0.69458  1.0000 -0.8488962768
O   O3        1.0  0.33526  0.69458  0.42762  1.0000 -0.8488962768
O   O4        1.0  0.69458  0.33526  0.54254  1.0000 -0.8488962768
O   O5        1.0  0.82238  0.70746  0.91474  1.0000 -0.8488962768
O   O6        1.0  0.70746  0.82238  0.55542  1.0000 -0.8488962768
O   O7        1.0  0.91474  0.55542  0.82238  1.0000 -0.8488962768
O   O8        1.0  0.55542  0.91474  0.70746  1.0000 -0.8488962768
O   O9        1.0  0.24522  0.67478  0.37722  1.0000 -0.5511656397
O   O10       1.0  0.67478  0.24522  0.70278  1.0000 -0.5511656397
O   O11       1.0  0.37722  0.70278  0.24522  1.0000 -0.5511656397
O   O12       1.0  0.70278  0.37722  0.67478  1.0000 -0.5511656397
O   O13       1.0  0.00478  0.57522  0.87278  1.0000 -0.5511656397
O   O14       1.0  0.57522  0.00478  0.54722  1.0000 -0.5511656397
O   O15       1.0  0.87278  0.54722  0.00478  1.0000 -0.5511656397
O   O16       1.0  0.54722  0.87278  0.57522  1.0000 -0.5511656397
O   O17       1.0  0.34121  0.58203  0.24437  1.0000 -0.6194999112
O   O18       1.0  0.58203  0.34121  0.83239  1.0000 -0.6194999112
O   O19       1.0  0.24437  0.83239  0.34121  1.0000 -0.6194999112
O   O20       1.0  0.83239  0.24437  0.58203  1.0000 -0.6194999112
O   O21       1.0  0.90879  0.66797  0.00563  1.0000 -0.6194999112
O   O22       1.0  0.66797  0.90879  0.41761  1.0000 -0.6194999112
O   O23       1.0  0.00563  0.41761  0.90879  1.0000 -0.6194999112
O   O24       1.0  0.41761  0.00563  0.66797  1.0000 -0.6194999112
O   O25       1.0  0.35493  0.57771  0.11049  1.0000 -0.4320385946
O   O26       1.0  0.57771  0.35493  0.95687  1.0000 -0.4320385946
O   O27       1.0  0.11049  0.95687  0.35493  1.0000 -0.4320385946
O   O28       1.0  0.95687  0.11049  0.57771  1.0000 -0.4320385946
O   O29       1.0  0.89507  0.67229  0.13951  1.0000 -0.4320385946
O   O30       1.0  0.67229  0.89507  0.29313  1.0000 -0.4320385946
O   O31       1.0  0.13951  0.29313  0.89507  1.0000 -0.4320385946
O   O32       1.0  0.29313  0.13951  0.67229  1.0000 -0.4320385946
O   O33       1.0  0.27398  0.65052  0.06668  1.0000 -0.5012044428
O   O34       1.0  0.65052  0.27398  0.00882  1.0000 -0.5012044428
O   O35       1.0  0.06668  0.00882  0.27398  1.0000 -0.5012044428
O   O36       1.0  0.00882  0.06668  0.65052  1.0000 -0.5012044428
O   O37       1.0  0.97602  0.59948  0.18332  1.0000 -0.5012044428
O   O38       1.0  0.59948  0.97602  0.24118  1.0000 -0.5012044428
O   O39       1.0  0.18332  0.24118  0.97602  1.0000 -0.5012044428
O   O40       1.0  0.24118  0.18332  0.59948  1.0000 -0.5012044428
O   O41       1.0  0.83920  0.14848  0.47172  1.0000 -0.5403836227
O   O42       1.0  0.14848  0.83920  0.54060  1.0000 -0.5403836227
O   O43       1.0  0.47172  0.54060  0.83920  1.0000 -0.5403836227
O   O44       1.0  0.54060  0.47172  0.14848  1.0000 -0.5403836227
O   O45       1.0  0.41080  0.10152  0.77828  1.0000 -0.5403836227
O   O46       1.0  0.10152  0.41080  0.70940  1.0000 -0.5403836227
O   O47       1.0  0.77828  0.70940  0.41080  1.0000 -0.5403836227
O   O48       1.0  0.70940  0.77828  0.10152  1.0000 -0.5403836227
O   O49       1.0  0.70853  0.19015  0.54745  1.0000 -0.5403836227
O   O50       1.0  0.19015  0.70853  0.55387  1.0000 -0.5403836227
O   O51       1.0  0.54745  0.55387  0.70853  1.0000 -0.5403836227
O   O52       1.0  0.55387  0.54745  0.19015  1.0000 -0.5403836227
O   O53       1.0  0.54147  0.05985  0.70255  1.0000 -0.5403836227
O   O54       1.0  0.05985  0.54147  0.69613  1.0000 -0.5403836227
O   O55       1.0  0.70255  0.69613  0.54147  1.0000 -0.5403836227
O   O56       1.0  0.69613  0.70255  0.05985  1.0000 -0.5403836227
O   O57       1.0  0.70937  0.95529  0.55911  1.0000 -0.5123695327
O   O58       1.0  0.95529  0.70937  0.77623  1.0000 -0.5123695327
O   O59       1.0  0.55911  0.77623  0.70937  1.0000 -0.5123695327
O   O60       1.0  0.77623  0.55911  0.95529  1.0000 -0.5123695327
O   O61       1.0  0.54063  0.29471  0.69089  1.0000 -0.5123695327
O   O62       1.0  0.29471  0.54063  0.47377  1.0000 -0.5123695327
O   O63       1.0  0.69089  0.47377  0.54063  1.0000 -0.5123695327
O   O64       1.0  0.47377  0.69089  0.29471  1.0000 -0.5123695327
O   O65       1.0  0.81299  0.85393  0.42827  1.0000 -0.5555391333
O   O66       1.0  0.85393  0.81299  0.90481  1.0000 -0.5555391333
O   O67       1.0  0.42827  0.90481  0.81299  1.0000 -0.5555391333
O   O68       1.0  0.90481  0.42827  0.85393  1.0000 -0.5555391333
O   O69       1.0  0.43701  0.39607  0.82173  1.0000 -0.5555391333
O   O70       1.0  0.39607  0.43701  0.34519  1.0000 -0.5555391333
O   O71       1.0  0.82173  0.34519  0.43701  1.0000 -0.5511656397
O   O72       1.0  0.34519  0.82173  0.39607  1.0000 -0.5555391333
