# DDEC6 charges by PACMAN v1.1 (https://github.com/mtap-research/PACMAN-charge/)
data_2016[Eu][nan]3[ASR]9
_chemical_formula_sum              "Eu8 H52 C96 Cl4 O48"
_cell_length_a       8.0451
_cell_length_b       21.3785
_cell_length_c       18.3326
_cell_angle_alpha    90
_cell_angle_beta     90.035
_cell_angle_gamma    90

_symmetry_space_group_name_H-M    "P 1"
_symmetry_Int_Tables_number       1

loop_
  _symmetry_equiv_pos_as_xyz
  'x, y, z'

loop_
  _atom_site_type_symbol
  _atom_site_label
  _atom_site_symmetry_multiplicity
  _atom_site_fract_x
  _atom_site_fract_y
  _atom_site_fract_z
  _atom_site_occupancy
  _atom_site_charge
Eu  Eu1       1.0  0.85550  0.41878  0.74970  1.0000 2.0289992045
Eu  Eu2       1.0  0.14450  0.91878  0.75030  1.0000 2.0289992045
Eu  Eu3       1.0  0.14450  0.58122  0.25030  1.0000 2.0289992045
Eu  Eu4       1.0  0.85550  0.08122  0.24970  1.0000 2.0289992045
Eu  Eu5       1.0  0.34813  0.36833  0.72463  1.0000 1.9228754888
Eu  Eu6       1.0  0.65187  0.86833  0.77537  1.0000 1.9228754888
Eu  Eu7       1.0  0.65187  0.63167  0.27537  1.0000 1.9228754888
Eu  Eu8       1.0  0.34813  0.13167  0.22463  1.0000 1.9228754888
H   H1        1.0  0.95440  0.21530  0.73060  1.0000 0.141849493
H   H2        1.0  0.04560  0.71530  0.76940  1.0000 0.141849493
H   H3        1.0  0.04560  0.78470  0.26940  1.0000 0.141849493
H   H4        1.0  0.95440  0.28470  0.23060  1.0000 0.141849493
H   H5        1.0  0.00980  0.10720  0.72670  1.0000 0.1315387565
H   H6        1.0  0.99020  0.60720  0.77330  1.0000 0.1315387565
H   H7        1.0  0.99020  0.89280  0.27330  1.0000 0.1315387565
H   H8        1.0  0.00980  0.39280  0.22670  1.0000 0.1315387565
H   H9        1.0  0.52100  0.07470  0.75050  1.0000 0.1315387565
H   H10       1.0  0.47900  0.57470  0.74950  1.0000 0.1315387565
H   H11       1.0  0.47900  0.92530  0.24950  1.0000 0.1315387565
H   H12       1.0  0.52100  0.42530  0.25050  1.0000 0.1315387565
H   H13       1.0  0.47000  0.17980  0.75310  1.0000 0.1315387565
H   H14       1.0  0.53000  0.67980  0.74690  1.0000 0.1315387565
H   H15       1.0  0.53000  0.82020  0.24690  1.0000 0.1315387565
H   H16       1.0  0.47000  0.32020  0.25310  1.0000 0.1315387565
H   H17       1.0  0.25150  0.25490  0.87650  1.0000 0.141849493
H   H18       1.0  0.74850  0.75490  0.62350  1.0000 0.141849493
H   H19       1.0  0.74850  0.74510  0.12350  1.0000 0.141849493
H   H20       1.0  0.25150  0.24510  0.37650  1.0000 0.141849493
H   H21       1.0  0.33610  0.20430  0.97790  1.0000 0.1315387565
H   H22       1.0  0.66390  0.70430  0.52210  1.0000 0.1315387565
H   H23       1.0  0.66390  0.79570  0.02210  1.0000 0.1315387565
H   H24       1.0  0.33610  0.29570  0.47790  1.0000 0.1315387565
H   H25       1.0  0.10570  0.32730  0.10630  1.0000 0.1203587621
H   H26       1.0  0.89430  0.82730  0.39370  1.0000 0.1203587621
H   H27       1.0  0.89430  0.67270  0.89370  1.0000 0.1203587621
H   H28       1.0  0.10570  0.17270  0.60630  1.0000 0.1203587621
H   H29       1.0  0.02070  0.38220  0.00530  1.0000 0.1203587621
H   H30       1.0  0.97930  0.88220  0.49470  1.0000 0.1203587621
H   H31       1.0  0.97930  0.61780  0.99470  1.0000 0.1203587621
H   H32       1.0  0.02070  0.11780  0.50530  1.0000 0.1203587621
H   H33       1.0  0.74230  0.51800  0.93980  1.0000 0.141849493
H   H34       1.0  0.25770  0.01800  0.56020  1.0000 0.141849493
H   H35       1.0  0.25770  0.48200  0.06020  1.0000 0.141849493
H   H36       1.0  0.74230  0.98200  0.43980  1.0000 0.141849493
H   H37       1.0  0.28850  0.44440  0.94430  1.0000 0.1203587621
H   H38       1.0  0.71150  0.94440  0.55570  1.0000 0.1203587621
H   H39       1.0  0.71150  0.55560  0.05570  1.0000 0.1203587621
H   H40       1.0  0.28850  0.05560  0.44430  1.0000 0.1203587621
H   H41       1.0  0.43210  0.40400  0.55160  1.0000 0.1315387565
H   H42       1.0  0.56790  0.90400  0.94840  1.0000 0.1315387565
H   H43       1.0  0.56790  0.59600  0.44840  1.0000 0.1315387565
H   H44       1.0  0.43210  0.09600  0.05160  1.0000 0.1315387565
H   H45       1.0  0.67530  0.56720  0.56210  1.0000 0.1203587621
H   H46       1.0  0.32470  0.06720  0.93790  1.0000 0.1203587621
H   H47       1.0  0.32470  0.43280  0.43790  1.0000 0.1203587621
H   H48       1.0  0.67530  0.93280  0.06210  1.0000 0.1203587621
H   H49       1.0  0.39360  0.41370  0.80780  1.0000 0.3032649259
H   H50       1.0  0.60640  0.91370  0.69220  1.0000 0.3032649259
H   H51       1.0  0.60640  0.58630  0.19220  1.0000 0.3032649259
H   H52       1.0  0.39360  0.08630  0.30780  1.0000 0.3032649259
C   C1        1.0  0.71400  0.20710  0.74110  1.0000 -0.0082673266
C   C2        1.0  0.28600  0.70710  0.75890  1.0000 -0.0082673266
C   C3        1.0  0.28600  0.79290  0.25890  1.0000 -0.0082673266
C   C4        1.0  0.71400  0.29290  0.24110  1.0000 -0.0082673266
C   C5        1.0  0.86750  0.18680  0.73420  1.0000 -0.0790184405
C   C6        1.0  0.13250  0.68680  0.76580  1.0000 -0.087461996
C   C7        1.0  0.13250  0.81320  0.26580  1.0000 -0.087461996
C   C8        1.0  0.86750  0.31320  0.23420  1.0000 -0.087461996
C   C9        1.0  0.90200  0.12180  0.73240  1.0000 -0.0981681629
C   C10       1.0  0.09800  0.62180  0.76760  1.0000 -0.0981681629
C   C11       1.0  0.09800  0.87820  0.26760  1.0000 -0.0981681629
C   C12       1.0  0.90200  0.37820  0.23240  1.0000 -0.0981681629
C   C13       1.0  0.77240  0.08110  0.73910  1.0000 -0.0376144846
C   C14       1.0  0.22760  0.58110  0.76090  1.0000 -0.0376144846
C   C15       1.0  0.22760  0.91890  0.26090  1.0000 -0.0376144846
C   C16       1.0  0.77240  0.41890  0.23910  1.0000 -0.0376144846
C   C17       1.0  0.60800  0.10300  0.74650  1.0000 -0.0981681629
C   C18       1.0  0.39200  0.60300  0.75350  1.0000 -0.0981681629
C   C19       1.0  0.39200  0.89700  0.25350  1.0000 -0.0981681629
C   C20       1.0  0.60800  0.39700  0.24650  1.0000 -0.0981681629
C   C21       1.0  0.57790  0.16480  0.74790  1.0000 -0.0981681629
C   C22       1.0  0.42210  0.66480  0.75210  1.0000 -0.0981681629
C   C23       1.0  0.42210  0.83520  0.25210  1.0000 -0.0981681629
C   C24       1.0  0.57790  0.33520  0.24790  1.0000 -0.0981681629
C   C25       1.0  0.67400  0.27650  0.74810  1.0000 0.6500948544
C   C26       1.0  0.32600  0.77650  0.75190  1.0000 0.6500948544
C   C27       1.0  0.32600  0.72350  0.25190  1.0000 0.6500948544
C   C28       1.0  0.67400  0.22350  0.24810  1.0000 0.6500948544
C   C29       1.0  0.80480  0.01270  0.74170  1.0000 0.6500948544
C   C30       1.0  0.19520  0.51270  0.75830  1.0000 0.6500948544
C   C31       1.0  0.19520  0.98730  0.25830  1.0000 0.6500948544
C   C32       1.0  0.80480  0.48730  0.24170  1.0000 0.6500948544
C   C33       1.0  0.12080  0.32480  0.92960  1.0000 -0.0278299577
C   C34       1.0  0.87920  0.82480  0.57040  1.0000 -0.0278299577
C   C35       1.0  0.87920  0.67520  0.07040  1.0000 -0.0278299577
C   C36       1.0  0.12080  0.17520  0.42960  1.0000 -0.0278299577
C   C37       1.0  0.22200  0.26980  0.92230  1.0000 -0.0981681629
C   C38       1.0  0.77800  0.76980  0.57770  1.0000 -0.0981681629
C   C39       1.0  0.77800  0.73020  0.07770  1.0000 -0.0981681629
C   C40       1.0  0.22200  0.23020  0.42230  1.0000 -0.0981681629
C   C41       1.0  0.27300  0.24050  0.98270  1.0000 -0.087461996
C   C42       1.0  0.72700  0.74050  0.51730  1.0000 -0.087461996
C   C43       1.0  0.72700  0.75950  0.01730  1.0000 -0.087461996
C   C44       1.0  0.27300  0.25950  0.48270  1.0000 -0.087461996
C   C45       1.0  0.23550  0.26240  0.05380  1.0000 0.0028880832
C   C46       1.0  0.76450  0.76240  0.44620  1.0000 0.0028880832
C   C47       1.0  0.76450  0.73760  0.94620  1.0000 0.0028880832
C   C48       1.0  0.23550  0.23760  0.55380  1.0000 0.0028880832
C   C49       1.0  0.13720  0.31360  0.06020  1.0000 -0.0981681629
C   C50       1.0  0.86280  0.81360  0.43980  1.0000 -0.0981681629
C   C51       1.0  0.86280  0.68640  0.93980  1.0000 -0.0981681629
C   C52       1.0  0.13720  0.18640  0.56020  1.0000 -0.0981681629
C   C53       1.0  0.08310  0.34590  0.99950  1.0000 -0.1130210396
C   C54       1.0  0.91690  0.84590  0.50050  1.0000 -0.1130210396
C   C55       1.0  0.91690  0.65410  0.00050  1.0000 -0.1130210396
C   C56       1.0  0.08310  0.15410  0.49950  1.0000 -0.1130210396
C   C57       1.0  0.04900  0.35700  0.86560  1.0000 0.5969826232
C   C58       1.0  0.95100  0.85700  0.63440  1.0000 0.5969826232
C   C59       1.0  0.95100  0.64300  0.13440  1.0000 0.5969826232
C   C60       1.0  0.04900  0.14300  0.36560  1.0000 0.5969826232
C   C61       1.0  0.28930  0.22630  0.12040  1.0000 0.5656560014
C   C62       1.0  0.71070  0.72630  0.37960  1.0000 0.5656560014
C   C63       1.0  0.71070  0.77370  0.87960  1.0000 0.5656560014
C   C64       1.0  0.28930  0.27370  0.62040  1.0000 0.5656560014
C   C65       1.0  0.52600  0.47490  0.93120  1.0000 -0.0278299577
C   C66       1.0  0.47400  0.97490  0.56880  1.0000 -0.0278299577
C   C67       1.0  0.47400  0.52510  0.06880  1.0000 -0.0278299577
C   C68       1.0  0.52600  0.02510  0.43120  1.0000 -0.0278299577
C   C69       1.0  0.64400  0.51000  0.96470  1.0000 -0.0790184405
C   C70       1.0  0.35600  0.01000  0.53530  1.0000 -0.0790184405
C   C71       1.0  0.35600  0.49000  0.03530  1.0000 -0.0790184405
C   C72       1.0  0.64400  0.99000  0.46470  1.0000 -0.0790184405
C   C73       1.0  0.37500  0.46610  0.96680  1.0000 -0.0981681629
C   C74       1.0  0.62500  0.96610  0.53320  1.0000 -0.0981681629
C   C75       1.0  0.62500  0.53390  0.03320  1.0000 -0.0981681629
C   C76       1.0  0.37500  0.03390  0.46680  1.0000 -0.0981681629
C   C77       1.0  0.55600  0.44950  0.85770  1.0000 0.6140984247
C   C78       1.0  0.44400  0.94950  0.64230  1.0000 0.6140984247
C   C79       1.0  0.44400  0.55050  0.14230  1.0000 0.6140984247
C   C80       1.0  0.55600  0.05050  0.35770  1.0000 0.6140984247
C   C81       1.0  0.56150  0.48250  0.56900  1.0000 -0.0278299577
C   C82       1.0  0.43850  0.98250  0.93100  1.0000 -0.0278299577
C   C83       1.0  0.43850  0.51750  0.43100  1.0000 -0.0278299577
C   C84       1.0  0.56150  0.01750  0.06900  1.0000 -0.0278299577
C   C85       1.0  0.46000  0.44270  0.53160  1.0000 -0.087461996
C   C86       1.0  0.54000  0.94270  0.96840  1.0000 -0.087461996
C   C87       1.0  0.54000  0.55730  0.46840  1.0000 -0.087461996
C   C88       1.0  0.46000  0.05730  0.03160  1.0000 -0.087461996
C   C89       1.0  0.60400  0.54010  0.53740  1.0000 -0.0790184405
C   C90       1.0  0.39600  0.04010  0.96260  1.0000 -0.0790184405
C   C91       1.0  0.39600  0.45990  0.46260  1.0000 -0.0790184405
C   C92       1.0  0.60400  0.95990  0.03740  1.0000 -0.0790184405
C   C93       1.0  0.64180  0.46730  0.63870  1.0000 0.5969826232
C   C94       1.0  0.35820  0.96730  0.86130  1.0000 0.5969826232
C   C95       1.0  0.35820  0.53270  0.36130  1.0000 0.5969826232
C   C96       1.0  0.64180  0.03270  0.13870  1.0000 0.5969826232
Cl  Cl1       1.0  0.06670  0.40130  0.63280  1.0000 -0.7170898814
Cl  Cl2       1.0  0.93330  0.90130  0.86720  1.0000 -0.7170898814
Cl  Cl3       1.0  0.93330  0.59870  0.36720  1.0000 -0.7170898814
Cl  Cl4       1.0  0.06670  0.09870  0.13280  1.0000 -0.7170898814
O   O1        1.0  0.79460  0.31370  0.73840  1.0000 -0.6475070615
O   O2        1.0  0.20540  0.81370  0.76160  1.0000 -0.6475070615
O   O3        1.0  0.20540  0.68630  0.26160  1.0000 -0.6475070615
O   O4        1.0  0.79460  0.18630  0.23840  1.0000 -0.6475070615
O   O5        1.0  0.53540  0.29430  0.76370  1.0000 -0.6151925375
O   O6        1.0  0.46460  0.79430  0.73630  1.0000 -0.6144192268
O   O7        1.0  0.46460  0.70570  0.23630  1.0000 -0.6151925375
O   O8        1.0  0.53540  0.20570  0.26370  1.0000 -0.6151925375
O   O9        1.0  0.95100  0.99340  0.72550  1.0000 -0.7097238351
O   O10       1.0  0.04900  0.49340  0.77450  1.0000 -0.7097238351
O   O11       1.0  0.04900  0.00660  0.27450  1.0000 -0.7097238351
O   O12       1.0  0.95100  0.50660  0.22550  1.0000 -0.7097238351
O   O13       1.0  0.69050  0.97750  0.76490  1.0000 -0.659386446
O   O14       1.0  0.30950  0.47750  0.73510  1.0000 -0.659386446
O   O15       1.0  0.30950  0.02250  0.23510  1.0000 -0.659386446
O   O16       1.0  0.69050  0.52250  0.26490  1.0000 -0.659386446
O   O17       1.0  0.11960  0.35240  0.80390  1.0000 -0.7097238351
O   O18       1.0  0.88040  0.85240  0.69610  1.0000 -0.7097238351
O   O19       1.0  0.88040  0.64760  0.19610  1.0000 -0.7097238351
O   O20       1.0  0.11960  0.14760  0.30390  1.0000 -0.7097238351
O   O21       1.0  0.92010  0.38570  0.87160  1.0000 -0.5613511688
O   O22       1.0  0.07990  0.88570  0.62840  1.0000 -0.5613511688
O   O23       1.0  0.07990  0.61430  0.12840  1.0000 -0.5613511688
O   O24       1.0  0.92010  0.11430  0.37160  1.0000 -0.5613511688
O   O25       1.0  0.40630  0.18570  0.11120  1.0000 -0.6292276432
O   O26       1.0  0.59370  0.68570  0.38880  1.0000 -0.6292276432
O   O27       1.0  0.59370  0.81430  0.88880  1.0000 -0.6292276432
O   O28       1.0  0.40630  0.31430  0.61120  1.0000 -0.6292276432
O   O29       1.0  0.22270  0.23450  0.18010  1.0000 -0.5701555421
O   O30       1.0  0.77730  0.73450  0.31990  1.0000 -0.5701555421
O   O31       1.0  0.77730  0.76550  0.81990  1.0000 -0.5701555421
O   O32       1.0  0.22270  0.26550  0.68010  1.0000 -0.5701555421
O   O33       1.0  0.66590  0.46910  0.82050  1.0000 -0.5613511688
O   O34       1.0  0.33410  0.96910  0.67950  1.0000 -0.5613511688
O   O35       1.0  0.33410  0.53090  0.17950  1.0000 -0.5701555421
O   O36       1.0  0.66590  0.03090  0.32050  1.0000 -0.5613511688
O   O37       1.0  0.45600  0.40300  0.84100  1.0000 -0.5253428866
O   O38       1.0  0.54400  0.90300  0.65900  1.0000 -0.5253428866
O   O39       1.0  0.54400  0.59700  0.15900  1.0000 -0.5253428866
O   O40       1.0  0.45600  0.09700  0.34100  1.0000 -0.5253428866
O   O41       1.0  0.59720  0.41480  0.67130  1.0000 -0.7774897714
O   O42       1.0  0.40280  0.91480  0.82870  1.0000 -0.7774897714
O   O43       1.0  0.40280  0.58520  0.32870  1.0000 -0.7774897714
O   O44       1.0  0.59720  0.08520  0.17130  1.0000 -0.7774897714
O   O45       1.0  0.75270  0.49920  0.66520  1.0000 -0.5613511688
O   O46       1.0  0.24730  0.99920  0.83480  1.0000 -0.5613511688
O   O47       1.0  0.24730  0.50080  0.33480  1.0000 -0.5613511688
O   O48       1.0  0.75270  0.00080  0.16520  1.0000 -0.5613511688
