# DDEC6 charges by PACMAN v1.1 (https://github.com/mtap-research/PACMAN-charge/)
data_2016[Mg][stp]3[ASR]1
_chemical_formula_sum              "Mg6 H78 C144 N12 O26"
_cell_length_a       31.848
_cell_length_b       31.848
_cell_length_c       16.883
_cell_angle_alpha    90
_cell_angle_beta     90
_cell_angle_gamma    120

_symmetry_space_group_name_H-M    "P 1"
_symmetry_Int_Tables_number       1

loop_
  _symmetry_equiv_pos_as_xyz
  'x, y, z'

loop_
  _atom_site_type_symbol
  _atom_site_label
  _atom_site_symmetry_multiplicity
  _atom_site_fract_x
  _atom_site_fract_y
  _atom_site_fract_z
  _atom_site_occupancy
  _atom_site_charge
Mg  Mg1       1.0  0.29737  0.59475  0.50000  1.0000 1.4363458987
Mg  Mg2       1.0  0.40525  0.70262  0.50000  1.0000 1.4345832304
Mg  Mg3       1.0  0.29737  0.70262  0.50000  1.0000 1.4345832304
Mg  Mg4       1.0  0.70262  0.40525  0.50000  1.0000 1.4345832304
Mg  Mg5       1.0  0.59475  0.29737  0.50000  1.0000 1.4363458987
Mg  Mg6       1.0  0.70262  0.29737  0.50000  1.0000 1.4363458987
H   H1        1.0  0.00000  0.50000  0.06740  1.0000 0.2752262588
H   H2        1.0  0.50000  0.50000  0.06740  1.0000 0.2752262588
H   H3        1.0  0.50000  0.00000  0.06740  1.0000 0.2752262588
H   H4        1.0  0.50000  0.00000  0.93260  1.0000 0.2752262588
H   H5        1.0  0.50000  0.50000  0.93260  1.0000 0.2746181126
H   H6        1.0  0.00000  0.50000  0.93260  1.0000 0.2746181126
H   H7        1.0  0.17990  0.58995  0.07200  1.0000 0.1304194383
H   H8        1.0  0.41005  0.58995  0.07200  1.0000 0.1304194383
H   H9        1.0  0.41005  0.82010  0.07200  1.0000 0.1304194383
H   H10       1.0  0.82010  0.41005  0.07200  1.0000 0.1304194383
H   H11       1.0  0.58995  0.41005  0.07200  1.0000 0.1304194383
H   H12       1.0  0.58995  0.17990  0.07200  1.0000 0.1304194383
H   H13       1.0  0.58995  0.17990  0.92800  1.0000 0.1304194383
H   H14       1.0  0.58995  0.41005  0.92800  1.0000 0.1304194383
H   H15       1.0  0.82010  0.41005  0.92800  1.0000 0.1304194383
H   H16       1.0  0.41005  0.82010  0.92800  1.0000 0.1304194383
H   H17       1.0  0.41005  0.58995  0.92800  1.0000 0.1304194383
H   H18       1.0  0.17990  0.58995  0.92800  1.0000 0.1304194383
H   H19       1.0  0.19290  0.53450  0.31100  1.0000 0.1304194383
H   H20       1.0  0.46550  0.65840  0.31100  1.0000 0.1304194383
H   H21       1.0  0.34160  0.80710  0.31100  1.0000 0.1304194383
H   H22       1.0  0.80710  0.46550  0.31100  1.0000 0.1304194383
H   H23       1.0  0.53450  0.34160  0.31100  1.0000 0.1304194383
H   H24       1.0  0.65840  0.19290  0.31100  1.0000 0.1304194383
H   H25       1.0  0.53450  0.19290  0.68900  1.0000 0.1304194383
H   H26       1.0  0.65840  0.46550  0.68900  1.0000 0.1304194383
H   H27       1.0  0.80710  0.34160  0.68900  1.0000 0.1304194383
H   H28       1.0  0.46550  0.80710  0.68900  1.0000 0.1304194383
H   H29       1.0  0.34160  0.53450  0.68900  1.0000 0.1304194383
H   H30       1.0  0.19290  0.65840  0.68900  1.0000 0.1304194383
H   H31       1.0  0.80710  0.46550  0.68900  1.0000 0.1304194383
H   H32       1.0  0.53450  0.34160  0.68900  1.0000 0.1304194383
H   H33       1.0  0.65840  0.19290  0.68900  1.0000 0.1304194383
H   H34       1.0  0.19290  0.53450  0.68900  1.0000 0.1304194383
H   H35       1.0  0.46550  0.65840  0.68900  1.0000 0.1304194383
H   H36       1.0  0.34160  0.80710  0.68900  1.0000 0.1304194383
H   H37       1.0  0.46550  0.80710  0.31100  1.0000 0.1304194383
H   H38       1.0  0.34160  0.53450  0.31100  1.0000 0.1304194383
H   H39       1.0  0.19290  0.65840  0.31100  1.0000 0.1304194383
H   H40       1.0  0.53450  0.19290  0.31100  1.0000 0.1304194383
H   H41       1.0  0.65840  0.46550  0.31100  1.0000 0.1304194383
H   H42       1.0  0.80710  0.34160  0.31100  1.0000 0.1304194383
H   H43       1.0  0.12950  0.50240  0.22400  1.0000 0.1304194383
H   H44       1.0  0.49760  0.62710  0.22400  1.0000 0.1304194383
H   H45       1.0  0.37290  0.87050  0.22400  1.0000 0.1304194383
H   H46       1.0  0.87050  0.49760  0.22400  1.0000 0.1304194383
H   H47       1.0  0.50240  0.37290  0.22400  1.0000 0.1304194383
H   H48       1.0  0.62710  0.12950  0.22400  1.0000 0.1304194383
H   H49       1.0  0.50240  0.12950  0.77600  1.0000 0.1304194383
H   H50       1.0  0.62710  0.49760  0.77600  1.0000 0.1304194383
H   H51       1.0  0.87050  0.37290  0.77600  1.0000 0.1304194383
H   H52       1.0  0.49760  0.87050  0.77600  1.0000 0.1304194383
H   H53       1.0  0.37290  0.50240  0.77600  1.0000 0.1304194383
H   H54       1.0  0.12950  0.62710  0.77600  1.0000 0.1304194383
H   H55       1.0  0.87050  0.49760  0.77600  1.0000 0.1304194383
H   H56       1.0  0.50240  0.37290  0.77600  1.0000 0.1304194383
H   H57       1.0  0.62710  0.12950  0.77600  1.0000 0.1304194383
H   H58       1.0  0.12950  0.50240  0.77600  1.0000 0.1304194383
H   H59       1.0  0.49760  0.62710  0.77600  1.0000 0.1304194383
H   H60       1.0  0.37290  0.87050  0.77600  1.0000 0.1304194383
H   H61       1.0  0.49760  0.87050  0.22400  1.0000 0.1304194383
H   H62       1.0  0.37290  0.50240  0.22400  1.0000 0.1304194383
H   H63       1.0  0.12950  0.62710  0.22400  1.0000 0.1304194383
H   H64       1.0  0.50240  0.12950  0.22400  1.0000 0.1304194383
H   H65       1.0  0.62710  0.49760  0.22400  1.0000 0.1304194383
H   H66       1.0  0.87050  0.37290  0.22400  1.0000 0.1304194383
H   H67       1.0  0.04470  0.52235  0.29580  1.0000 0.1304194383
H   H68       1.0  0.47765  0.52235  0.29580  1.0000 0.1304194383
H   H69       1.0  0.47765  0.95530  0.29580  1.0000 0.1304194383
H   H70       1.0  0.95530  0.47765  0.29580  1.0000 0.1304194383
H   H71       1.0  0.52235  0.47765  0.29580  1.0000 0.1304194383
H   H72       1.0  0.52235  0.04470  0.29580  1.0000 0.1304194383
H   H73       1.0  0.52235  0.04470  0.70420  1.0000 0.1304194383
H   H74       1.0  0.52235  0.47765  0.70420  1.0000 0.1304194383
H   H75       1.0  0.95530  0.47765  0.70420  1.0000 0.1304194383
H   H76       1.0  0.47765  0.95530  0.70420  1.0000 0.1304194383
H   H77       1.0  0.47765  0.52235  0.70420  1.0000 0.1304194383
H   H78       1.0  0.04470  0.52235  0.70420  1.0000 0.1304194383
C   C1        1.0  0.04040  0.52020  0.17230  1.0000 0.1521667302
C   C2        1.0  0.47980  0.52020  0.17230  1.0000 0.1521667302
C   C3        1.0  0.47980  0.95960  0.17230  1.0000 0.1521667302
C   C4        1.0  0.95960  0.47980  0.17230  1.0000 0.1521667302
C   C5        1.0  0.52020  0.47980  0.17230  1.0000 0.1521667302
C   C6        1.0  0.52020  0.04040  0.17230  1.0000 0.1521667302
C   C7        1.0  0.52020  0.04040  0.82770  1.0000 0.1521667302
C   C8        1.0  0.52020  0.47980  0.82770  1.0000 0.1521667302
C   C9        1.0  0.95960  0.47980  0.82770  1.0000 0.1521667302
C   C10       1.0  0.47980  0.95960  0.82770  1.0000 0.1521667302
C   C11       1.0  0.47980  0.52020  0.82770  1.0000 0.1521667302
C   C12       1.0  0.04040  0.52020  0.82770  1.0000 0.1521667302
C   C13       1.0  0.08810  0.54405  0.14230  1.0000 -0.0798679002
C   C14       1.0  0.45595  0.54405  0.14230  1.0000 -0.0798679002
C   C15       1.0  0.45595  0.91190  0.14230  1.0000 -0.0798679002
C   C16       1.0  0.91190  0.45595  0.14230  1.0000 -0.0798679002
C   C17       1.0  0.54405  0.45595  0.14230  1.0000 -0.0798679002
C   C18       1.0  0.54405  0.08810  0.14230  1.0000 -0.0798679002
C   C19       1.0  0.54405  0.08810  0.85770  1.0000 -0.0798679002
C   C20       1.0  0.54405  0.45595  0.85770  1.0000 -0.0798679002
C   C21       1.0  0.91190  0.45595  0.85770  1.0000 -0.0798679002
C   C22       1.0  0.45595  0.91190  0.85770  1.0000 -0.0798679002
C   C23       1.0  0.45595  0.54405  0.85770  1.0000 -0.0798679002
C   C24       1.0  0.08810  0.54405  0.85770  1.0000 -0.0798679002
C   C25       1.0  0.23570  0.61785  0.38930  1.0000 0.6095420604
C   C26       1.0  0.38215  0.61785  0.38930  1.0000 0.6095420604
C   C27       1.0  0.38215  0.76430  0.38930  1.0000 0.6095420604
C   C28       1.0  0.76430  0.38215  0.38930  1.0000 0.6095420604
C   C29       1.0  0.61785  0.38215  0.38930  1.0000 0.6095420604
C   C30       1.0  0.61785  0.23570  0.38930  1.0000 0.6095420604
C   C31       1.0  0.61785  0.23570  0.61070  1.0000 0.6095420604
C   C32       1.0  0.61785  0.38215  0.61070  1.0000 0.6095420604
C   C33       1.0  0.76430  0.38215  0.61070  1.0000 0.6095420604
C   C34       1.0  0.38215  0.76430  0.61070  1.0000 0.6095420604
C   C35       1.0  0.38215  0.61785  0.61070  1.0000 0.6095420604
C   C36       1.0  0.23570  0.61785  0.61070  1.0000 0.6095420604
C   C37       1.0  0.10260  0.55130  0.06520  1.0000 0.1821741448
C   C38       1.0  0.44870  0.55130  0.06520  1.0000 0.1821741448
C   C39       1.0  0.44870  0.89740  0.06520  1.0000 0.1821741448
C   C40       1.0  0.89740  0.44870  0.06520  1.0000 0.1821741448
C   C41       1.0  0.55130  0.44870  0.06520  1.0000 0.1821741448
C   C42       1.0  0.55130  0.10260  0.06520  1.0000 0.1821741448
C   C43       1.0  0.55130  0.10260  0.93480  1.0000 0.1821741448
C   C44       1.0  0.55130  0.44870  0.93480  1.0000 0.1821741448
C   C45       1.0  0.89740  0.44870  0.93480  1.0000 0.1821741448
C   C46       1.0  0.44870  0.89740  0.93480  1.0000 0.1821741448
C   C47       1.0  0.44870  0.55130  0.93480  1.0000 0.1821741448
C   C48       1.0  0.10260  0.55130  0.93480  1.0000 0.1821741448
C   C49       1.0  0.19831  0.59915  0.32480  1.0000 -0.0356445302
C   C50       1.0  0.40085  0.59915  0.32480  1.0000 -0.0356445302
C   C51       1.0  0.40085  0.80169  0.32480  1.0000 -0.0342733041
C   C52       1.0  0.80169  0.40085  0.32480  1.0000 -0.0342733041
C   C53       1.0  0.59915  0.40085  0.32480  1.0000 -0.0342733041
C   C54       1.0  0.59915  0.19831  0.32480  1.0000 -0.0342733041
C   C55       1.0  0.59915  0.19831  0.67520  1.0000 -0.0342733041
C   C56       1.0  0.59915  0.40085  0.67520  1.0000 -0.0342733041
C   C57       1.0  0.80169  0.40085  0.67520  1.0000 -0.0342733041
C   C58       1.0  0.40085  0.80169  0.67520  1.0000 -0.0342733041
C   C59       1.0  0.40085  0.59915  0.67520  1.0000 -0.0342733041
C   C60       1.0  0.19831  0.59915  0.67520  1.0000 -0.0342733041
C   C61       1.0  0.12700  0.56350  0.20830  1.0000 0.0802537257
C   C62       1.0  0.43650  0.56350  0.20830  1.0000 0.0802537257
C   C63       1.0  0.43650  0.87300  0.20830  1.0000 0.0802537257
C   C64       1.0  0.87300  0.43650  0.20830  1.0000 0.0802537257
C   C65       1.0  0.56350  0.43650  0.20830  1.0000 0.0802537257
C   C66       1.0  0.56350  0.12700  0.20830  1.0000 0.0802537257
C   C67       1.0  0.56350  0.12700  0.79170  1.0000 0.0802537257
C   C68       1.0  0.56350  0.43650  0.79170  1.0000 0.0802537257
C   C69       1.0  0.87300  0.43650  0.79170  1.0000 0.0802537257
C   C70       1.0  0.43650  0.87300  0.79170  1.0000 0.0802537257
C   C71       1.0  0.43650  0.56350  0.79170  1.0000 0.0802537257
C   C72       1.0  0.12700  0.56350  0.79170  1.0000 0.0802537257
C   C73       1.0  0.15270  0.57635  0.03940  1.0000 -0.1872238941
C   C74       1.0  0.42365  0.57635  0.03940  1.0000 -0.1872238941
C   C75       1.0  0.42365  0.84730  0.03940  1.0000 -0.1872238941
C   C76       1.0  0.84730  0.42365  0.03940  1.0000 -0.1872238941
C   C77       1.0  0.57635  0.42365  0.03940  1.0000 -0.1872238941
C   C78       1.0  0.57635  0.15270  0.03940  1.0000 -0.1872238941
C   C79       1.0  0.57635  0.15270  0.96060  1.0000 -0.1872238941
C   C80       1.0  0.57635  0.42365  0.96060  1.0000 -0.1872238941
C   C81       1.0  0.84730  0.42365  0.96060  1.0000 -0.1872238941
C   C82       1.0  0.42365  0.84730  0.96060  1.0000 -0.1872238941
C   C83       1.0  0.42365  0.57635  0.96060  1.0000 -0.1872238941
C   C84       1.0  0.15270  0.57635  0.96060  1.0000 -0.1872238941
C   C85       1.0  0.17990  0.55344  0.29410  1.0000 -0.0798679002
C   C86       1.0  0.44656  0.62646  0.29410  1.0000 -0.0798679002
C   C87       1.0  0.37354  0.82010  0.29410  1.0000 -0.0798679002
C   C88       1.0  0.82010  0.44656  0.29410  1.0000 -0.0798679002
C   C89       1.0  0.55344  0.37354  0.29410  1.0000 -0.0798679002
C   C90       1.0  0.62646  0.17990  0.29410  1.0000 -0.0798679002
C   C91       1.0  0.55344  0.17990  0.70590  1.0000 -0.0798679002
C   C92       1.0  0.62646  0.44656  0.70590  1.0000 -0.0798679002
C   C93       1.0  0.82010  0.37354  0.70590  1.0000 -0.0798679002
C   C94       1.0  0.44656  0.82010  0.70590  1.0000 -0.0798679002
C   C95       1.0  0.37354  0.55344  0.70590  1.0000 -0.0798679002
C   C96       1.0  0.17990  0.62646  0.70590  1.0000 -0.0798679002
C   C97       1.0  0.82010  0.44656  0.70590  1.0000 -0.0798679002
C   C98       1.0  0.55344  0.37354  0.70590  1.0000 -0.0798679002
C   C99       1.0  0.62646  0.17990  0.70590  1.0000 -0.0798679002
C   C100      1.0  0.17990  0.55344  0.70590  1.0000 -0.0798679002
C   C101      1.0  0.44656  0.62646  0.70590  1.0000 -0.0798679002
C   C102      1.0  0.37354  0.82010  0.70590  1.0000 -0.0798679002
C   C103      1.0  0.44656  0.82010  0.29410  1.0000 -0.0798679002
C   C104      1.0  0.37354  0.55344  0.29410  1.0000 -0.0798679002
C   C105      1.0  0.17990  0.62646  0.29410  1.0000 -0.0798679002
C   C106      1.0  0.55344  0.17990  0.29410  1.0000 -0.0798679002
C   C107      1.0  0.62646  0.44656  0.29410  1.0000 -0.0798679002
C   C108      1.0  0.82010  0.37354  0.29410  1.0000 -0.0798679002
C   C109      1.0  0.14330  0.53460  0.23960  1.0000 -0.1440251422
C   C110      1.0  0.46540  0.60870  0.23960  1.0000 -0.1440251422
C   C111      1.0  0.39130  0.85670  0.23960  1.0000 -0.1440251422
C   C112      1.0  0.85670  0.46540  0.23960  1.0000 -0.1440251422
C   C113      1.0  0.53460  0.39130  0.23960  1.0000 -0.1440251422
C   C114      1.0  0.60870  0.14330  0.23960  1.0000 -0.1440251422
C   C115      1.0  0.53460  0.14330  0.76040  1.0000 -0.1440251422
C   C116      1.0  0.60870  0.46540  0.76040  1.0000 -0.1440251422
C   C117      1.0  0.85670  0.39130  0.76040  1.0000 -0.1440251422
C   C118      1.0  0.46540  0.85670  0.76040  1.0000 -0.1440251422
C   C119      1.0  0.39130  0.53460  0.76040  1.0000 -0.1440251422
C   C120      1.0  0.14330  0.60870  0.76040  1.0000 -0.1440251422
C   C121      1.0  0.85670  0.46540  0.76040  1.0000 -0.1440251422
C   C122      1.0  0.53460  0.39130  0.76040  1.0000 -0.1440251422
C   C123      1.0  0.60870  0.14330  0.76040  1.0000 -0.1440251422
C   C124      1.0  0.14330  0.53460  0.76040  1.0000 -0.1440251422
C   C125      1.0  0.46540  0.60870  0.76040  1.0000 -0.1440251422
C   C126      1.0  0.39130  0.85670  0.76040  1.0000 -0.1440251422
C   C127      1.0  0.46540  0.85670  0.23960  1.0000 -0.1440251422
C   C128      1.0  0.39130  0.53460  0.23960  1.0000 -0.1440251422
C   C129      1.0  0.14330  0.60870  0.23960  1.0000 -0.1440251422
C   C130      1.0  0.53460  0.14330  0.23960  1.0000 -0.1440251422
C   C131      1.0  0.60870  0.46540  0.23960  1.0000 -0.1440251422
C   C132      1.0  0.85670  0.39130  0.23960  1.0000 -0.1440251422
C   C133      1.0  0.02490  0.51245  0.25130  1.0000 -0.2032179673
C   C134      1.0  0.48755  0.51245  0.25130  1.0000 -0.2032179673
C   C135      1.0  0.48755  0.97510  0.25130  1.0000 -0.2032179673
C   C136      1.0  0.97510  0.48755  0.25130  1.0000 -0.2032179673
C   C137      1.0  0.51245  0.48755  0.25130  1.0000 -0.2032179673
C   C138      1.0  0.51245  0.02490  0.25130  1.0000 -0.2032179673
C   C139      1.0  0.51245  0.02490  0.74870  1.0000 -0.2032179673
C   C140      1.0  0.51245  0.48755  0.74870  1.0000 -0.2032179673
C   C141      1.0  0.97510  0.48755  0.74870  1.0000 -0.2032179673
C   C142      1.0  0.48755  0.97510  0.74870  1.0000 -0.2032179673
C   C143      1.0  0.48755  0.51245  0.74870  1.0000 -0.2032179673
C   C144      1.0  0.02490  0.51245  0.74870  1.0000 -0.2032179673
N   N1        1.0  0.00000  0.50000  0.11840  1.0000 -0.3009250675
N   N2        1.0  0.50000  0.50000  0.11840  1.0000 -0.3009250675
N   N3        1.0  0.50000  0.00000  0.11840  1.0000 -0.3009250675
N   N4        1.0  0.50000  0.00000  0.88160  1.0000 -0.3009250675
N   N5        1.0  0.50000  0.50000  0.88160  1.0000 -0.3009250675
N   N6        1.0  0.00000  0.50000  0.88160  1.0000 -0.3009250675
N   N7        1.0  0.07400  0.53700  0.00000  1.0000 -0.3931336964
N   N8        1.0  0.46300  0.53700  0.00000  1.0000 -0.3931336964
N   N9        1.0  0.46300  0.92600  0.00000  1.0000 -0.3931336964
N   N10       1.0  0.92600  0.46300  0.00000  1.0000 -0.3931336964
N   N11       1.0  0.53700  0.46300  0.00000  1.0000 -0.3931336964
N   N12       1.0  0.53700  0.07400  0.00000  1.0000 -0.3931336964
O   O1        1.0  0.24971  0.59004  0.41340  1.0000 -0.5843852524
O   O2        1.0  0.40996  0.65967  0.41340  1.0000 -0.5857845758
O   O3        1.0  0.34033  0.75029  0.41340  1.0000 -0.5857845758
O   O4        1.0  0.75029  0.40996  0.41340  1.0000 -0.5843852524
O   O5        1.0  0.59004  0.34033  0.41340  1.0000 -0.5857845758
O   O6        1.0  0.65967  0.24971  0.41340  1.0000 -0.5843852524
O   O7        1.0  0.59004  0.24971  0.58660  1.0000 -0.5843852524
O   O8        1.0  0.65967  0.40996  0.58660  1.0000 -0.5843852524
O   O9        1.0  0.75029  0.34033  0.58660  1.0000 -0.5843852524
O   O10       1.0  0.40996  0.75029  0.58660  1.0000 -0.5857845758
O   O11       1.0  0.34033  0.59004  0.58660  1.0000 -0.5857845758
O   O12       1.0  0.24971  0.65967  0.58660  1.0000 -0.5843852524
O   O13       1.0  0.75029  0.40996  0.58660  1.0000 -0.5843852524
O   O14       1.0  0.59004  0.34033  0.58660  1.0000 -0.5843852524
O   O15       1.0  0.65967  0.24971  0.58660  1.0000 -0.5843852524
O   O16       1.0  0.24971  0.59004  0.58660  1.0000 -0.5843852524
O   O17       1.0  0.40996  0.65967  0.58660  1.0000 -0.5843852524
O   O18       1.0  0.34033  0.75029  0.58660  1.0000 -0.5857845758
O   O19       1.0  0.40996  0.75029  0.41340  1.0000 -0.5857845758
O   O20       1.0  0.34033  0.59004  0.41340  1.0000 -0.5857845758
O   O21       1.0  0.24971  0.65967  0.41340  1.0000 -0.5843852524
O   O22       1.0  0.59004  0.24971  0.41340  1.0000 -0.5843852524
O   O23       1.0  0.65967  0.40996  0.41340  1.0000 -0.5843852524
O   O24       1.0  0.75029  0.34033  0.41340  1.0000 -0.5843852524
O   O25       1.0  0.33333  0.66667  0.50000  1.0000 -1.1509058838
O   O26       1.0  0.66667  0.33333  0.50000  1.0000 -1.1598967676
