# DDEC6 charges by PACMAN v1.1 (https://github.com/mtap-research/PACMAN-charge/)
data_2016[Mg][acs]3[ASR]2
_chemical_formula_sum              "Mg18 H72 C144 O72"
_cell_length_a       22.8104
_cell_length_b       22.8104
_cell_length_c       16.8099
_cell_angle_alpha    90
_cell_angle_beta     90
_cell_angle_gamma    120

_symmetry_space_group_name_H-M    "P 1"
_symmetry_Int_Tables_number       1

loop_
  _symmetry_equiv_pos_as_xyz
  'x, y, z'

loop_
  _atom_site_type_symbol
  _atom_site_label
  _atom_site_symmetry_multiplicity
  _atom_site_fract_x
  _atom_site_fract_y
  _atom_site_fract_z
  _atom_site_occupancy
  _atom_site_charge
Mg  Mg1       1.0  0.73482  0.96172  0.70670  1.0000 1.322010579
Mg  Mg2       1.0  0.03828  0.77310  0.70670  1.0000 1.322010579
Mg  Mg3       1.0  0.22690  0.26518  0.70670  1.0000 1.322010579
Mg  Mg4       1.0  0.03828  0.26518  0.20670  1.0000 1.322010579
Mg  Mg5       1.0  0.22690  0.96172  0.20670  1.0000 1.322010579
Mg  Mg6       1.0  0.73482  0.77310  0.20670  1.0000 1.322010579
Mg  Mg7       1.0  0.56031  0.93167  0.73232  1.0000 1.3652715705
Mg  Mg8       1.0  0.06833  0.62864  0.73232  1.0000 1.3652715705
Mg  Mg9       1.0  0.37136  0.43969  0.73232  1.0000 1.3648167871
Mg  Mg10      1.0  0.06833  0.43969  0.23232  1.0000 1.3652715705
Mg  Mg11      1.0  0.37136  0.93167  0.23232  1.0000 1.3652715705
Mg  Mg12      1.0  0.56031  0.62864  0.23232  1.0000 1.3652715705
Mg  Mg13      1.0  0.70616  0.10765  0.71200  1.0000 1.3478349469
Mg  Mg14      1.0  0.89235  0.59851  0.71200  1.0000 1.3478349469
Mg  Mg15      1.0  0.40149  0.29384  0.71200  1.0000 1.3478349469
Mg  Mg16      1.0  0.89235  0.29384  0.21200  1.0000 1.3478349469
Mg  Mg17      1.0  0.40149  0.10765  0.21200  1.0000 1.3478349469
Mg  Mg18      1.0  0.70616  0.59851  0.21200  1.0000 1.3478349469
H   H1        1.0  0.51520  0.76130  0.06020  1.0000 0.112234256
H   H2        1.0  0.23870  0.75390  0.06020  1.0000 0.112234256
H   H3        1.0  0.24610  0.48480  0.06020  1.0000 0.112234256
H   H4        1.0  0.23870  0.48480  0.56020  1.0000 0.112234256
H   H5        1.0  0.24610  0.76130  0.56020  1.0000 0.112234256
H   H6        1.0  0.51520  0.75390  0.56020  1.0000 0.112234256
H   H7        1.0  0.52810  0.82310  0.94370  1.0000 0.112234256
H   H8        1.0  0.17690  0.70500  0.94370  1.0000 0.112234256
H   H9        1.0  0.29500  0.47190  0.94370  1.0000 0.1180482139
H   H10       1.0  0.17690  0.47190  0.44370  1.0000 0.1180482139
H   H11       1.0  0.29500  0.82310  0.44370  1.0000 0.112234256
H   H12       1.0  0.52810  0.70500  0.44370  1.0000 0.112234256
H   H13       1.0  0.71370  0.85100  0.91860  1.0000 0.1180482139
H   H14       1.0  0.14900  0.86270  0.91860  1.0000 0.1180482139
H   H15       1.0  0.13730  0.28630  0.91860  1.0000 0.1180482139
H   H16       1.0  0.14900  0.28630  0.41860  1.0000 0.1180482139
H   H17       1.0  0.13730  0.85100  0.41860  1.0000 0.1180482139
H   H18       1.0  0.71370  0.86270  0.41860  1.0000 0.1180482139
H   H19       1.0  0.69760  0.77970  0.02300  1.0000 0.112234256
H   H20       1.0  0.22030  0.91790  0.02300  1.0000 0.112234256
H   H21       1.0  0.08210  0.30240  0.02300  1.0000 0.112234256
H   H22       1.0  0.22030  0.30240  0.52300  1.0000 0.112234256
H   H23       1.0  0.08210  0.77970  0.52300  1.0000 0.112234256
H   H24       1.0  0.69760  0.91790  0.52300  1.0000 0.112234256
H   H25       1.0  0.79700  0.17690  0.51020  1.0000 0.1180482139
H   H26       1.0  0.82310  0.62010  0.51020  1.0000 0.1180482139
H   H27       1.0  0.37990  0.20300  0.51020  1.0000 0.1180482139
H   H28       1.0  0.82310  0.20300  0.01020  1.0000 0.1180482139
H   H29       1.0  0.37990  0.17690  0.01020  1.0000 0.1180482139
H   H30       1.0  0.79700  0.62010  0.01020  1.0000 0.1180482139
H   H31       1.0  0.85660  0.22640  0.39330  1.0000 0.1180482139
H   H32       1.0  0.77360  0.63020  0.39330  1.0000 0.1180482139
H   H33       1.0  0.36980  0.14340  0.39330  1.0000 0.1180482139
H   H34       1.0  0.77360  0.14340  0.89330  1.0000 0.1180482139
H   H35       1.0  0.36980  0.22640  0.89330  1.0000 0.1180482139
H   H36       1.0  0.85660  0.63020  0.89330  1.0000 0.1180482139
H   H37       1.0  0.90830  0.08680  0.37360  1.0000 0.1180482139
H   H38       1.0  0.91320  0.82150  0.37360  1.0000 0.1180482139
H   H39       1.0  0.17850  0.09170  0.37360  1.0000 0.1180482139
H   H40       1.0  0.91320  0.09170  0.87360  1.0000 0.1180482139
H   H41       1.0  0.17850  0.08680  0.87360  1.0000 0.1180482139
H   H42       1.0  0.90830  0.82150  0.87360  1.0000 0.1180482139
H   H43       1.0  0.85240  0.03630  0.49150  1.0000 0.1180482139
H   H44       1.0  0.96370  0.81610  0.49150  1.0000 0.1180482139
H   H45       1.0  0.18390  0.14760  0.49150  1.0000 0.1180482139
H   H46       1.0  0.96370  0.14760  0.99150  1.0000 0.1180482139
H   H47       1.0  0.18390  0.03630  0.99150  1.0000 0.1180482139
H   H48       1.0  0.85240  0.81610  0.99150  1.0000 0.1180482139
H   H49       1.0  0.59790  0.15380  0.53510  1.0000 0.112234256
H   H50       1.0  0.84620  0.44410  0.53510  1.0000 0.112234256
H   H51       1.0  0.55590  0.40210  0.53510  1.0000 0.112234256
H   H52       1.0  0.84620  0.40210  0.03510  1.0000 0.112234256
H   H53       1.0  0.55590  0.15380  0.03510  1.0000 0.112234256
H   H54       1.0  0.59790  0.44410  0.03510  1.0000 0.112234256
H   H55       1.0  0.54220  0.16440  0.42360  1.0000 0.112234256
H   H56       1.0  0.83560  0.37780  0.42360  1.0000 0.1180482139
H   H57       1.0  0.62220  0.45780  0.42360  1.0000 0.112234256
H   H58       1.0  0.83560  0.45780  0.92360  1.0000 0.112234256
H   H59       1.0  0.62220  0.16440  0.92360  1.0000 0.1180482139
H   H60       1.0  0.54220  0.37780  0.92360  1.0000 0.112234256
H   H61       1.0  0.41990  0.96370  0.41080  1.0000 0.112234256
H   H62       1.0  0.03630  0.45620  0.41080  1.0000 0.112234256
H   H63       1.0  0.54380  0.58010  0.41080  1.0000 0.112234256
H   H64       1.0  0.03630  0.58010  0.91080  1.0000 0.112234256
H   H65       1.0  0.54380  0.96370  0.91080  1.0000 0.112234256
H   H66       1.0  0.41990  0.45620  0.91080  1.0000 0.112234256
H   H67       1.0  0.47230  0.95040  0.52320  1.0000 0.112234256
H   H68       1.0  0.04960  0.52190  0.52320  1.0000 0.112234256
H   H69       1.0  0.47810  0.52770  0.52320  1.0000 0.112234256
H   H70       1.0  0.04960  0.52770  0.02320  1.0000 0.112234256
H   H71       1.0  0.47810  0.95040  0.02320  1.0000 0.112234256
H   H72       1.0  0.47230  0.52190  0.02320  1.0000 0.112234256
C   C1        1.0  0.60450  0.76170  0.05320  1.0000 -0.0425969645
C   C2        1.0  0.23830  0.84280  0.05320  1.0000 -0.0425969645
C   C3        1.0  0.15720  0.39550  0.05320  1.0000 -0.0425969645
C   C4        1.0  0.23830  0.39550  0.55320  1.0000 -0.0425969645
C   C5        1.0  0.15720  0.76170  0.55320  1.0000 -0.0425969645
C   C6        1.0  0.60450  0.84280  0.55320  1.0000 -0.0425969645
C   C7        1.0  0.55430  0.77680  0.02970  1.0000 -0.0908110473
C   C8        1.0  0.22320  0.77750  0.02970  1.0000 -0.0908110473
C   C9        1.0  0.22250  0.44570  0.02970  1.0000 -0.0908110473
C   C10       1.0  0.22320  0.44570  0.52970  1.0000 -0.0908110473
C   C11       1.0  0.22250  0.77680  0.52970  1.0000 -0.0908110473
C   C12       1.0  0.55430  0.77750  0.52970  1.0000 -0.0908110473
C   C13       1.0  0.56250  0.81540  0.96050  1.0000 -0.112741914
C   C14       1.0  0.18460  0.74710  0.96050  1.0000 -0.112741914
C   C15       1.0  0.25290  0.43750  0.96050  1.0000 -0.1202235213
C   C16       1.0  0.18460  0.43750  0.46050  1.0000 -0.1202235213
C   C17       1.0  0.25290  0.81540  0.46050  1.0000 -0.112741914
C   C18       1.0  0.56250  0.74710  0.46050  1.0000 -0.1202235213
C   C19       1.0  0.62230  0.84150  0.91820  1.0000 -0.0253177747
C   C20       1.0  0.15850  0.78080  0.91820  1.0000 -0.0253177747
C   C21       1.0  0.21920  0.37770  0.91820  1.0000 -0.0243868151
C   C22       1.0  0.15850  0.37770  0.41820  1.0000 -0.0243868151
C   C23       1.0  0.21920  0.84150  0.41820  1.0000 -0.0243868151
C   C24       1.0  0.62230  0.78080  0.41820  1.0000 -0.0243868151
C   C25       1.0  0.67220  0.83020  0.94480  1.0000 -0.100700904
C   C26       1.0  0.16980  0.84200  0.94480  1.0000 -0.100700904
C   C27       1.0  0.15800  0.32780  0.94480  1.0000 -0.100700904
C   C28       1.0  0.16980  0.32780  0.44480  1.0000 -0.100700904
C   C29       1.0  0.15800  0.83020  0.44480  1.0000 -0.100700904
C   C30       1.0  0.67220  0.84200  0.44480  1.0000 -0.100700904
C   C31       1.0  0.66360  0.78910  0.00920  1.0000 -0.112741914
C   C32       1.0  0.21090  0.87450  0.00920  1.0000 -0.112741914
C   C33       1.0  0.12550  0.33640  0.00920  1.0000 -0.112741914
C   C34       1.0  0.21090  0.33640  0.50920  1.0000 -0.112741914
C   C35       1.0  0.12550  0.78910  0.50920  1.0000 -0.112741914
C   C36       1.0  0.66360  0.87450  0.50920  1.0000 -0.112741914
C   C37       1.0  0.59400  0.71880  0.12400  1.0000 0.5900672995
C   C38       1.0  0.28120  0.87520  0.12400  1.0000 0.5900672995
C   C39       1.0  0.12480  0.40600  0.12400  1.0000 0.5900672995
C   C40       1.0  0.28120  0.40600  0.62400  1.0000 0.5900672995
C   C41       1.0  0.12480  0.71880  0.62400  1.0000 0.5900672995
C   C42       1.0  0.59400  0.87520  0.62400  1.0000 0.5900672995
C   C43       1.0  0.63090  0.87950  0.84050  1.0000 0.6222527446
C   C44       1.0  0.12050  0.75140  0.84050  1.0000 0.6222527446
C   C45       1.0  0.24860  0.36910  0.84050  1.0000 0.6222527446
C   C46       1.0  0.12050  0.36910  0.34050  1.0000 0.6222527446
C   C47       1.0  0.24860  0.87950  0.34050  1.0000 0.6222527446
C   C48       1.0  0.63090  0.75140  0.34050  1.0000 0.6222527446
C   C49       1.0  0.81680  0.09830  0.51120  1.0000 -0.0806208821
C   C50       1.0  0.90170  0.71850  0.51120  1.0000 -0.0806208821
C   C51       1.0  0.28150  0.18320  0.51120  1.0000 -0.0806208821
C   C52       1.0  0.90170  0.18320  0.01120  1.0000 -0.0806208821
C   C53       1.0  0.28150  0.09830  0.01120  1.0000 -0.0806208821
C   C54       1.0  0.81680  0.71850  0.01120  1.0000 -0.0806208821
C   C55       1.0  0.81940  0.15820  0.48330  1.0000 -0.0806208821
C   C56       1.0  0.84180  0.66120  0.48330  1.0000 -0.0806208821
C   C57       1.0  0.33880  0.18060  0.48330  1.0000 -0.0806208821
C   C58       1.0  0.84180  0.18060  0.98330  1.0000 -0.0806208821
C   C59       1.0  0.33880  0.15820  0.98330  1.0000 -0.0806208821
C   C60       1.0  0.81940  0.66120  0.98330  1.0000 -0.0806208821
C   C61       1.0  0.85680  0.18870  0.41410  1.0000 -0.1202235213
C   C62       1.0  0.81130  0.66810  0.41410  1.0000 -0.1202235213
C   C63       1.0  0.33190  0.14320  0.41410  1.0000 -0.1202235213
C   C64       1.0  0.81130  0.14320  0.91410  1.0000 -0.1202235213
C   C65       1.0  0.33190  0.18870  0.91410  1.0000 -0.1202235213
C   C66       1.0  0.85680  0.66810  0.91410  1.0000 -0.1202235213
C   C67       1.0  0.89230  0.16510  0.37800  1.0000 -0.0101315516
C   C68       1.0  0.83490  0.72720  0.37800  1.0000 -0.0101315516
C   C69       1.0  0.27280  0.10770  0.37800  1.0000 -0.0101315516
C   C70       1.0  0.83490  0.10770  0.87800  1.0000 -0.0101315516
C   C71       1.0  0.27280  0.16510  0.87800  1.0000 -0.0101315516
C   C72       1.0  0.89230  0.72720  0.87800  1.0000 -0.0101315516
C   C73       1.0  0.88760  0.10610  0.40290  1.0000 -0.112741914
C   C74       1.0  0.89390  0.78150  0.40290  1.0000 -0.112741914
C   C75       1.0  0.21850  0.11240  0.40290  1.0000 -0.112741914
C   C76       1.0  0.89390  0.11240  0.90290  1.0000 -0.112741914
C   C77       1.0  0.21850  0.10610  0.90290  1.0000 -0.112741914
C   C78       1.0  0.88760  0.78150  0.90290  1.0000 -0.112741914
C   C79       1.0  0.85190  0.07430  0.47220  1.0000 -0.0806208821
C   C80       1.0  0.92570  0.77760  0.47220  1.0000 -0.0806208821
C   C81       1.0  0.22240  0.14810  0.47220  1.0000 -0.0806208821
C   C82       1.0  0.92570  0.14810  0.97220  1.0000 -0.0806208821
C   C83       1.0  0.22240  0.07430  0.97220  1.0000 -0.0806208821
C   C84       1.0  0.85190  0.77760  0.97220  1.0000 -0.0806208821
C   C85       1.0  0.77610  0.06920  0.58240  1.0000 0.6222527446
C   C86       1.0  0.93080  0.70690  0.58240  1.0000 0.6222527446
C   C87       1.0  0.29310  0.22390  0.58240  1.0000 0.6222527446
C   C88       1.0  0.93080  0.22390  0.08240  1.0000 0.6222527446
C   C89       1.0  0.29310  0.06920  0.08240  1.0000 0.6222527446
C   C90       1.0  0.77610  0.70690  0.08240  1.0000 0.6222527446
C   C91       1.0  0.94150  0.19920  0.30140  1.0000 0.5900672995
C   C92       1.0  0.80080  0.74230  0.30140  1.0000 0.5900672995
C   C93       1.0  0.25770  0.05850  0.30140  1.0000 0.5900672995
C   C94       1.0  0.80080  0.05850  0.80140  1.0000 0.5900672995
C   C95       1.0  0.25770  0.19920  0.80140  1.0000 0.5900672995
C   C96       1.0  0.94150  0.74230  0.80140  1.0000 0.5900672995
C   C97       1.0  0.54660  0.04880  0.54060  1.0000 -0.1202235213
C   C98       1.0  0.95120  0.49780  0.54060  1.0000 -0.1202235213
C   C99       1.0  0.50220  0.45340  0.54060  1.0000 -0.1202235213
C   C100      1.0  0.95120  0.45340  0.04060  1.0000 -0.1202235213
C   C101      1.0  0.50220  0.04880  0.04060  1.0000 -0.1202235213
C   C102      1.0  0.54660  0.49780  0.04060  1.0000 -0.1202235213
C   C103      1.0  0.56450  0.11530  0.50990  1.0000 -0.0806208821
C   C104      1.0  0.88470  0.44920  0.50990  1.0000 -0.0806208821
C   C105      1.0  0.55080  0.43550  0.50990  1.0000 -0.0908110473
C   C106      1.0  0.88470  0.43550  0.00990  1.0000 -0.0806208821
C   C107      1.0  0.55080  0.11530  0.00990  1.0000 -0.0806208821
C   C108      1.0  0.56450  0.44920  0.00990  1.0000 -0.0908110473
C   C109      1.0  0.53190  0.12190  0.44250  1.0000 -0.1202235213
C   C110      1.0  0.87810  0.41000  0.44250  1.0000 -0.112741914
C   C111      1.0  0.59000  0.46810  0.44250  1.0000 -0.112741914
C   C112      1.0  0.87810  0.46810  0.94250  1.0000 -0.112741914
C   C113      1.0  0.59000  0.12190  0.94250  1.0000 -0.112741914
C   C114      1.0  0.53190  0.41000  0.94250  1.0000 -0.112741914
C   C115      1.0  0.48320  0.06230  0.40460  1.0000 -0.0101315516
C   C116      1.0  0.93770  0.42090  0.40460  1.0000 -0.0101315516
C   C117      1.0  0.57910  0.51680  0.40460  1.0000 -0.0101315516
C   C118      1.0  0.93770  0.51680  0.90460  1.0000 -0.0101315516
C   C119      1.0  0.57910  0.06230  0.90460  1.0000 -0.0101315516
C   C120      1.0  0.48320  0.42090  0.90460  1.0000 -0.0101315516
C   C121      1.0  0.45720  0.00050  0.43380  1.0000 -0.1202235213
C   C122      1.0  0.99950  0.45670  0.43380  1.0000 -0.1202235213
C   C123      1.0  0.54330  0.54280  0.43380  1.0000 -0.1202235213
C   C124      1.0  0.99950  0.54280  0.93380  1.0000 -0.1202235213
C   C125      1.0  0.54330  0.00050  0.93380  1.0000 -0.1202235213
C   C126      1.0  0.45720  0.45670  0.93380  1.0000 -0.1202235213
C   C127      1.0  0.48920  0.99350  0.50190  1.0000 -0.0806208821
C   C128      1.0  0.00650  0.49570  0.50190  1.0000 -0.0806208821
C   C129      1.0  0.50430  0.51080  0.50190  1.0000 -0.0806208821
C   C130      1.0  0.00650  0.51080  0.00190  1.0000 -0.0806208821
C   C131      1.0  0.50430  0.99350  0.00190  1.0000 -0.0806208821
C   C132      1.0  0.48920  0.49570  0.00190  1.0000 -0.0806208821
C   C133      1.0  0.57970  0.04090  0.60890  1.0000 0.6091118278
C   C134      1.0  0.95910  0.53880  0.60890  1.0000 0.6091118278
C   C135      1.0  0.46120  0.42030  0.60890  1.0000 0.6091118278
C   C136      1.0  0.95910  0.42030  0.10890  1.0000 0.6091118278
C   C137      1.0  0.46120  0.04090  0.10890  1.0000 0.6091118278
C   C138      1.0  0.57970  0.53880  0.10890  1.0000 0.6091118278
C   C139      1.0  0.44570  0.07150  0.33060  1.0000 0.5967764777
C   C140      1.0  0.92850  0.37420  0.33060  1.0000 0.5967764777
C   C141      1.0  0.62580  0.55430  0.33060  1.0000 0.5967764777
C   C142      1.0  0.92850  0.55430  0.83060  1.0000 0.5967764777
C   C143      1.0  0.62580  0.07150  0.83060  1.0000 0.5967764777
C   C144      1.0  0.44570  0.37420  0.83060  1.0000 0.5967764777
O   O1        1.0  0.64360  0.71920  0.15530  1.0000 -0.6871462442
O   O2        1.0  0.28080  0.92440  0.15530  1.0000 -0.6871462442
O   O3        1.0  0.07560  0.35640  0.15530  1.0000 -0.6871462442
O   O4        1.0  0.28080  0.35640  0.65530  1.0000 -0.6871462442
O   O5        1.0  0.07560  0.71920  0.65530  1.0000 -0.6871462442
O   O6        1.0  0.64360  0.92440  0.65530  1.0000 -0.6871462442
O   O7        1.0  0.53420  0.68390  0.14930  1.0000 -0.5927150823
O   O8        1.0  0.31610  0.85030  0.14930  1.0000 -0.5927150823
O   O9        1.0  0.14970  0.46580  0.14930  1.0000 -0.5927150823
O   O10       1.0  0.31610  0.46580  0.64930  1.0000 -0.5927150823
O   O11       1.0  0.14970  0.68390  0.64930  1.0000 -0.5927150823
O   O12       1.0  0.53420  0.85030  0.64930  1.0000 -0.5927150823
O   O13       1.0  0.68610  0.90820  0.80850  1.0000 -0.5983873583
O   O14       1.0  0.09180  0.77790  0.80850  1.0000 -0.5983873583
O   O15       1.0  0.22210  0.31390  0.80850  1.0000 -0.5983873583
O   O16       1.0  0.09180  0.31390  0.30850  1.0000 -0.5983873583
O   O17       1.0  0.22210  0.90820  0.30850  1.0000 -0.5983873583
O   O18       1.0  0.68610  0.77790  0.30850  1.0000 -0.5983873583
O   O19       1.0  0.57750  0.88280  0.81790  1.0000 -0.7016512133
O   O20       1.0  0.11720  0.69470  0.81790  1.0000 -0.7016512133
O   O21       1.0  0.30530  0.42250  0.81790  1.0000 -0.7016512133
O   O22       1.0  0.11720  0.42250  0.31790  1.0000 -0.7016512133
O   O23       1.0  0.30530  0.88280  0.31790  1.0000 -0.7016512133
O   O24       1.0  0.57750  0.69470  0.31790  1.0000 -0.7016512133
O   O25       1.0  0.74730  0.09830  0.61470  1.0000 -0.6636697727
O   O26       1.0  0.90170  0.64900  0.61470  1.0000 -0.6636697727
O   O27       1.0  0.35100  0.25270  0.61470  1.0000 -0.6636697727
O   O28       1.0  0.90170  0.25270  0.11470  1.0000 -0.6636697727
O   O29       1.0  0.35100  0.09830  0.11470  1.0000 -0.666252283
O   O30       1.0  0.74730  0.64900  0.11470  1.0000 -0.6636697727
O   O31       1.0  0.78130  0.02100  0.60810  1.0000 -0.6077012
O   O32       1.0  0.97900  0.76030  0.60810  1.0000 -0.6077012
O   O33       1.0  0.23970  0.21870  0.60810  1.0000 -0.6077012
O   O34       1.0  0.97900  0.21870  0.10810  1.0000 -0.6077012
O   O35       1.0  0.23970  0.02100  0.10810  1.0000 -0.6077012
O   O36       1.0  0.78130  0.76030  0.10810  1.0000 -0.6077012
O   O37       1.0  0.97960  0.18230  0.28130  1.0000 -0.4808725892
O   O38       1.0  0.81770  0.79730  0.28130  1.0000 -0.4808725892
O   O39       1.0  0.20270  0.02040  0.28130  1.0000 -0.4808725892
O   O40       1.0  0.81770  0.02040  0.78130  1.0000 -0.4808725892
O   O41       1.0  0.20270  0.18230  0.78130  1.0000 -0.4808725892
O   O42       1.0  0.97960  0.79730  0.78130  1.0000 -0.4808725892
O   O43       1.0  0.94080  0.25150  0.27190  1.0000 -0.7163426457
O   O44       1.0  0.74850  0.68930  0.27190  1.0000 -0.7163426457
O   O45       1.0  0.31070  0.05920  0.27190  1.0000 -0.7163426457
O   O46       1.0  0.74850  0.05920  0.77190  1.0000 -0.7163426457
O   O47       1.0  0.31070  0.25150  0.77190  1.0000 -0.7163426457
O   O48       1.0  0.94080  0.68930  0.77190  1.0000 -0.7163426457
O   O49       1.0  0.62490  0.09150  0.64040  1.0000 -0.5983873583
O   O50       1.0  0.90850  0.53340  0.64040  1.0000 -0.5983873583
O   O51       1.0  0.46660  0.37510  0.64040  1.0000 -0.5983873583
O   O52       1.0  0.90850  0.37510  0.14040  1.0000 -0.5983873583
O   O53       1.0  0.46660  0.09150  0.14040  1.0000 -0.5983873583
O   O54       1.0  0.62490  0.53340  0.14040  1.0000 -0.5983873583
O   O55       1.0  0.55300  0.98200  0.63950  1.0000 -0.666252283
O   O56       1.0  0.01800  0.57100  0.63950  1.0000 -0.666252283
O   O57       1.0  0.42900  0.44700  0.63950  1.0000 -0.6636697727
O   O58       1.0  0.01800  0.44700  0.13950  1.0000 -0.666252283
O   O59       1.0  0.42900  0.98200  0.13950  1.0000 -0.666252283
O   O60       1.0  0.55300  0.57100  0.13950  1.0000 -0.666252283
O   O61       1.0  0.46060  0.12850  0.31120  1.0000 -0.5663347619
O   O62       1.0  0.87150  0.33210  0.31120  1.0000 -0.5663347619
O   O63       1.0  0.66790  0.53940  0.31120  1.0000 -0.5663347619
O   O64       1.0  0.87150  0.53940  0.81120  1.0000 -0.5663347619
O   O65       1.0  0.66790  0.12850  0.81120  1.0000 -0.5663347619
O   O66       1.0  0.46060  0.33210  0.81120  1.0000 -0.5663347619
O   O67       1.0  0.40720  0.02060  0.29100  1.0000 -0.6636697727
O   O68       1.0  0.97940  0.38660  0.29100  1.0000 -0.6636697727
O   O69       1.0  0.61340  0.59280  0.29100  1.0000 -0.6636697727
O   O70       1.0  0.97940  0.59280  0.79100  1.0000 -0.6636697727
O   O71       1.0  0.61340  0.02060  0.79100  1.0000 -0.6636697727
O   O72       1.0  0.40720  0.38660  0.79100  1.0000 -0.6636697727
