# DDEC6 charges by PACMAN v1.1 (https://github.com/mtap-research/PACMAN-charge/)
data_2016[Sc][nan]3[ASR]8
_chemical_formula_sum              "Sc16 H96 C192 O96"
_cell_length_a       8.779
_cell_length_b       20.742
_cell_length_c       34.287
_cell_angle_alpha    90
_cell_angle_beta     90
_cell_angle_gamma    90

_symmetry_space_group_name_H-M    "P 1"
_symmetry_Int_Tables_number       1

loop_
  _symmetry_equiv_pos_as_xyz
  'x, y, z'

loop_
  _atom_site_type_symbol
  _atom_site_label
  _atom_site_symmetry_multiplicity
  _atom_site_fract_x
  _atom_site_fract_y
  _atom_site_fract_z
  _atom_site_occupancy
  _atom_site_charge
Sc  Sc1       1.0  0.37500  0.37500  0.63601  1.0000 1.8382939019
Sc  Sc2       1.0  0.62500  0.62500  0.36399  1.0000 1.8382939019
Sc  Sc3       1.0  0.37500  0.37500  0.11399  1.0000 1.8382939019
Sc  Sc4       1.0  0.62500  0.62500  0.88601  1.0000 1.8382939019
Sc  Sc5       1.0  0.37500  0.87500  0.13601  1.0000 1.8382939019
Sc  Sc6       1.0  0.62500  0.12500  0.86399  1.0000 1.8382939019
Sc  Sc7       1.0  0.37500  0.87500  0.61399  1.0000 1.8382939019
Sc  Sc8       1.0  0.62500  0.12500  0.38601  1.0000 1.8382939019
Sc  Sc9       1.0  0.87500  0.37500  0.13601  1.0000 1.8382939019
Sc  Sc10      1.0  0.12500  0.62500  0.86399  1.0000 1.8382939019
Sc  Sc11      1.0  0.87500  0.37500  0.61399  1.0000 1.8382939019
Sc  Sc12      1.0  0.12500  0.62500  0.38601  1.0000 1.8382939019
Sc  Sc13      1.0  0.87500  0.87500  0.63601  1.0000 1.8382939019
Sc  Sc14      1.0  0.12500  0.12500  0.36399  1.0000 1.8382939019
Sc  Sc15      1.0  0.87500  0.87500  0.11399  1.0000 1.8382939019
Sc  Sc16      1.0  0.12500  0.12500  0.88601  1.0000 1.8382939019
H   H1        1.0  0.97311  0.27779  0.50689  1.0000 0.1199570561
H   H2        1.0  0.02689  0.72221  0.49311  1.0000 0.1199570561
H   H3        1.0  0.77689  0.47221  0.50689  1.0000 0.1199570561
H   H4        1.0  0.22311  0.52779  0.49311  1.0000 0.1199570561
H   H5        1.0  0.77689  0.27779  0.24311  1.0000 0.1199570561
H   H6        1.0  0.22311  0.72221  0.75689  1.0000 0.1199570561
H   H7        1.0  0.97311  0.47221  0.24311  1.0000 0.1199570561
H   H8        1.0  0.02689  0.52779  0.75689  1.0000 0.1199570561
H   H9        1.0  0.97311  0.77779  0.00689  1.0000 0.1199570561
H   H10       1.0  0.02689  0.22221  0.99311  1.0000 0.1199570561
H   H11       1.0  0.77689  0.97221  0.00689  1.0000 0.1199570561
H   H12       1.0  0.22311  0.02779  0.99311  1.0000 0.1199570561
H   H13       1.0  0.77689  0.77779  0.74311  1.0000 0.1199570561
H   H14       1.0  0.22311  0.22221  0.25689  1.0000 0.1199570561
H   H15       1.0  0.97311  0.97221  0.74311  1.0000 0.1199570561
H   H16       1.0  0.02689  0.02779  0.25689  1.0000 0.1199570561
H   H17       1.0  0.47311  0.27779  0.00689  1.0000 0.1199570561
H   H18       1.0  0.52689  0.72221  0.99311  1.0000 0.1199570561
H   H19       1.0  0.27689  0.47221  0.00689  1.0000 0.1199570561
H   H20       1.0  0.72311  0.52779  0.99311  1.0000 0.1199570561
H   H21       1.0  0.27689  0.27779  0.74311  1.0000 0.1199570561
H   H22       1.0  0.72311  0.72221  0.25689  1.0000 0.1199570561
H   H23       1.0  0.47311  0.47221  0.74311  1.0000 0.1199570561
H   H24       1.0  0.52689  0.52779  0.25689  1.0000 0.1199570561
H   H25       1.0  0.47311  0.77779  0.50689  1.0000 0.1199570561
H   H26       1.0  0.52689  0.22221  0.49311  1.0000 0.1199570561
H   H27       1.0  0.27689  0.97221  0.50689  1.0000 0.1199570561
H   H28       1.0  0.72311  0.02779  0.49311  1.0000 0.1199570561
H   H29       1.0  0.27689  0.77779  0.24311  1.0000 0.1199570561
H   H30       1.0  0.72311  0.22221  0.75689  1.0000 0.1199570561
H   H31       1.0  0.47311  0.97221  0.24311  1.0000 0.1199570561
H   H32       1.0  0.52689  0.02779  0.75689  1.0000 0.1199570561
H   H33       1.0  0.06700  0.21614  0.44803  1.0000 0.1090856737
H   H34       1.0  0.93300  0.78386  0.55197  1.0000 0.1090856737
H   H35       1.0  0.68300  0.53386  0.44803  1.0000 0.1090856737
H   H36       1.0  0.31700  0.46614  0.55197  1.0000 0.1090856737
H   H37       1.0  0.68300  0.21614  0.30197  1.0000 0.1090856737
H   H38       1.0  0.31700  0.78386  0.69803  1.0000 0.1090856737
H   H39       1.0  0.06700  0.53386  0.30197  1.0000 0.1090856737
H   H40       1.0  0.93300  0.46614  0.69803  1.0000 0.1090856737
H   H41       1.0  0.06700  0.71614  0.94803  1.0000 0.1090856737
H   H42       1.0  0.93300  0.28386  0.05197  1.0000 0.1090856737
H   H43       1.0  0.68300  0.03386  0.94803  1.0000 0.1090856737
H   H44       1.0  0.31700  0.96614  0.05197  1.0000 0.1090856737
H   H45       1.0  0.68300  0.71614  0.80197  1.0000 0.1090856737
H   H46       1.0  0.31700  0.28386  0.19803  1.0000 0.1090856737
H   H47       1.0  0.06700  0.03386  0.80197  1.0000 0.1090856737
H   H48       1.0  0.93300  0.96614  0.19803  1.0000 0.1090856737
H   H49       1.0  0.56700  0.21614  0.94803  1.0000 0.1090856737
H   H50       1.0  0.43300  0.78386  0.05197  1.0000 0.1090856737
H   H51       1.0  0.18300  0.53386  0.94803  1.0000 0.1090856737
H   H52       1.0  0.81700  0.46614  0.05197  1.0000 0.1090856737
H   H53       1.0  0.18300  0.21614  0.80197  1.0000 0.1090856737
H   H54       1.0  0.81700  0.78386  0.19803  1.0000 0.1090856737
H   H55       1.0  0.56700  0.53386  0.80197  1.0000 0.1090856737
H   H56       1.0  0.43300  0.46614  0.19803  1.0000 0.1090856737
H   H57       1.0  0.56700  0.71614  0.44803  1.0000 0.1090856737
H   H58       1.0  0.43300  0.28386  0.55197  1.0000 0.1090856737
H   H59       1.0  0.18300  0.03386  0.44803  1.0000 0.1090856737
H   H60       1.0  0.81700  0.96614  0.55197  1.0000 0.1090856737
H   H61       1.0  0.18300  0.71614  0.30197  1.0000 0.1090856737
H   H62       1.0  0.81700  0.28386  0.69803  1.0000 0.1090856737
H   H63       1.0  0.56700  0.03386  0.30197  1.0000 0.1090856737
H   H64       1.0  0.43300  0.96614  0.69803  1.0000 0.1090856737
H   H65       1.0  0.37078  0.68667  0.62470  1.0000 0.1199570561
H   H66       1.0  0.62922  0.31333  0.37530  1.0000 0.1199570561
H   H67       1.0  0.37922  0.06333  0.62470  1.0000 0.1199570561
H   H68       1.0  0.62078  0.93667  0.37530  1.0000 0.1199570561
H   H69       1.0  0.37922  0.68667  0.12530  1.0000 0.1199570561
H   H70       1.0  0.62078  0.31333  0.87470  1.0000 0.1199570561
H   H71       1.0  0.37078  0.06333  0.12530  1.0000 0.1199570561
H   H72       1.0  0.62922  0.93667  0.87470  1.0000 0.1199570561
H   H73       1.0  0.37078  0.18667  0.12470  1.0000 0.1199570561
H   H74       1.0  0.62922  0.81333  0.87530  1.0000 0.1199570561
H   H75       1.0  0.37922  0.56333  0.12470  1.0000 0.1199570561
H   H76       1.0  0.62078  0.43667  0.87530  1.0000 0.1199570561
H   H77       1.0  0.37922  0.18667  0.62530  1.0000 0.1199570561
H   H78       1.0  0.62078  0.81333  0.37470  1.0000 0.1199570561
H   H79       1.0  0.37078  0.56333  0.62530  1.0000 0.1199570561
H   H80       1.0  0.62922  0.43667  0.37470  1.0000 0.1199570561
H   H81       1.0  0.87078  0.68667  0.12470  1.0000 0.1199570561
H   H82       1.0  0.12922  0.31333  0.87530  1.0000 0.1199570561
H   H83       1.0  0.87922  0.06333  0.12470  1.0000 0.1199570561
H   H84       1.0  0.12078  0.93667  0.87530  1.0000 0.1199570561
H   H85       1.0  0.87922  0.68667  0.62530  1.0000 0.1199570561
H   H86       1.0  0.12078  0.31333  0.37470  1.0000 0.1199570561
H   H87       1.0  0.87078  0.06333  0.62530  1.0000 0.1199570561
H   H88       1.0  0.12922  0.93667  0.37470  1.0000 0.1199570561
H   H89       1.0  0.87078  0.18667  0.62470  1.0000 0.1199570561
H   H90       1.0  0.12922  0.81333  0.37530  1.0000 0.1199570561
H   H91       1.0  0.87922  0.56333  0.62470  1.0000 0.1199570561
H   H92       1.0  0.12078  0.43667  0.37530  1.0000 0.1199570561
H   H93       1.0  0.87922  0.18667  0.12530  1.0000 0.1199570561
H   H94       1.0  0.12078  0.81333  0.87470  1.0000 0.1199570561
H   H95       1.0  0.87078  0.56333  0.12530  1.0000 0.1199570561
H   H96       1.0  0.12922  0.43667  0.87470  1.0000 0.1199570561
C   C1        1.0  0.14496  0.31942  0.56708  1.0000 0.6619819311
C   C2        1.0  0.85504  0.68058  0.43292  1.0000 0.6619819311
C   C3        1.0  0.60504  0.43058  0.56708  1.0000 0.6619819311
C   C4        1.0  0.39496  0.56942  0.43292  1.0000 0.6619819311
C   C5        1.0  0.60504  0.31942  0.18292  1.0000 0.6619819311
C   C6        1.0  0.39496  0.68058  0.81708  1.0000 0.6619819311
C   C7        1.0  0.14496  0.43058  0.18292  1.0000 0.6619819311
C   C8        1.0  0.85504  0.56942  0.81708  1.0000 0.6619819311
C   C9        1.0  0.14496  0.81942  0.06708  1.0000 0.6619819311
C   C10       1.0  0.85504  0.18058  0.93292  1.0000 0.6619819311
C   C11       1.0  0.60504  0.93058  0.06708  1.0000 0.6619819311
C   C12       1.0  0.39496  0.06942  0.93292  1.0000 0.6653682061
C   C13       1.0  0.60504  0.81942  0.68292  1.0000 0.6619819311
C   C14       1.0  0.39496  0.18058  0.31708  1.0000 0.6619819311
C   C15       1.0  0.14496  0.93058  0.68292  1.0000 0.6619819311
C   C16       1.0  0.85504  0.06942  0.31708  1.0000 0.6619819311
C   C17       1.0  0.64496  0.31942  0.06708  1.0000 0.6619819311
C   C18       1.0  0.35504  0.68058  0.93292  1.0000 0.6619819311
C   C19       1.0  0.10504  0.43058  0.06708  1.0000 0.6619819311
C   C20       1.0  0.89496  0.56942  0.93292  1.0000 0.6619819311
C   C21       1.0  0.10504  0.31942  0.68292  1.0000 0.6619819311
C   C22       1.0  0.89496  0.68058  0.31708  1.0000 0.6619819311
C   C23       1.0  0.64496  0.43058  0.68292  1.0000 0.6619819311
C   C24       1.0  0.35504  0.56942  0.31708  1.0000 0.6619819311
C   C25       1.0  0.64496  0.81942  0.56708  1.0000 0.6619819311
C   C26       1.0  0.35504  0.18058  0.43292  1.0000 0.6653682061
C   C27       1.0  0.10504  0.93058  0.56708  1.0000 0.6619819311
C   C28       1.0  0.89496  0.06942  0.43292  1.0000 0.6619819311
C   C29       1.0  0.10504  0.81942  0.18292  1.0000 0.6619819311
C   C30       1.0  0.89496  0.18058  0.81708  1.0000 0.6619819311
C   C31       1.0  0.64496  0.93058  0.18292  1.0000 0.6619819311
C   C32       1.0  0.35504  0.06942  0.81708  1.0000 0.6653682061
C   C33       1.0  0.19895  0.28370  0.53223  1.0000 -0.0439673205
C   C34       1.0  0.80105  0.71630  0.46777  1.0000 -0.0439673205
C   C35       1.0  0.55105  0.46630  0.53223  1.0000 -0.0439673205
C   C36       1.0  0.44895  0.53370  0.46777  1.0000 -0.0439673205
C   C37       1.0  0.55105  0.28370  0.21777  1.0000 -0.0439673205
C   C38       1.0  0.44895  0.71630  0.78223  1.0000 -0.0439673205
C   C39       1.0  0.19895  0.46630  0.21777  1.0000 -0.0439673205
C   C40       1.0  0.80105  0.53370  0.78223  1.0000 -0.0439673205
C   C41       1.0  0.19895  0.78370  0.03223  1.0000 -0.0439673205
C   C42       1.0  0.80105  0.21630  0.96777  1.0000 -0.0439673205
C   C43       1.0  0.55105  0.96630  0.03223  1.0000 -0.0439673205
C   C44       1.0  0.44895  0.03370  0.96777  1.0000 -0.0439673205
C   C45       1.0  0.55105  0.78370  0.71777  1.0000 -0.0439673205
C   C46       1.0  0.44895  0.21630  0.28223  1.0000 -0.0439673205
C   C47       1.0  0.19895  0.96630  0.71777  1.0000 -0.0439673205
C   C48       1.0  0.80105  0.03370  0.28223  1.0000 -0.0439673205
C   C49       1.0  0.69895  0.28370  0.03223  1.0000 -0.0439673205
C   C50       1.0  0.30105  0.71630  0.96777  1.0000 -0.0439673205
C   C51       1.0  0.05105  0.46630  0.03223  1.0000 -0.0439673205
C   C52       1.0  0.94895  0.53370  0.96777  1.0000 -0.0439673205
C   C53       1.0  0.05105  0.28370  0.71777  1.0000 -0.0439673205
C   C54       1.0  0.94895  0.71630  0.28223  1.0000 -0.0439673205
C   C55       1.0  0.69895  0.46630  0.71777  1.0000 -0.0439673205
C   C56       1.0  0.30105  0.53370  0.28223  1.0000 -0.0439673205
C   C57       1.0  0.69895  0.78370  0.53223  1.0000 -0.0439673205
C   C58       1.0  0.30105  0.21630  0.46777  1.0000 -0.0439673205
C   C59       1.0  0.05105  0.96630  0.53223  1.0000 -0.0439673205
C   C60       1.0  0.94895  0.03370  0.46777  1.0000 -0.0439673205
C   C61       1.0  0.05105  0.78370  0.21777  1.0000 -0.0439673205
C   C62       1.0  0.94895  0.21630  0.78223  1.0000 -0.0439673205
C   C63       1.0  0.69895  0.96630  0.21777  1.0000 -0.0439673205
C   C64       1.0  0.30105  0.03370  0.78223  1.0000 -0.0439673205
C   C65       1.0  0.09366  0.26530  0.50345  1.0000 -0.0883165349
C   C66       1.0  0.90634  0.73470  0.49655  1.0000 -0.0883165349
C   C67       1.0  0.65634  0.48470  0.50345  1.0000 -0.0883165349
C   C68       1.0  0.34366  0.51530  0.49655  1.0000 -0.0883165349
C   C69       1.0  0.65634  0.26530  0.24655  1.0000 -0.0883165349
C   C70       1.0  0.34366  0.73470  0.75345  1.0000 -0.0883165349
C   C71       1.0  0.09366  0.48470  0.24655  1.0000 -0.0883165349
C   C72       1.0  0.90634  0.51530  0.75345  1.0000 -0.0883165349
C   C73       1.0  0.09366  0.76530  0.00345  1.0000 -0.0883165349
C   C74       1.0  0.90634  0.23470  0.99655  1.0000 -0.0883165349
C   C75       1.0  0.65634  0.98470  0.00345  1.0000 -0.0883165349
C   C76       1.0  0.34366  0.01530  0.99655  1.0000 -0.0883165349
C   C77       1.0  0.65634  0.76530  0.74655  1.0000 -0.0883165349
C   C78       1.0  0.34366  0.23470  0.25345  1.0000 -0.0883165349
C   C79       1.0  0.09366  0.98470  0.74655  1.0000 -0.0883165349
C   C80       1.0  0.90634  0.01530  0.25345  1.0000 -0.0883165349
C   C81       1.0  0.59366  0.26530  0.00345  1.0000 -0.0883165349
C   C82       1.0  0.40634  0.73470  0.99655  1.0000 -0.0883165349
C   C83       1.0  0.15634  0.48470  0.00345  1.0000 -0.0883165349
C   C84       1.0  0.84366  0.51530  0.99655  1.0000 -0.0883165349
C   C85       1.0  0.15634  0.26530  0.74655  1.0000 -0.0883165349
C   C86       1.0  0.84366  0.73470  0.25345  1.0000 -0.0883165349
C   C87       1.0  0.59366  0.48470  0.74655  1.0000 -0.0883165349
C   C88       1.0  0.40634  0.51530  0.25345  1.0000 -0.0883165349
C   C89       1.0  0.59366  0.76530  0.50345  1.0000 -0.0883165349
C   C90       1.0  0.40634  0.23470  0.49655  1.0000 -0.0883165349
C   C91       1.0  0.15634  0.98470  0.50345  1.0000 -0.0883165349
C   C92       1.0  0.84366  0.01530  0.49655  1.0000 -0.0883165349
C   C93       1.0  0.15634  0.76530  0.24655  1.0000 -0.0883165349
C   C94       1.0  0.84366  0.23470  0.75345  1.0000 -0.0883165349
C   C95       1.0  0.59366  0.98470  0.24655  1.0000 -0.0883165349
C   C96       1.0  0.40634  0.01530  0.75345  1.0000 -0.0883165349
C   C97       1.0  0.14533  0.23139  0.47111  1.0000 -0.0844462552
C   C98       1.0  0.85467  0.76861  0.52889  1.0000 -0.0844462552
C   C99       1.0  0.60467  0.51861  0.47111  1.0000 -0.0844462552
C   C100      1.0  0.39533  0.48139  0.52889  1.0000 -0.0844462552
C   C101      1.0  0.60467  0.23139  0.27889  1.0000 -0.0844462552
C   C102      1.0  0.39533  0.76861  0.72111  1.0000 -0.0844462552
C   C103      1.0  0.14533  0.51861  0.27889  1.0000 -0.0844462552
C   C104      1.0  0.85467  0.48139  0.72111  1.0000 -0.0844462552
C   C105      1.0  0.14533  0.73139  0.97111  1.0000 -0.0844462552
C   C106      1.0  0.85467  0.26861  0.02889  1.0000 -0.0844462552
C   C107      1.0  0.60467  0.01861  0.97111  1.0000 -0.0844462552
C   C108      1.0  0.39533  0.98139  0.02889  1.0000 -0.0844462552
C   C109      1.0  0.60467  0.73139  0.77889  1.0000 -0.0844462552
C   C110      1.0  0.39533  0.26861  0.22111  1.0000 -0.0844462552
C   C111      1.0  0.14533  0.01861  0.77889  1.0000 -0.0844462552
C   C112      1.0  0.85467  0.98139  0.22111  1.0000 -0.0844462552
C   C113      1.0  0.64533  0.23139  0.97111  1.0000 -0.0844462552
C   C114      1.0  0.35467  0.76861  0.02889  1.0000 -0.0844462552
C   C115      1.0  0.10467  0.51861  0.97111  1.0000 -0.0844462552
C   C116      1.0  0.89533  0.48139  0.02889  1.0000 -0.0844462552
C   C117      1.0  0.10467  0.23139  0.77889  1.0000 -0.0844462552
C   C118      1.0  0.89533  0.76861  0.22111  1.0000 -0.0844462552
C   C119      1.0  0.64533  0.51861  0.77889  1.0000 -0.0844462552
C   C120      1.0  0.35467  0.48139  0.22111  1.0000 -0.0844462552
C   C121      1.0  0.64533  0.73139  0.47111  1.0000 -0.0844462552
C   C122      1.0  0.35467  0.26861  0.52889  1.0000 -0.0844462552
C   C123      1.0  0.10467  0.01861  0.47111  1.0000 -0.0844462552
C   C124      1.0  0.89533  0.98139  0.52889  1.0000 -0.0844462552
C   C125      1.0  0.10467  0.73139  0.27889  1.0000 -0.0844462552
C   C126      1.0  0.89533  0.26861  0.72111  1.0000 -0.0844462552
C   C127      1.0  0.64533  0.01861  0.27889  1.0000 -0.0844462552
C   C128      1.0  0.35467  0.98139  0.72111  1.0000 -0.0844462552
C   C129      1.0  0.12500  0.48700  0.62500  1.0000 0.6619819311
C   C130      1.0  0.87500  0.51300  0.37500  1.0000 0.6619819311
C   C131      1.0  0.62500  0.26300  0.62500  1.0000 0.6619819311
C   C132      1.0  0.37500  0.73700  0.37500  1.0000 0.6619819311
C   C133      1.0  0.62500  0.48700  0.12500  1.0000 0.6619819311
C   C134      1.0  0.37500  0.51300  0.87500  1.0000 0.6619819311
C   C135      1.0  0.12500  0.26300  0.12500  1.0000 0.6619819311
C   C136      1.0  0.87500  0.73700  0.87500  1.0000 0.6619819311
C   C137      1.0  0.12500  0.98700  0.12500  1.0000 0.6619819311
C   C138      1.0  0.87500  0.01300  0.87500  1.0000 0.6619819311
C   C139      1.0  0.62500  0.76300  0.12500  1.0000 0.6619819311
C   C140      1.0  0.37500  0.23700  0.87500  1.0000 0.6619819311
C   C141      1.0  0.62500  0.98700  0.62500  1.0000 0.6619819311
C   C142      1.0  0.37500  0.01300  0.37500  1.0000 0.6619819311
C   C143      1.0  0.12500  0.76300  0.62500  1.0000 0.6619819311
C   C144      1.0  0.87500  0.23700  0.37500  1.0000 0.6619819311
C   C145      1.0  0.12500  0.55857  0.62500  1.0000 -0.0439673205
C   C146      1.0  0.87500  0.44143  0.37500  1.0000 -0.0439673205
C   C147      1.0  0.62500  0.19143  0.62500  1.0000 -0.0439673205
C   C148      1.0  0.37500  0.80857  0.37500  1.0000 -0.0439673205
C   C149      1.0  0.62500  0.55857  0.12500  1.0000 -0.0439673205
C   C150      1.0  0.37500  0.44143  0.87500  1.0000 -0.0439673205
C   C151      1.0  0.12500  0.19143  0.12500  1.0000 -0.0439673205
C   C152      1.0  0.87500  0.80857  0.87500  1.0000 -0.0439673205
C   C153      1.0  0.12500  0.05857  0.12500  1.0000 -0.0439673205
C   C154      1.0  0.87500  0.94143  0.87500  1.0000 -0.0439673205
C   C155      1.0  0.62500  0.69143  0.12500  1.0000 -0.0439673205
C   C156      1.0  0.37500  0.30857  0.87500  1.0000 -0.0439673205
C   C157      1.0  0.62500  0.05857  0.62500  1.0000 -0.0439673205
C   C158      1.0  0.37500  0.94143  0.37500  1.0000 -0.0439673205
C   C159      1.0  0.12500  0.69143  0.62500  1.0000 -0.0439673205
C   C160      1.0  0.87500  0.30857  0.37500  1.0000 -0.0439673205
C   C161      1.0  0.26530  0.65850  0.62481  1.0000 -0.0883165349
C   C162      1.0  0.73470  0.34150  0.37519  1.0000 -0.0883165349
C   C163      1.0  0.48470  0.09150  0.62481  1.0000 -0.0883165349
C   C164      1.0  0.51530  0.90850  0.37519  1.0000 -0.0883165349
C   C165      1.0  0.48470  0.65850  0.12519  1.0000 -0.0883165349
C   C166      1.0  0.51530  0.34150  0.87481  1.0000 -0.0883165349
C   C167      1.0  0.26530  0.09150  0.12519  1.0000 -0.0883165349
C   C168      1.0  0.73470  0.90850  0.87481  1.0000 -0.0883165349
C   C169      1.0  0.26530  0.15850  0.12481  1.0000 -0.0883165349
C   C170      1.0  0.73470  0.84150  0.87519  1.0000 -0.0883165349
C   C171      1.0  0.48470  0.59150  0.12481  1.0000 -0.0883165349
C   C172      1.0  0.51530  0.40850  0.87519  1.0000 -0.0883165349
C   C173      1.0  0.48470  0.15850  0.62519  1.0000 -0.0883165349
C   C174      1.0  0.51530  0.84150  0.37481  1.0000 -0.0883165349
C   C175      1.0  0.26530  0.59150  0.62519  1.0000 -0.0883165349
C   C176      1.0  0.73470  0.40850  0.37481  1.0000 -0.0883165349
C   C177      1.0  0.76530  0.65850  0.12481  1.0000 -0.0883165349
C   C178      1.0  0.23470  0.34150  0.87519  1.0000 -0.0883165349
C   C179      1.0  0.98470  0.09150  0.12481  1.0000 -0.0883165349
C   C180      1.0  0.01530  0.90850  0.87519  1.0000 -0.0883165349
C   C181      1.0  0.98470  0.65850  0.62519  1.0000 -0.0883165349
C   C182      1.0  0.01530  0.34150  0.37481  1.0000 -0.0883165349
C   C183      1.0  0.76530  0.09150  0.62519  1.0000 -0.0883165349
C   C184      1.0  0.23470  0.90850  0.37481  1.0000 -0.0883165349
C   C185      1.0  0.76530  0.15850  0.62481  1.0000 -0.0883165349
C   C186      1.0  0.23470  0.84150  0.37519  1.0000 -0.0883165349
C   C187      1.0  0.98470  0.59150  0.62481  1.0000 -0.0883165349
C   C188      1.0  0.01530  0.40850  0.37519  1.0000 -0.0883165349
C   C189      1.0  0.98470  0.15850  0.12519  1.0000 -0.0883165349
C   C190      1.0  0.01530  0.84150  0.87481  1.0000 -0.0883165349
C   C191      1.0  0.76530  0.59150  0.12519  1.0000 -0.0883165349
C   C192      1.0  0.23470  0.40850  0.87481  1.0000 -0.0883165349
O   O1        1.0  0.24342  0.33487  0.59285  1.0000 -0.6751860909
O   O2        1.0  0.75658  0.66513  0.40715  1.0000 -0.6751860909
O   O3        1.0  0.50658  0.41513  0.59285  1.0000 -0.6751860909
O   O4        1.0  0.49342  0.58487  0.40715  1.0000 -0.6751860909
O   O5        1.0  0.50658  0.33487  0.15715  1.0000 -0.6751860909
O   O6        1.0  0.49342  0.66513  0.84285  1.0000 -0.6751860909
O   O7        1.0  0.24342  0.41513  0.15715  1.0000 -0.6751860909
O   O8        1.0  0.75658  0.58487  0.84285  1.0000 -0.6751860909
O   O9        1.0  0.24342  0.83487  0.09285  1.0000 -0.6751860909
O   O10       1.0  0.75658  0.16513  0.90715  1.0000 -0.6751860909
O   O11       1.0  0.50658  0.91513  0.09285  1.0000 -0.6751860909
O   O12       1.0  0.49342  0.08487  0.90715  1.0000 -0.6751860909
O   O13       1.0  0.50658  0.83487  0.65715  1.0000 -0.6751860909
O   O14       1.0  0.49342  0.16513  0.34285  1.0000 -0.6751860909
O   O15       1.0  0.24342  0.91513  0.65715  1.0000 -0.6751860909
O   O16       1.0  0.75658  0.08487  0.34285  1.0000 -0.6751860909
O   O17       1.0  0.74342  0.33487  0.09285  1.0000 -0.6747260026
O   O18       1.0  0.25658  0.66513  0.90715  1.0000 -0.6747260026
O   O19       1.0  0.00658  0.41513  0.09285  1.0000 -0.6751860909
O   O20       1.0  0.99342  0.58487  0.90715  1.0000 -0.6751860909
O   O21       1.0  0.00658  0.33487  0.65715  1.0000 -0.6751860909
O   O22       1.0  0.99342  0.66513  0.34285  1.0000 -0.6751860909
O   O23       1.0  0.74342  0.41513  0.65715  1.0000 -0.6751860909
O   O24       1.0  0.25658  0.58487  0.34285  1.0000 -0.6751860909
O   O25       1.0  0.74342  0.83487  0.59285  1.0000 -0.6747260026
O   O26       1.0  0.25658  0.16513  0.40715  1.0000 -0.6751860909
O   O27       1.0  0.00658  0.91513  0.59285  1.0000 -0.6751860909
O   O28       1.0  0.99342  0.08487  0.40715  1.0000 -0.6751860909
O   O29       1.0  0.00658  0.83487  0.15715  1.0000 -0.6751860909
O   O30       1.0  0.99342  0.16513  0.84285  1.0000 -0.6751860909
O   O31       1.0  0.74342  0.91513  0.15715  1.0000 -0.6747260026
O   O32       1.0  0.25658  0.08487  0.84285  1.0000 -0.6751860909
O   O33       1.0  0.00326  0.33225  0.56925  1.0000 -0.6159139189
O   O34       1.0  0.99674  0.66775  0.43075  1.0000 -0.6159139189
O   O35       1.0  0.74674  0.41775  0.56925  1.0000 -0.6159139189
O   O36       1.0  0.25326  0.58225  0.43075  1.0000 -0.6159139189
O   O37       1.0  0.74674  0.33225  0.18075  1.0000 -0.6159139189
O   O38       1.0  0.25326  0.66775  0.81925  1.0000 -0.6159139189
O   O39       1.0  0.00326  0.41775  0.18075  1.0000 -0.6159139189
O   O40       1.0  0.99674  0.58225  0.81925  1.0000 -0.6159139189
O   O41       1.0  0.00326  0.83225  0.06925  1.0000 -0.6159139189
O   O42       1.0  0.99674  0.16775  0.93075  1.0000 -0.6159139189
O   O43       1.0  0.74674  0.91775  0.06925  1.0000 -0.6159139189
O   O44       1.0  0.25326  0.08225  0.93075  1.0000 -0.6159139189
O   O45       1.0  0.74674  0.83225  0.68075  1.0000 -0.6159139189
O   O46       1.0  0.25326  0.16775  0.31925  1.0000 -0.6159139189
O   O47       1.0  0.00326  0.91775  0.68075  1.0000 -0.6159139189
O   O48       1.0  0.99674  0.08225  0.31925  1.0000 -0.6159139189
O   O49       1.0  0.50326  0.33225  0.06925  1.0000 -0.6159139189
O   O50       1.0  0.49674  0.66775  0.93075  1.0000 -0.6159139189
O   O51       1.0  0.24674  0.41775  0.06925  1.0000 -0.6159139189
O   O52       1.0  0.75326  0.58225  0.93075  1.0000 -0.6159139189
O   O53       1.0  0.24674  0.33225  0.68075  1.0000 -0.6159139189
O   O54       1.0  0.75326  0.66775  0.31925  1.0000 -0.6159139189
O   O55       1.0  0.50326  0.41775  0.68075  1.0000 -0.6159139189
O   O56       1.0  0.49674  0.58225  0.31925  1.0000 -0.6159139189
O   O57       1.0  0.50326  0.83225  0.56925  1.0000 -0.6159139189
O   O58       1.0  0.49674  0.16775  0.43075  1.0000 -0.6159139189
O   O59       1.0  0.24674  0.91775  0.56925  1.0000 -0.6159139189
O   O60       1.0  0.75326  0.08225  0.43075  1.0000 -0.6159139189
O   O61       1.0  0.24674  0.83225  0.18075  1.0000 -0.6159139189
O   O62       1.0  0.75326  0.16775  0.81925  1.0000 -0.6159139189
O   O63       1.0  0.50326  0.91775  0.18075  1.0000 -0.6159139189
O   O64       1.0  0.49674  0.08225  0.81925  1.0000 -0.6159139189
O   O65       1.0  0.24414  0.45907  0.63783  1.0000 -0.6433642923
O   O66       1.0  0.75586  0.54093  0.36217  1.0000 -0.6433642923
O   O67       1.0  0.50586  0.29093  0.63783  1.0000 -0.6433642923
O   O68       1.0  0.49414  0.70907  0.36217  1.0000 -0.6433642923
O   O69       1.0  0.50586  0.45907  0.11217  1.0000 -0.6433642923
O   O70       1.0  0.49414  0.54093  0.88783  1.0000 -0.6433642923
O   O71       1.0  0.24414  0.29093  0.11217  1.0000 -0.6433642923
O   O72       1.0  0.75586  0.70907  0.88783  1.0000 -0.6433642923
O   O73       1.0  0.24414  0.95907  0.13783  1.0000 -0.6433642923
O   O74       1.0  0.75586  0.04093  0.86217  1.0000 -0.6433642923
O   O75       1.0  0.50586  0.79093  0.13783  1.0000 -0.6433642923
O   O76       1.0  0.49414  0.20907  0.86217  1.0000 -0.6433642923
O   O77       1.0  0.50586  0.95907  0.61217  1.0000 -0.6433642923
O   O78       1.0  0.49414  0.04093  0.38783  1.0000 -0.6433642923
O   O79       1.0  0.24414  0.79093  0.61217  1.0000 -0.6433642923
O   O80       1.0  0.75586  0.20907  0.38783  1.0000 -0.6433642923
O   O81       1.0  0.74414  0.45907  0.13783  1.0000 -0.6433642923
O   O82       1.0  0.25586  0.54093  0.86217  1.0000 -0.6433642923
O   O83       1.0  0.00586  0.29093  0.13783  1.0000 -0.6433642923
O   O84       1.0  0.99414  0.70907  0.86217  1.0000 -0.6433642923
O   O85       1.0  0.00586  0.45907  0.61217  1.0000 -0.6433642923
O   O86       1.0  0.99414  0.54093  0.38783  1.0000 -0.6433642923
O   O87       1.0  0.74414  0.29093  0.61217  1.0000 -0.6433642923
O   O88       1.0  0.25586  0.70907  0.38783  1.0000 -0.6433642923
O   O89       1.0  0.74414  0.95907  0.63783  1.0000 -0.6433642923
O   O90       1.0  0.25586  0.04093  0.36217  1.0000 -0.6433642923
O   O91       1.0  0.00586  0.79093  0.63783  1.0000 -0.6433642923
O   O92       1.0  0.99414  0.20907  0.36217  1.0000 -0.6433642923
O   O93       1.0  0.00586  0.95907  0.11217  1.0000 -0.6433642923
O   O94       1.0  0.99414  0.04093  0.88783  1.0000 -0.6433642923
O   O95       1.0  0.74414  0.79093  0.11217  1.0000 -0.6433642923
O   O96       1.0  0.25586  0.20907  0.88783  1.0000 -0.6433642923
