# DDEC6 charges by PACMAN v1.1 (https://github.com/mtap-research/PACMAN-charge/)
data_2016[Co][nan]3[ASR]34
_chemical_formula_sum              "Co3 H34 C44 N10 O8"
_cell_length_a       11.5432
_cell_length_b       11.6723
_cell_length_c       11.8414
_cell_angle_alpha    65.44
_cell_angle_beta     78.968
_cell_angle_gamma    72.175

_symmetry_space_group_name_H-M    "P 1"
_symmetry_Int_Tables_number       1

loop_
  _symmetry_equiv_pos_as_xyz
  'x, y, z'

loop_
  _atom_site_type_symbol
  _atom_site_label
  _atom_site_symmetry_multiplicity
  _atom_site_fract_x
  _atom_site_fract_y
  _atom_site_fract_z
  _atom_site_occupancy
  _atom_site_charge
Co  Co1       1.0  0.50000  0.50000  0.50000  1.0000 0.6944074924
Co  Co2       1.0  0.50000  0.50000  0.00000  1.0000 0.9069814379
Co  Co3       1.0  0.50000  0.00000  0.00000  1.0000 0.698948055
H   H1        1.0  0.47000  0.94170  0.31230  1.0000 0.1300477418
H   H2        1.0  0.53000  0.05830  0.68770  1.0000 0.1300477418
H   H3        1.0  0.45860  0.82030  0.43450  1.0000 0.1219364475
H   H4        1.0  0.54140  0.17970  0.56550  1.0000 0.1219364475
H   H5        1.0  0.27590  0.98330  0.41090  1.0000 0.1219364475
H   H6        1.0  0.72410  0.01670  0.58910  1.0000 0.1219364475
H   H7        1.0  0.25240  0.86000  0.40630  1.0000 0.1100793729
H   H8        1.0  0.74760  0.14000  0.59370  1.0000 0.1100793729
H   H9        1.0  0.26350  0.98020  0.28270  1.0000 0.1100793729
H   H10       1.0  0.73650  0.01980  0.71730  1.0000 0.1100793729
H   H11       1.0  0.76250  0.32940  0.50280  1.0000 0.1100793729
H   H12       1.0  0.23750  0.67060  0.49720  1.0000 0.1100793729
H   H13       1.0  0.96290  0.31810  0.51360  1.0000 0.1353470827
H   H14       1.0  0.03710  0.68190  0.48640  1.0000 0.1353470827
H   H15       1.0  0.85520  0.67920  0.49610  1.0000 0.1300477418
H   H16       1.0  0.14480  0.32080  0.50390  1.0000 0.1300477418
H   H17       1.0  0.66130  0.67790  0.48810  1.0000 0.1100793729
H   H18       1.0  0.33870  0.32210  0.51190  1.0000 0.1100793729
H   H19       1.0  0.69340  0.83890  0.20860  1.0000 0.1014811429
H   H20       1.0  0.30660  0.16110  0.79140  1.0000 0.1014811429
H   H21       1.0  0.89700  0.74460  0.22220  1.0000 0.1219364475
H   H22       1.0  0.10300  0.25540  0.77780  1.0000 0.1219364475
H   H23       1.0  0.94920  0.95960  0.86370  1.0000 0.1300477418
H   H24       1.0  0.05080  0.04040  0.13630  1.0000 0.1300477418
H   H25       1.0  0.74420  0.05330  0.86500  1.0000 0.1014811429
H   H26       1.0  0.25580  0.94670  0.13500  1.0000 0.1014811429
H   H27       1.0  0.07710  0.61410  0.20780  1.0000 0.1219364475
H   H28       1.0  0.92290  0.38590  0.79220  1.0000 0.1219364475
H   H29       1.0  0.27370  0.50170  0.19250  1.0000 0.1100793729
H   H30       1.0  0.72630  0.49830  0.80750  1.0000 0.1100793729
H   H31       1.0  0.33460  0.77300  0.87580  1.0000 0.1219364475
H   H32       1.0  0.66540  0.22700  0.12420  1.0000 0.1219364475
H   H33       1.0  0.13820  0.89290  0.88260  1.0000 0.1300477418
H   H34       1.0  0.86180  0.10710  0.11740  1.0000 0.1300477418
C   C1        1.0  0.53470  0.47380  0.26250  1.0000 0.5476595009
C   C2        1.0  0.46530  0.52620  0.73750  1.0000 0.5476595009
C   C3        1.0  0.51190  0.61580  0.23170  1.0000 -0.0165980785
C   C4        1.0  0.48810  0.38420  0.76830  1.0000 -0.0165980785
C   C5        1.0  0.51400  0.72440  0.12190  1.0000 -0.0129353488
C   C6        1.0  0.48600  0.27560  0.87810  1.0000 -0.0129353488
C   C7        1.0  0.54890  0.74540  0.98910  1.0000 0.5476595009
C   C8        1.0  0.45110  0.25460  0.01090  1.0000 0.5476595009
C   C9        1.0  0.46420  0.78650  0.27740  1.0000 0.3432654734
C   C10       1.0  0.53580  0.21350  0.72260  1.0000 0.3432654734
C   C11       1.0  0.42960  0.87140  0.35200  1.0000 -0.2277476569
C   C12       1.0  0.57040  0.12860  0.64800  1.0000 -0.2277476569
C   C13       1.0  0.29270  0.92910  0.36410  1.0000 -0.3346206253
C   C14       1.0  0.70730  0.07090  0.63590  1.0000 -0.3346206253
C   C15       1.0  0.78110  0.40180  0.50210  1.0000 0.0808380362
C   C16       1.0  0.21890  0.59820  0.49790  1.0000 0.0808380362
C   C17       1.0  0.90330  0.39500  0.50620  1.0000 -0.2188814884
C   C18       1.0  0.09670  0.60500  0.49380  1.0000 -0.2188814884
C   C19       1.0  0.93510  0.50170  0.49920  1.0000 0.0933331991
C   C20       1.0  0.06490  0.49830  0.50080  1.0000 0.0933331991
C   C21       1.0  0.84050  0.60510  0.49620  1.0000 -0.2188814884
C   C22       1.0  0.15950  0.39490  0.50380  1.0000 -0.2188814884
C   C23       1.0  0.72270  0.60290  0.49330  1.0000 0.0808380362
C   C24       1.0  0.27730  0.39710  0.50670  1.0000 0.0808380362
C   C25       1.0  0.74510  0.86270  0.13690  1.0000 0.071978047
C   C26       1.0  0.25490  0.13730  0.86310  1.0000 0.071978047
C   C27       1.0  0.86850  0.80480  0.14570  1.0000 -0.2106146569
C   C28       1.0  0.13150  0.19520  0.85430  1.0000 -0.2106146569
C   C29       1.0  0.94980  0.83460  0.04330  1.0000 0.1014811429
C   C30       1.0  0.05020  0.16540  0.95670  1.0000 0.1014811429
C   C31       1.0  0.89960  0.93130  0.93610  1.0000 -0.2036681627
C   C32       1.0  0.10040  0.06870  0.06390  1.0000 -0.2036681627
C   C33       1.0  0.77470  0.98590  0.93740  1.0000 0.0808380362
C   C34       1.0  0.22530  0.01410  0.06260  1.0000 0.0808380362
C   C35       1.0  0.08140  0.76630  0.04380  1.0000 0.1014811429
C   C36       1.0  0.91860  0.23370  0.95620  1.0000 0.1014811429
C   C37       1.0  0.12750  0.64780  0.13780  1.0000 -0.2036681627
C   C38       1.0  0.87250  0.35220  0.86220  1.0000 -0.2036681627
C   C39       1.0  0.24590  0.58080  0.12810  1.0000 0.0808380362
C   C40       1.0  0.75410  0.41920  0.87190  1.0000 0.0808380362
C   C41       1.0  0.28140  0.73930  0.94290  1.0000 0.0933331991
C   C42       1.0  0.71860  0.26070  0.05710  1.0000 0.0933331991
C   C43       1.0  0.16300  0.81230  0.94630  1.0000 -0.1910421332
C   C44       1.0  0.83700  0.18770  0.05370  1.0000 -0.1910421332
N   N1        1.0  0.48090  0.65710  0.32880  1.0000 -0.3756077095
N   N2        1.0  0.51910  0.34290  0.67120  1.0000 -0.3756077095
N   N3        1.0  0.48350  0.83030  0.15280  1.0000 -0.3756077095
N   N4        1.0  0.51650  0.16970  0.84720  1.0000 -0.3745215838
N   N5        1.0  0.69120  0.50420  0.49730  1.0000 -0.2106146569
N   N6        1.0  0.30880  0.49580  0.50270  1.0000 -0.2106146569
N   N7        1.0  0.69600  0.94970  0.03330  1.0000 -0.2106146569
N   N8        1.0  0.30400  0.05030  0.96670  1.0000 -0.2106146569
N   N9        1.0  0.32450  0.62260  0.03080  1.0000 -0.2469373052
N   N10       1.0  0.67550  0.37740  0.96920  1.0000 -0.2469373052
O   O1        1.0  0.54650  0.40140  0.37840  1.0000 -0.5428550695
O   O2        1.0  0.45350  0.59860  0.62160  1.0000 -0.5428550695
O   O3        1.0  0.53970  0.42750  0.18390  1.0000 -0.5236000125
O   O4        1.0  0.46030  0.57250  0.81610  1.0000 -0.5236000125
O   O5        1.0  0.57880  0.65280  0.95210  1.0000 -0.5428550695
O   O6        1.0  0.42120  0.34720  0.04790  1.0000 -0.5428550695
O   O7        1.0  0.54910  0.86140  0.91580  1.0000 -0.5254843538
O   O8        1.0  0.45090  0.13860  0.08420  1.0000 -0.5254843538
