# DDEC6 charges by PACMAN v1.1 (https://github.com/mtap-research/PACMAN-charge/)
data_2016[Cu][nbo]3[ASR]15
_chemical_formula_sum              "Cu6 H78 C126 O30"
_cell_length_a       21.3011
_cell_length_b       21.3011
_cell_length_c       21.3011
_cell_angle_alpha    114.443
_cell_angle_beta     114.443
_cell_angle_gamma    114.443

_symmetry_space_group_name_H-M    "P 1"
_symmetry_Int_Tables_number       1

loop_
  _symmetry_equiv_pos_as_xyz
  'x, y, z'

loop_
  _atom_site_type_symbol
  _atom_site_label
  _atom_site_symmetry_multiplicity
  _atom_site_fract_x
  _atom_site_fract_y
  _atom_site_fract_z
  _atom_site_occupancy
  _atom_site_charge
Cu  Cu1       1.0  0.59200  0.08183  0.08183  1.0000 0.8339644468
Cu  Cu2       1.0  0.08183  0.08183  0.59200  1.0000 0.8339644468
Cu  Cu3       1.0  0.08183  0.59200  0.08183  1.0000 0.8355942762
Cu  Cu4       1.0  0.91817  0.40800  0.91817  1.0000 0.8339644468
Cu  Cu5       1.0  0.91817  0.91817  0.40800  1.0000 0.8339644468
Cu  Cu6       1.0  0.40800  0.91817  0.91817  1.0000 0.8339644468
H   H1        1.0  0.29520  0.86060  0.04000  1.0000 0.1192149169
H   H2        1.0  0.86060  0.04000  0.29520  1.0000 0.1192149169
H   H3        1.0  0.04000  0.29520  0.86060  1.0000 0.1192149169
H   H4        1.0  0.13940  0.70480  0.96000  1.0000 0.1192149169
H   H5        1.0  0.96000  0.13940  0.70480  1.0000 0.1192149169
H   H6        1.0  0.70480  0.96000  0.13940  1.0000 0.1192149169
H   H7        1.0  0.70480  0.13940  0.96000  1.0000 0.1192149169
H   H8        1.0  0.13940  0.96000  0.70480  1.0000 0.1192149169
H   H9        1.0  0.96000  0.70480  0.13940  1.0000 0.1192149169
H   H10       1.0  0.86060  0.29520  0.04000  1.0000 0.1192149169
H   H11       1.0  0.04000  0.86060  0.29520  1.0000 0.1192149169
H   H12       1.0  0.29520  0.04000  0.86060  1.0000 0.1192149169
H   H13       1.0  0.26940  0.86000  0.13570  1.0000 0.1287330025
H   H14       1.0  0.86000  0.13570  0.26940  1.0000 0.1287330025
H   H15       1.0  0.13570  0.26940  0.86000  1.0000 0.1287330025
H   H16       1.0  0.14000  0.73060  0.86430  1.0000 0.1287330025
H   H17       1.0  0.86430  0.14000  0.73060  1.0000 0.1287330025
H   H18       1.0  0.73060  0.86430  0.14000  1.0000 0.1287330025
H   H19       1.0  0.73060  0.14000  0.86430  1.0000 0.1287330025
H   H20       1.0  0.14000  0.86430  0.73060  1.0000 0.1287330025
H   H21       1.0  0.86430  0.73060  0.14000  1.0000 0.1287330025
H   H22       1.0  0.86000  0.26940  0.13570  1.0000 0.1287330025
H   H23       1.0  0.13570  0.86000  0.26940  1.0000 0.1287330025
H   H24       1.0  0.26940  0.13570  0.86000  1.0000 0.1287330025
H   H25       1.0  0.54520  0.11700  0.37450  1.0000 0.1192149169
H   H26       1.0  0.11700  0.37450  0.54520  1.0000 0.1192149169
H   H27       1.0  0.37450  0.54520  0.11700  1.0000 0.1192149169
H   H28       1.0  0.88300  0.45480  0.62550  1.0000 0.1192149169
H   H29       1.0  0.62550  0.88300  0.45480  1.0000 0.1192149169
H   H30       1.0  0.45480  0.62550  0.88300  1.0000 0.1192149169
H   H31       1.0  0.45480  0.88300  0.62550  1.0000 0.1192149169
H   H32       1.0  0.88300  0.62550  0.45480  1.0000 0.1192149169
H   H33       1.0  0.62550  0.45480  0.88300  1.0000 0.1192149169
H   H34       1.0  0.11700  0.54520  0.37450  1.0000 0.1192149169
H   H35       1.0  0.37450  0.11700  0.54520  1.0000 0.1192149169
H   H36       1.0  0.54520  0.37450  0.11700  1.0000 0.1192149169
H   H37       1.0  0.56850  0.11830  0.27760  1.0000 0.1287330025
H   H38       1.0  0.11830  0.27760  0.56850  1.0000 0.1287330025
H   H39       1.0  0.27760  0.56850  0.11830  1.0000 0.1287330025
H   H40       1.0  0.88170  0.43150  0.72240  1.0000 0.1287330025
H   H41       1.0  0.72240  0.88170  0.43150  1.0000 0.1287330025
H   H42       1.0  0.43150  0.72240  0.88170  1.0000 0.1287330025
H   H43       1.0  0.43150  0.88170  0.72240  1.0000 0.1287330025
H   H44       1.0  0.88170  0.72240  0.43150  1.0000 0.1287330025
H   H45       1.0  0.72240  0.43150  0.88170  1.0000 0.1287330025
H   H46       1.0  0.11830  0.56850  0.27760  1.0000 0.1287330025
H   H47       1.0  0.27760  0.11830  0.56850  1.0000 0.1287330025
H   H48       1.0  0.56850  0.27760  0.11830  1.0000 0.1287330025
H   H49       1.0  0.50970  0.99590  0.39730  1.0000 0.1120768856
H   H50       1.0  0.99590  0.39730  0.50970  1.0000 0.1120768856
H   H51       1.0  0.39730  0.50970  0.99590  1.0000 0.1120768856
H   H52       1.0  0.00410  0.49030  0.60270  1.0000 0.1120768856
H   H53       1.0  0.60270  0.00410  0.49030  1.0000 0.1120768856
H   H54       1.0  0.49030  0.60270  0.00410  1.0000 0.1120768856
H   H55       1.0  0.49030  0.00410  0.60270  1.0000 0.1120768856
H   H56       1.0  0.00410  0.60270  0.49030  1.0000 0.1120768856
H   H57       1.0  0.60270  0.49030  0.00410  1.0000 0.1120768856
H   H58       1.0  0.99590  0.50970  0.39730  1.0000 0.1120768856
H   H59       1.0  0.39730  0.99590  0.50970  1.0000 0.1120768856
H   H60       1.0  0.50970  0.39730  0.99590  1.0000 0.1120768856
H   H61       1.0  0.25730  0.05680  0.25730  1.0000 0.1120768856
H   H62       1.0  0.05680  0.25730  0.25730  1.0000 0.1120768856
H   H63       1.0  0.25730  0.25730  0.05680  1.0000 0.1120768856
H   H64       1.0  0.94320  0.74270  0.74270  1.0000 0.1120768856
H   H65       1.0  0.74270  0.94320  0.74270  1.0000 0.1120768856
H   H66       1.0  0.74270  0.74270  0.94320  1.0000 0.1120768856
H   H67       1.0  0.31990  0.10050  0.36460  1.0000 0.0992659426
H   H68       1.0  0.10050  0.36460  0.31990  1.0000 0.0992659426
H   H69       1.0  0.36460  0.31990  0.10050  1.0000 0.0992659426
H   H70       1.0  0.89950  0.68010  0.63540  1.0000 0.0992659426
H   H71       1.0  0.63540  0.89950  0.68010  1.0000 0.0992659426
H   H72       1.0  0.68010  0.63540  0.89950  1.0000 0.0992659426
H   H73       1.0  0.68010  0.89950  0.63540  1.0000 0.0992659426
H   H74       1.0  0.89950  0.63540  0.68010  1.0000 0.0992659426
H   H75       1.0  0.63540  0.68010  0.89950  1.0000 0.0992659426
H   H76       1.0  0.10050  0.31990  0.36460  1.0000 0.0992659426
H   H77       1.0  0.36460  0.10050  0.31990  1.0000 0.0992659426
H   H78       1.0  0.31990  0.36460  0.10050  1.0000 0.0992659426
C   C1        1.0  0.45167  0.98711  0.08672  1.0000 0.5732560204
C   C2        1.0  0.98711  0.08672  0.45167  1.0000 0.5732560204
C   C3        1.0  0.08672  0.45167  0.98711  1.0000 0.5732560204
C   C4        1.0  0.01289  0.54833  0.91328  1.0000 0.5732560204
C   C5        1.0  0.91328  0.01289  0.54833  1.0000 0.5732560204
C   C6        1.0  0.54833  0.91328  0.01289  1.0000 0.5732560204
C   C7        1.0  0.54833  0.01289  0.91328  1.0000 0.5732560204
C   C8        1.0  0.01289  0.91328  0.54833  1.0000 0.5732560204
C   C9        1.0  0.91328  0.54833  0.01289  1.0000 0.5732560204
C   C10       1.0  0.98711  0.45167  0.08672  1.0000 0.5732560204
C   C11       1.0  0.08672  0.98711  0.45167  1.0000 0.5732560204
C   C12       1.0  0.45167  0.08672  0.98711  1.0000 0.5732560204
C   C13       1.0  0.43324  0.98671  0.14785  1.0000 -0.0165334802
C   C14       1.0  0.98671  0.14785  0.43324  1.0000 -0.0165334802
C   C15       1.0  0.14785  0.43324  0.98671  1.0000 -0.0165334802
C   C16       1.0  0.01329  0.56676  0.85215  1.0000 -0.0165334802
C   C17       1.0  0.85215  0.01329  0.56676  1.0000 -0.0165334802
C   C18       1.0  0.56676  0.85215  0.01329  1.0000 -0.0165334802
C   C19       1.0  0.56676  0.01329  0.85215  1.0000 -0.0165334802
C   C20       1.0  0.01329  0.85215  0.56676  1.0000 -0.0165334802
C   C21       1.0  0.85215  0.56676  0.01329  1.0000 -0.0165334802
C   C22       1.0  0.98671  0.43324  0.14785  1.0000 -0.0165334802
C   C23       1.0  0.14785  0.98671  0.43324  1.0000 -0.0165334802
C   C24       1.0  0.43324  0.14785  0.98671  1.0000 -0.0165334802
C   C25       1.0  0.34749  0.91345  0.10886  1.0000 -0.0908290561
C   C26       1.0  0.91345  0.10886  0.34749  1.0000 -0.0908290561
C   C27       1.0  0.10886  0.34749  0.91345  1.0000 -0.0908290561
C   C28       1.0  0.08655  0.65251  0.89114  1.0000 -0.0908290561
C   C29       1.0  0.89114  0.08655  0.65251  1.0000 -0.0908290561
C   C30       1.0  0.65251  0.89114  0.08655  1.0000 -0.0908290561
C   C31       1.0  0.65251  0.08655  0.89114  1.0000 -0.0908290561
C   C32       1.0  0.08655  0.89114  0.65251  1.0000 -0.0908290561
C   C33       1.0  0.89114  0.65251  0.08655  1.0000 -0.0908290561
C   C34       1.0  0.91345  0.34749  0.10886  1.0000 -0.0908290561
C   C35       1.0  0.10886  0.91345  0.34749  1.0000 -0.0908290561
C   C36       1.0  0.34749  0.10886  0.91345  1.0000 -0.0908290561
C   C37       1.0  0.33231  0.91216  0.16613  1.0000 -0.1436709741
C   C38       1.0  0.91216  0.16613  0.33231  1.0000 -0.1436709741
C   C39       1.0  0.16613  0.33231  0.91216  1.0000 -0.1436709741
C   C40       1.0  0.08784  0.66769  0.83387  1.0000 -0.1436709741
C   C41       1.0  0.83387  0.08784  0.66769  1.0000 -0.1436709741
C   C42       1.0  0.66769  0.83387  0.08784  1.0000 -0.1436709741
C   C43       1.0  0.66769  0.08784  0.83387  1.0000 -0.1436709741
C   C44       1.0  0.08784  0.83387  0.66769  1.0000 -0.1436709741
C   C45       1.0  0.83387  0.66769  0.08784  1.0000 -0.1436709741
C   C46       1.0  0.91216  0.33231  0.16613  1.0000 -0.1436709741
C   C47       1.0  0.16613  0.91216  0.33231  1.0000 -0.1436709741
C   C48       1.0  0.33231  0.16613  0.91216  1.0000 -0.1436709741
C   C49       1.0  0.40565  0.98391  0.26434  1.0000 0.0862605071
C   C50       1.0  0.98391  0.26434  0.40565  1.0000 0.0862605071
C   C51       1.0  0.26434  0.40565  0.98391  1.0000 0.0862605071
C   C52       1.0  0.01609  0.59435  0.73566  1.0000 0.0862605071
C   C53       1.0  0.73566  0.01609  0.59435  1.0000 0.0862605071
C   C54       1.0  0.59435  0.73566  0.01609  1.0000 0.0862605071
C   C55       1.0  0.59435  0.01609  0.73566  1.0000 0.0862605071
C   C56       1.0  0.01609  0.73566  0.59435  1.0000 0.0862605071
C   C57       1.0  0.73566  0.59435  0.01609  1.0000 0.0862605071
C   C58       1.0  0.98391  0.40565  0.26434  1.0000 0.0862605071
C   C59       1.0  0.26434  0.98391  0.40565  1.0000 0.0862605071
C   C60       1.0  0.40565  0.26434  0.98391  1.0000 0.0862605071
C   C61       1.0  0.49379  0.06304  0.30587  1.0000 -0.1562430502
C   C62       1.0  0.06304  0.30587  0.49379  1.0000 -0.1562430502
C   C63       1.0  0.30587  0.49379  0.06304  1.0000 -0.1562430502
C   C64       1.0  0.93696  0.50621  0.69413  1.0000 -0.1562430502
C   C65       1.0  0.69413  0.93696  0.50621  1.0000 -0.1562430502
C   C66       1.0  0.50621  0.69413  0.93696  1.0000 -0.1562430502
C   C67       1.0  0.50621  0.93696  0.69413  1.0000 -0.1562430502
C   C68       1.0  0.93696  0.69413  0.50621  1.0000 -0.1562430502
C   C69       1.0  0.69413  0.50621  0.93696  1.0000 -0.1562430502
C   C70       1.0  0.06304  0.49379  0.30587  1.0000 -0.1562430502
C   C71       1.0  0.30587  0.06304  0.49379  1.0000 -0.1562430502
C   C72       1.0  0.49379  0.30587  0.06304  1.0000 -0.1562430502
C   C73       1.0  0.50747  0.06398  0.24805  1.0000 -0.0958392506
C   C74       1.0  0.06398  0.24805  0.50747  1.0000 -0.0958392506
C   C75       1.0  0.24805  0.50747  0.06398  1.0000 -0.0958392506
C   C76       1.0  0.93602  0.49253  0.75195  1.0000 -0.0958392506
C   C77       1.0  0.75195  0.93602  0.49253  1.0000 -0.0958392506
C   C78       1.0  0.49253  0.75195  0.93602  1.0000 -0.0958392506
C   C79       1.0  0.49253  0.93602  0.75195  1.0000 -0.0958392506
C   C80       1.0  0.93602  0.75195  0.49253  1.0000 -0.0958392506
C   C81       1.0  0.75195  0.49253  0.93602  1.0000 -0.0958392506
C   C82       1.0  0.06398  0.50747  0.24805  1.0000 -0.0958392506
C   C83       1.0  0.24805  0.06398  0.50747  1.0000 -0.0958392506
C   C84       1.0  0.50747  0.24805  0.06398  1.0000 -0.0958392506
C   C85       1.0  0.39710  0.98195  0.32975  1.0000 -0.0255320485
C   C86       1.0  0.98195  0.32975  0.39710  1.0000 -0.0255320485
C   C87       1.0  0.32975  0.39710  0.98195  1.0000 -0.0255320485
C   C88       1.0  0.01805  0.60290  0.67025  1.0000 -0.0255320485
C   C89       1.0  0.67025  0.01805  0.60290  1.0000 -0.0255320485
C   C90       1.0  0.60290  0.67025  0.01805  1.0000 -0.0255320485
C   C91       1.0  0.60290  0.01805  0.67025  1.0000 -0.0255320485
C   C92       1.0  0.01805  0.67025  0.60290  1.0000 -0.0255320485
C   C93       1.0  0.67025  0.60290  0.01805  1.0000 -0.0255320485
C   C94       1.0  0.98195  0.39710  0.32975  1.0000 -0.0255320485
C   C95       1.0  0.32975  0.98195  0.39710  1.0000 -0.0255320485
C   C96       1.0  0.39710  0.32975  0.98195  1.0000 -0.0255320485
C   C97       1.0  0.46357  0.99167  0.39726  1.0000 -0.191790803
C   C98       1.0  0.99167  0.39726  0.46357  1.0000 -0.191790803
C   C99       1.0  0.39726  0.46357  0.99167  1.0000 -0.191790803
C   C100      1.0  0.00833  0.53643  0.60274  1.0000 -0.191790803
C   C101      1.0  0.60274  0.00833  0.53643  1.0000 -0.191790803
C   C102      1.0  0.53643  0.60274  0.00833  1.0000 -0.191790803
C   C103      1.0  0.53643  0.00833  0.60274  1.0000 -0.191790803
C   C104      1.0  0.00833  0.60274  0.53643  1.0000 -0.191790803
C   C105      1.0  0.60274  0.53643  0.00833  1.0000 -0.191790803
C   C106      1.0  0.99167  0.46357  0.39726  1.0000 -0.191790803
C   C107      1.0  0.39726  0.99167  0.46357  1.0000 -0.191790803
C   C108      1.0  0.46357  0.39726  0.99167  1.0000 -0.191790803
C   C109      1.0  0.46507  0.99557  0.46507  1.0000 0.0709211152
C   C110      1.0  0.99557  0.46507  0.46507  1.0000 0.0709211152
C   C111      1.0  0.46507  0.46507  0.99557  1.0000 0.0709211152
C   C112      1.0  0.00443  0.53494  0.53494  1.0000 0.0709211152
C   C113      1.0  0.53494  0.00443  0.53494  1.0000 0.0709211152
C   C114      1.0  0.53494  0.53494  0.00443  1.0000 0.0709211152
C   C115      1.0  0.32968  0.97564  0.32968  1.0000 0.1486248469
C   C116      1.0  0.97564  0.32968  0.32968  1.0000 0.1486248469
C   C117      1.0  0.32968  0.32968  0.97564  1.0000 0.1486248469
C   C118      1.0  0.02436  0.67032  0.67032  1.0000 0.1486248469
C   C119      1.0  0.67032  0.02436  0.67032  1.0000 0.1486248469
C   C120      1.0  0.67032  0.67032  0.02436  1.0000 0.1486248469
C   C121      1.0  0.30490  0.06450  0.30490  1.0000 -0.2345934911
C   C122      1.0  0.06450  0.30490  0.30490  1.0000 -0.2345934911
C   C123      1.0  0.30490  0.30490  0.06450  1.0000 -0.2345934911
C   C124      1.0  0.93550  0.69510  0.69510  1.0000 -0.2345934911
C   C125      1.0  0.69510  0.93550  0.69510  1.0000 -0.2345934911
C   C126      1.0  0.69510  0.69510  0.93550  1.0000 -0.2345934911
O   O1        1.0  0.53936  0.05834  0.13531  1.0000 -0.5259643779
O   O2        1.0  0.05834  0.13531  0.53936  1.0000 -0.5259643779
O   O3        1.0  0.13531  0.53936  0.05834  1.0000 -0.5259643779
O   O4        1.0  0.94166  0.46064  0.86469  1.0000 -0.5246548259
O   O5        1.0  0.86469  0.94166  0.46064  1.0000 -0.5259643779
O   O6        1.0  0.46064  0.86469  0.94166  1.0000 -0.5259643779
O   O7        1.0  0.46064  0.94166  0.86469  1.0000 -0.5259643779
O   O8        1.0  0.94166  0.86469  0.46064  1.0000 -0.5259643779
O   O9        1.0  0.86469  0.46064  0.94166  1.0000 -0.5259643779
O   O10       1.0  0.05834  0.53936  0.13531  1.0000 -0.5259643779
O   O11       1.0  0.13531  0.05834  0.53936  1.0000 -0.5259643779
O   O12       1.0  0.53936  0.13531  0.05834  1.0000 -0.5259643779
O   O13       1.0  0.38292  0.91996  0.99720  1.0000 -0.4901986026
O   O14       1.0  0.91996  0.99720  0.38292  1.0000 -0.4901986026
O   O15       1.0  0.99720  0.38292  0.91996  1.0000 -0.4901986026
O   O16       1.0  0.08004  0.61708  0.00280  1.0000 -0.4901986026
O   O17       1.0  0.00280  0.08004  0.61708  1.0000 -0.4901986026
O   O18       1.0  0.61708  0.00280  0.08004  1.0000 -0.4901986026
O   O19       1.0  0.61708  0.08004  0.00280  1.0000 -0.4901986026
O   O20       1.0  0.08004  0.00280  0.61708  1.0000 -0.4901986026
O   O21       1.0  0.00280  0.61708  0.08004  1.0000 -0.4901986026
O   O22       1.0  0.91996  0.38292  0.99720  1.0000 -0.4901986026
O   O23       1.0  0.99720  0.91996  0.38292  1.0000 -0.4901986026
O   O24       1.0  0.38292  0.99720  0.91996  1.0000 -0.4901986026
O   O25       1.0  0.26459  0.96843  0.26459  1.0000 -0.191790803
O   O26       1.0  0.96843  0.26459  0.26459  1.0000 -0.191790803
O   O27       1.0  0.26459  0.26459  0.96843  1.0000 -0.191790803
O   O28       1.0  0.03157  0.73542  0.73542  1.0000 -0.191790803
O   O29       1.0  0.73542  0.03157  0.73542  1.0000 -0.191790803
O   O30       1.0  0.73542  0.73542  0.03157  1.0000 -0.191790803
