# DDEC6 charges by PACMAN v1.1 (https://github.com/mtap-research/PACMAN-charge/)
data_2016[Zr][csq]3[ASR]1
_chemical_formula_sum              "Zr18 H168 C288 O72"
_cell_length_a       45.4548
_cell_length_b       45.4548
_cell_length_c       15.5951
_cell_angle_alpha    90
_cell_angle_beta     90
_cell_angle_gamma    120

_symmetry_space_group_name_H-M    "P 1"
_symmetry_Int_Tables_number       1

loop_
  _symmetry_equiv_pos_as_xyz
  'x, y, z'

loop_
  _atom_site_type_symbol
  _atom_site_label
  _atom_site_symmetry_multiplicity
  _atom_site_fract_x
  _atom_site_fract_y
  _atom_site_fract_z
  _atom_site_occupancy
  _atom_site_charge
Zr  Zr1       1.0  0.46883  0.53117  0.50000  1.0000 2.2473461481
Zr  Zr2       1.0  0.46883  0.93766  0.50000  1.0000 2.2473461481
Zr  Zr3       1.0  0.06234  0.53117  0.50000  1.0000 2.2473461481
Zr  Zr4       1.0  0.53117  0.46883  0.50000  1.0000 2.2473461481
Zr  Zr5       1.0  0.53117  0.06234  0.50000  1.0000 2.2473461481
Zr  Zr6       1.0  0.93766  0.46883  0.50000  1.0000 2.2473461481
Zr  Zr7       1.0  0.46105  0.46105  0.61341  1.0000 2.2381542377
Zr  Zr8       1.0  0.53895  0.00000  0.61341  1.0000 2.2381542377
Zr  Zr9       1.0  0.00000  0.53895  0.61341  1.0000 2.2381542377
Zr  Zr10      1.0  0.53895  0.53895  0.61341  1.0000 2.2381542377
Zr  Zr11      1.0  0.46105  0.00000  0.61341  1.0000 2.2381542377
Zr  Zr12      1.0  0.00000  0.46105  0.61341  1.0000 2.2381542377
Zr  Zr13      1.0  0.46105  0.46105  0.38659  1.0000 2.2381542377
Zr  Zr14      1.0  0.00000  0.53895  0.38659  1.0000 2.2381542377
Zr  Zr15      1.0  0.53895  0.00000  0.38659  1.0000 2.2381542377
Zr  Zr16      1.0  0.53895  0.53895  0.38659  1.0000 2.2381542377
Zr  Zr17      1.0  0.00000  0.46105  0.38659  1.0000 2.2381542377
Zr  Zr18      1.0  0.46105  0.00000  0.38659  1.0000 2.2381542377
H   H1        1.0  0.53390  0.57930  0.50000  1.0000 0.3781087314
H   H2        1.0  0.42070  0.95460  0.50000  1.0000 0.3781087314
H   H3        1.0  0.04540  0.46610  0.50000  1.0000 0.3781087314
H   H4        1.0  0.46610  0.42070  0.50000  1.0000 0.3781087314
H   H5        1.0  0.57930  0.04540  0.50000  1.0000 0.3781087314
H   H6        1.0  0.95460  0.53390  0.50000  1.0000 0.3781087314
H   H7        1.0  0.57930  0.53390  0.50000  1.0000 0.3781087314
H   H8        1.0  0.95460  0.42070  0.50000  1.0000 0.3781087314
H   H9        1.0  0.46610  0.04540  0.50000  1.0000 0.3781087314
H   H10       1.0  0.42070  0.46610  0.50000  1.0000 0.3781087314
H   H11       1.0  0.04540  0.57930  0.50000  1.0000 0.3781087314
H   H12       1.0  0.53390  0.95460  0.50000  1.0000 0.3781087314
H   H13       1.0  0.37740  0.52440  0.60880  1.0000 0.1137356859
H   H14       1.0  0.47560  0.85300  0.60880  1.0000 0.1137356859
H   H15       1.0  0.14700  0.62260  0.60880  1.0000 0.1137356859
H   H16       1.0  0.62260  0.47560  0.60880  1.0000 0.1137356859
H   H17       1.0  0.52440  0.14700  0.60880  1.0000 0.1137356859
H   H18       1.0  0.85300  0.37740  0.60880  1.0000 0.1137356859
H   H19       1.0  0.52440  0.37740  0.39120  1.0000 0.1137356859
H   H20       1.0  0.85300  0.47560  0.39120  1.0000 0.1137356859
H   H21       1.0  0.62260  0.14700  0.39120  1.0000 0.1137356859
H   H22       1.0  0.47560  0.62260  0.39120  1.0000 0.1137356859
H   H23       1.0  0.14700  0.52440  0.39120  1.0000 0.1137356859
H   H24       1.0  0.37740  0.85300  0.39120  1.0000 0.1137356859
H   H25       1.0  0.62260  0.47560  0.39120  1.0000 0.1137356859
H   H26       1.0  0.52440  0.14700  0.39120  1.0000 0.1137356859
H   H27       1.0  0.85300  0.37740  0.39120  1.0000 0.1137356859
H   H28       1.0  0.37740  0.52440  0.39120  1.0000 0.1137356859
H   H29       1.0  0.47560  0.85300  0.39120  1.0000 0.1137356859
H   H30       1.0  0.14700  0.62260  0.39120  1.0000 0.1137356859
H   H31       1.0  0.47560  0.62260  0.60880  1.0000 0.1137356859
H   H32       1.0  0.14700  0.52440  0.60880  1.0000 0.1137356859
H   H33       1.0  0.37740  0.85300  0.60880  1.0000 0.1137356859
H   H34       1.0  0.52440  0.37740  0.60880  1.0000 0.1137356859
H   H35       1.0  0.85300  0.47560  0.60880  1.0000 0.1137356859
H   H36       1.0  0.62260  0.14700  0.60880  1.0000 0.1137356859
H   H37       1.0  0.33180  0.52360  0.68360  1.0000 0.09962293
H   H38       1.0  0.47640  0.80820  0.68360  1.0000 0.09962293
H   H39       1.0  0.19180  0.66820  0.68360  1.0000 0.09962293
H   H40       1.0  0.66820  0.47640  0.68360  1.0000 0.09962293
H   H41       1.0  0.52360  0.19180  0.68360  1.0000 0.09962293
H   H42       1.0  0.80820  0.33180  0.68360  1.0000 0.09962293
H   H43       1.0  0.52360  0.33180  0.31640  1.0000 0.09962293
H   H44       1.0  0.80820  0.47640  0.31640  1.0000 0.09962293
H   H45       1.0  0.66820  0.19180  0.31640  1.0000 0.09962293
H   H46       1.0  0.47640  0.66820  0.31640  1.0000 0.09962293
H   H47       1.0  0.19180  0.52360  0.31640  1.0000 0.09962293
H   H48       1.0  0.33180  0.80820  0.31640  1.0000 0.09962293
H   H49       1.0  0.66820  0.47640  0.31640  1.0000 0.09962293
H   H50       1.0  0.52360  0.19180  0.31640  1.0000 0.09962293
H   H51       1.0  0.80820  0.33180  0.31640  1.0000 0.09962293
H   H52       1.0  0.33180  0.52360  0.31640  1.0000 0.09962293
H   H53       1.0  0.47640  0.80820  0.31640  1.0000 0.09962293
H   H54       1.0  0.19180  0.66820  0.31640  1.0000 0.09962293
H   H55       1.0  0.47640  0.66820  0.68360  1.0000 0.09962293
H   H56       1.0  0.19180  0.52360  0.68360  1.0000 0.09962293
H   H57       1.0  0.33180  0.80820  0.68360  1.0000 0.09962293
H   H58       1.0  0.52360  0.33180  0.68360  1.0000 0.09962293
H   H59       1.0  0.80820  0.47640  0.68360  1.0000 0.09962293
H   H60       1.0  0.66820  0.19180  0.68360  1.0000 0.09962293
H   H61       1.0  0.32830  0.45060  0.84070  1.0000 0.09962293
H   H62       1.0  0.54940  0.87770  0.84070  1.0000 0.09962293
H   H63       1.0  0.12230  0.67170  0.84070  1.0000 0.09962293
H   H64       1.0  0.67170  0.54940  0.84070  1.0000 0.09962293
H   H65       1.0  0.45060  0.12230  0.84070  1.0000 0.09962293
H   H66       1.0  0.87770  0.32830  0.84070  1.0000 0.09962293
H   H67       1.0  0.45060  0.32830  0.15930  1.0000 0.09962293
H   H68       1.0  0.87770  0.54940  0.15930  1.0000 0.09962293
H   H69       1.0  0.67170  0.12230  0.15930  1.0000 0.09962293
H   H70       1.0  0.54940  0.67170  0.15930  1.0000 0.09962293
H   H71       1.0  0.12230  0.45060  0.15930  1.0000 0.09962293
H   H72       1.0  0.32830  0.87770  0.15930  1.0000 0.09962293
H   H73       1.0  0.67170  0.54940  0.15930  1.0000 0.09962293
H   H74       1.0  0.45060  0.12230  0.15930  1.0000 0.09962293
H   H75       1.0  0.87770  0.32830  0.15930  1.0000 0.09962293
H   H76       1.0  0.32830  0.45060  0.15930  1.0000 0.09962293
H   H77       1.0  0.54940  0.87770  0.15930  1.0000 0.09962293
H   H78       1.0  0.12230  0.67170  0.15930  1.0000 0.09962293
H   H79       1.0  0.54940  0.67170  0.84070  1.0000 0.09962293
H   H80       1.0  0.12230  0.45060  0.84070  1.0000 0.09962293
H   H81       1.0  0.32830  0.87770  0.84070  1.0000 0.09962293
H   H82       1.0  0.45060  0.32830  0.84070  1.0000 0.09962293
H   H83       1.0  0.87770  0.54940  0.84070  1.0000 0.09962293
H   H84       1.0  0.67170  0.12230  0.84070  1.0000 0.09962293
H   H85       1.0  0.37470  0.45320  0.76960  1.0000 0.09962293
H   H86       1.0  0.54680  0.92150  0.76960  1.0000 0.09962293
H   H87       1.0  0.07850  0.62530  0.76960  1.0000 0.09962293
H   H88       1.0  0.62530  0.54680  0.76960  1.0000 0.09962293
H   H89       1.0  0.45320  0.07850  0.76960  1.0000 0.09962293
H   H90       1.0  0.92150  0.37470  0.76960  1.0000 0.09962293
H   H91       1.0  0.45320  0.37470  0.23040  1.0000 0.09962293
H   H92       1.0  0.92150  0.54680  0.23040  1.0000 0.09962293
H   H93       1.0  0.62530  0.07850  0.23040  1.0000 0.09962293
H   H94       1.0  0.54680  0.62530  0.23040  1.0000 0.09962293
H   H95       1.0  0.07850  0.45320  0.23040  1.0000 0.09962293
H   H96       1.0  0.37470  0.92150  0.23040  1.0000 0.09962293
H   H97       1.0  0.62530  0.54680  0.23040  1.0000 0.09962293
H   H98       1.0  0.45320  0.07850  0.23040  1.0000 0.09962293
H   H99       1.0  0.92150  0.37470  0.23040  1.0000 0.09962293
H   H100      1.0  0.37470  0.45320  0.23040  1.0000 0.09962293
H   H101      1.0  0.54680  0.92150  0.23040  1.0000 0.09962293
H   H102      1.0  0.07850  0.62530  0.23040  1.0000 0.09962293
H   H103      1.0  0.54680  0.62530  0.76960  1.0000 0.09962293
H   H104      1.0  0.07850  0.45320  0.76960  1.0000 0.09962293
H   H105      1.0  0.37470  0.92150  0.76960  1.0000 0.09962293
H   H106      1.0  0.45320  0.37470  0.76960  1.0000 0.09962293
H   H107      1.0  0.92150  0.54680  0.76960  1.0000 0.09962293
H   H108      1.0  0.62530  0.07850  0.76960  1.0000 0.09962293
H   H109      1.0  0.27080  0.48740  0.71060  1.0000 0.09962293
H   H110      1.0  0.51260  0.78340  0.71060  1.0000 0.09962293
H   H111      1.0  0.21660  0.72920  0.71060  1.0000 0.09962293
H   H112      1.0  0.72920  0.51260  0.71060  1.0000 0.09962293
H   H113      1.0  0.48740  0.21660  0.71060  1.0000 0.09962293
H   H114      1.0  0.78340  0.27080  0.71060  1.0000 0.09962293
H   H115      1.0  0.48740  0.27080  0.28940  1.0000 0.09962293
H   H116      1.0  0.78340  0.51260  0.28940  1.0000 0.09962293
H   H117      1.0  0.72920  0.21660  0.28940  1.0000 0.09962293
H   H118      1.0  0.51260  0.72920  0.28940  1.0000 0.09962293
H   H119      1.0  0.21660  0.48740  0.28940  1.0000 0.09962293
H   H120      1.0  0.27080  0.78340  0.28940  1.0000 0.09962293
H   H121      1.0  0.72920  0.51260  0.28940  1.0000 0.09962293
H   H122      1.0  0.48740  0.21660  0.28940  1.0000 0.09962293
H   H123      1.0  0.78340  0.27080  0.28940  1.0000 0.09962293
H   H124      1.0  0.27080  0.48740  0.28940  1.0000 0.09962293
H   H125      1.0  0.51260  0.78340  0.28940  1.0000 0.09962293
H   H126      1.0  0.21660  0.72920  0.28940  1.0000 0.09962293
H   H127      1.0  0.51260  0.72920  0.71060  1.0000 0.09962293
H   H128      1.0  0.21660  0.48740  0.71060  1.0000 0.09962293
H   H129      1.0  0.27080  0.78340  0.71060  1.0000 0.09962293
H   H130      1.0  0.48740  0.27080  0.71060  1.0000 0.09962293
H   H131      1.0  0.78340  0.51260  0.71060  1.0000 0.09962293
H   H132      1.0  0.72920  0.21660  0.71060  1.0000 0.09962293
H   H133      1.0  0.31370  0.48410  0.93570  1.0000 0.0890211341
H   H134      1.0  0.51590  0.82960  0.93570  1.0000 0.0890211341
H   H135      1.0  0.17040  0.68630  0.93570  1.0000 0.0890211341
H   H136      1.0  0.68630  0.51590  0.93570  1.0000 0.0890211341
H   H137      1.0  0.48410  0.17040  0.93570  1.0000 0.0890211341
H   H138      1.0  0.82960  0.31370  0.93570  1.0000 0.0890211341
H   H139      1.0  0.48410  0.31370  0.06430  1.0000 0.0890211341
H   H140      1.0  0.82960  0.51590  0.06430  1.0000 0.0890211341
H   H141      1.0  0.68630  0.17040  0.06430  1.0000 0.0890211341
H   H142      1.0  0.51590  0.68630  0.06430  1.0000 0.0890211341
H   H143      1.0  0.17040  0.48410  0.06430  1.0000 0.0890211341
H   H144      1.0  0.31370  0.82960  0.06430  1.0000 0.0890211341
H   H145      1.0  0.68630  0.51590  0.06430  1.0000 0.0890211341
H   H146      1.0  0.48410  0.17040  0.06430  1.0000 0.0890211341
H   H147      1.0  0.82960  0.31370  0.06430  1.0000 0.0890211341
H   H148      1.0  0.31370  0.48410  0.06430  1.0000 0.0890211341
H   H149      1.0  0.51590  0.82960  0.06430  1.0000 0.0890211341
H   H150      1.0  0.17040  0.68630  0.06430  1.0000 0.0890211341
H   H151      1.0  0.51590  0.68630  0.93570  1.0000 0.0890211341
H   H152      1.0  0.17040  0.48410  0.93570  1.0000 0.0890211341
H   H153      1.0  0.31370  0.82960  0.93570  1.0000 0.0890211341
H   H154      1.0  0.48410  0.31370  0.93570  1.0000 0.0890211341
H   H155      1.0  0.82960  0.51590  0.93570  1.0000 0.0890211341
H   H156      1.0  0.68630  0.17040  0.93570  1.0000 0.0890211341
H   H157      1.0  0.47770  0.52230  0.33450  1.0000 0.3781087314
H   H158      1.0  0.47770  0.95540  0.33450  1.0000 0.3781087314
H   H159      1.0  0.04460  0.52230  0.33450  1.0000 0.3781087314
H   H160      1.0  0.52230  0.47770  0.33450  1.0000 0.3781087314
H   H161      1.0  0.52230  0.04460  0.33450  1.0000 0.3781087314
H   H162      1.0  0.95540  0.47770  0.33450  1.0000 0.3781087314
H   H163      1.0  0.52230  0.47770  0.66550  1.0000 0.3781087314
H   H164      1.0  0.95540  0.47770  0.66550  1.0000 0.3781087314
H   H165      1.0  0.52230  0.04460  0.66550  1.0000 0.3781087314
H   H166      1.0  0.47770  0.52230  0.66550  1.0000 0.3781087314
H   H167      1.0  0.04460  0.52230  0.66550  1.0000 0.3781087314
H   H168      1.0  0.47770  0.95540  0.66550  1.0000 0.3781087314
C   C1        1.0  0.41093  0.49219  0.63880  1.0000 0.6048662317
C   C2        1.0  0.50781  0.91874  0.63880  1.0000 0.6048662317
C   C3        1.0  0.08126  0.58907  0.63880  1.0000 0.6054352772
C   C4        1.0  0.58907  0.50781  0.63880  1.0000 0.6048662317
C   C5        1.0  0.49219  0.08126  0.63880  1.0000 0.6048662317
C   C6        1.0  0.91874  0.41093  0.63880  1.0000 0.6048662317
C   C7        1.0  0.49219  0.41093  0.36120  1.0000 0.6048662317
C   C8        1.0  0.91874  0.50781  0.36120  1.0000 0.6048662317
C   C9        1.0  0.58907  0.08126  0.36120  1.0000 0.6048662317
C   C10       1.0  0.50781  0.58907  0.36120  1.0000 0.6048662317
C   C11       1.0  0.08126  0.49219  0.36120  1.0000 0.6048662317
C   C12       1.0  0.41093  0.91874  0.36120  1.0000 0.6048662317
C   C13       1.0  0.58907  0.50781  0.36120  1.0000 0.6048662317
C   C14       1.0  0.49219  0.08126  0.36120  1.0000 0.6048662317
C   C15       1.0  0.91874  0.41093  0.36120  1.0000 0.6048662317
C   C16       1.0  0.41093  0.49219  0.36120  1.0000 0.6048662317
C   C17       1.0  0.50781  0.91874  0.36120  1.0000 0.6048662317
C   C18       1.0  0.08126  0.58907  0.36120  1.0000 0.6048662317
C   C19       1.0  0.50781  0.58907  0.63880  1.0000 0.6048662317
C   C20       1.0  0.08126  0.49219  0.63880  1.0000 0.6048662317
C   C21       1.0  0.41093  0.91874  0.63880  1.0000 0.6048662317
C   C22       1.0  0.49219  0.41093  0.63880  1.0000 0.6048662317
C   C23       1.0  0.91874  0.50781  0.63880  1.0000 0.6048662317
C   C24       1.0  0.58907  0.08126  0.63880  1.0000 0.6048662317
C   C25       1.0  0.38059  0.48961  0.68610  1.0000 -0.0465078877
C   C26       1.0  0.51039  0.89098  0.68610  1.0000 -0.0465078877
C   C27       1.0  0.10902  0.61941  0.68610  1.0000 -0.0465078877
C   C28       1.0  0.61941  0.51039  0.68610  1.0000 -0.0465078877
C   C29       1.0  0.48961  0.10902  0.68610  1.0000 -0.0465078877
C   C30       1.0  0.89098  0.38059  0.68610  1.0000 -0.0465078877
C   C31       1.0  0.48961  0.38059  0.31390  1.0000 -0.0465078877
C   C32       1.0  0.89098  0.51039  0.31390  1.0000 -0.0465078877
C   C33       1.0  0.61941  0.10902  0.31390  1.0000 -0.0465078877
C   C34       1.0  0.51039  0.61941  0.31390  1.0000 -0.0465078877
C   C35       1.0  0.10902  0.48961  0.31390  1.0000 -0.0465078877
C   C36       1.0  0.38059  0.89098  0.31390  1.0000 -0.0465078877
C   C37       1.0  0.61941  0.51039  0.31390  1.0000 -0.0465078877
C   C38       1.0  0.48961  0.10902  0.31390  1.0000 -0.0465078877
C   C39       1.0  0.89098  0.38059  0.31390  1.0000 -0.0465078877
C   C40       1.0  0.38059  0.48961  0.31390  1.0000 -0.0465078877
C   C41       1.0  0.51039  0.89098  0.31390  1.0000 -0.0465078877
C   C42       1.0  0.10902  0.61941  0.31390  1.0000 -0.0465078877
C   C43       1.0  0.51039  0.61941  0.68610  1.0000 -0.0465078877
C   C44       1.0  0.10902  0.48961  0.68610  1.0000 -0.0465078877
C   C45       1.0  0.38059  0.89098  0.68610  1.0000 -0.0465078877
C   C46       1.0  0.48961  0.38059  0.68610  1.0000 -0.0465078877
C   C47       1.0  0.89098  0.51039  0.68610  1.0000 -0.0465078877
C   C48       1.0  0.61941  0.10902  0.68610  1.0000 -0.0465078877
C   C49       1.0  0.36765  0.51009  0.65720  1.0000 -0.1096626459
C   C50       1.0  0.48991  0.85756  0.65720  1.0000 -0.1096626459
C   C51       1.0  0.14244  0.63235  0.65720  1.0000 -0.1096626459
C   C52       1.0  0.63235  0.48991  0.65720  1.0000 -0.1096626459
C   C53       1.0  0.51009  0.14244  0.65720  1.0000 -0.1096626459
C   C54       1.0  0.85756  0.36765  0.65720  1.0000 -0.1096626459
C   C55       1.0  0.51009  0.36765  0.34280  1.0000 -0.1096626459
C   C56       1.0  0.85756  0.48991  0.34280  1.0000 -0.1096626459
C   C57       1.0  0.63235  0.14244  0.34280  1.0000 -0.1096626459
C   C58       1.0  0.48991  0.63235  0.34280  1.0000 -0.1096626459
C   C59       1.0  0.14244  0.51009  0.34280  1.0000 -0.1096626459
C   C60       1.0  0.36765  0.85756  0.34280  1.0000 -0.1096626459
C   C61       1.0  0.63235  0.48991  0.34280  1.0000 -0.1096626459
C   C62       1.0  0.51009  0.14244  0.34280  1.0000 -0.1096626459
C   C63       1.0  0.85756  0.36765  0.34280  1.0000 -0.1096626459
C   C64       1.0  0.36765  0.51009  0.34280  1.0000 -0.1096626459
C   C65       1.0  0.48991  0.85756  0.34280  1.0000 -0.1096626459
C   C66       1.0  0.14244  0.63235  0.34280  1.0000 -0.1096626459
C   C67       1.0  0.48991  0.63235  0.65720  1.0000 -0.1096626459
C   C68       1.0  0.14244  0.51009  0.65720  1.0000 -0.1096626459
C   C69       1.0  0.36765  0.85756  0.65720  1.0000 -0.1096626459
C   C70       1.0  0.51009  0.36765  0.65720  1.0000 -0.1096626459
C   C71       1.0  0.85756  0.48991  0.65720  1.0000 -0.1096626459
C   C72       1.0  0.63235  0.14244  0.65720  1.0000 -0.1096626459
C   C73       1.0  0.34025  0.50909  0.70060  1.0000 -0.1773562745
C   C74       1.0  0.49091  0.83116  0.70060  1.0000 -0.1773562745
C   C75       1.0  0.16884  0.65975  0.70060  1.0000 -0.1773562745
C   C76       1.0  0.65975  0.49091  0.70060  1.0000 -0.1773562745
C   C77       1.0  0.50909  0.16884  0.70060  1.0000 -0.1773562745
C   C78       1.0  0.83116  0.34025  0.70060  1.0000 -0.1773562745
C   C79       1.0  0.50909  0.34025  0.29940  1.0000 -0.1773562745
C   C80       1.0  0.83116  0.49091  0.29940  1.0000 -0.1773562745
C   C81       1.0  0.65975  0.16884  0.29940  1.0000 -0.1773562745
C   C82       1.0  0.49091  0.65975  0.29940  1.0000 -0.1773562745
C   C83       1.0  0.16884  0.50909  0.29940  1.0000 -0.1773562745
C   C84       1.0  0.34025  0.83116  0.29940  1.0000 -0.1773562745
C   C85       1.0  0.65975  0.49091  0.29940  1.0000 -0.1773562745
C   C86       1.0  0.50909  0.16884  0.29940  1.0000 -0.1773562745
C   C87       1.0  0.83116  0.34025  0.29940  1.0000 -0.1773562745
C   C88       1.0  0.34025  0.50909  0.29940  1.0000 -0.1773562745
C   C89       1.0  0.49091  0.83116  0.29940  1.0000 -0.1773562745
C   C90       1.0  0.16884  0.65975  0.29940  1.0000 -0.1773562745
C   C91       1.0  0.49091  0.65975  0.70060  1.0000 -0.1773562745
C   C92       1.0  0.16884  0.50909  0.70060  1.0000 -0.1773562745
C   C93       1.0  0.34025  0.83116  0.70060  1.0000 -0.1773562745
C   C94       1.0  0.50909  0.34025  0.70060  1.0000 -0.1773562745
C   C95       1.0  0.83116  0.49091  0.70060  1.0000 -0.1773562745
C   C96       1.0  0.65975  0.16884  0.70060  1.0000 -0.1773562745
C   C97       1.0  0.32533  0.48661  0.76910  1.0000 0.0626202973
C   C98       1.0  0.51339  0.83872  0.76910  1.0000 0.0626202973
C   C99       1.0  0.16128  0.67467  0.76910  1.0000 0.0626202973
C   C100      1.0  0.67467  0.51339  0.76910  1.0000 0.0626202973
C   C101      1.0  0.48661  0.16128  0.76910  1.0000 0.0626202973
C   C102      1.0  0.83872  0.32533  0.76910  1.0000 0.0626202973
C   C103      1.0  0.48661  0.32533  0.23090  1.0000 0.0626202973
C   C104      1.0  0.83872  0.51339  0.23090  1.0000 0.0626202973
C   C105      1.0  0.67467  0.16128  0.23090  1.0000 0.0626202973
C   C106      1.0  0.51339  0.67467  0.23090  1.0000 0.0626202973
C   C107      1.0  0.16128  0.48661  0.23090  1.0000 0.0626202973
C   C108      1.0  0.32533  0.83872  0.23090  1.0000 0.0626202973
C   C109      1.0  0.67467  0.51339  0.23090  1.0000 0.0626202973
C   C110      1.0  0.48661  0.16128  0.23090  1.0000 0.0626202973
C   C111      1.0  0.83872  0.32533  0.23090  1.0000 0.0626202973
C   C112      1.0  0.32533  0.48661  0.23090  1.0000 0.0626202973
C   C113      1.0  0.51339  0.83872  0.23090  1.0000 0.0626202973
C   C114      1.0  0.16128  0.67467  0.23090  1.0000 0.0626202973
C   C115      1.0  0.51339  0.67467  0.76910  1.0000 0.0626202973
C   C116      1.0  0.16128  0.48661  0.76910  1.0000 0.0626202973
C   C117      1.0  0.32533  0.83872  0.76910  1.0000 0.0626202973
C   C118      1.0  0.48661  0.32533  0.76910  1.0000 0.0626202973
C   C119      1.0  0.83872  0.51339  0.76910  1.0000 0.0626202973
C   C120      1.0  0.67467  0.16128  0.76910  1.0000 0.0626202973
C   C121      1.0  0.33845  0.46593  0.79420  1.0000 -0.1773562745
C   C122      1.0  0.53407  0.87252  0.79420  1.0000 -0.1773562745
C   C123      1.0  0.12748  0.66155  0.79420  1.0000 -0.1773562745
C   C124      1.0  0.66155  0.53407  0.79420  1.0000 -0.1744562733
C   C125      1.0  0.46593  0.12748  0.79420  1.0000 -0.1773562745
C   C126      1.0  0.87252  0.33845  0.79420  1.0000 -0.1773562745
C   C127      1.0  0.46593  0.33845  0.20580  1.0000 -0.1773562745
C   C128      1.0  0.87252  0.53407  0.20580  1.0000 -0.1773562745
C   C129      1.0  0.66155  0.12748  0.20580  1.0000 -0.1773562745
C   C130      1.0  0.53407  0.66155  0.20580  1.0000 -0.1773562745
C   C131      1.0  0.12748  0.46593  0.20580  1.0000 -0.1773562745
C   C132      1.0  0.33845  0.87252  0.20580  1.0000 -0.1773562745
C   C133      1.0  0.66155  0.53407  0.20580  1.0000 -0.1773562745
C   C134      1.0  0.46593  0.12748  0.20580  1.0000 -0.1773562745
C   C135      1.0  0.87252  0.33845  0.20580  1.0000 -0.1773562745
C   C136      1.0  0.33845  0.46593  0.20580  1.0000 -0.1773562745
C   C137      1.0  0.53407  0.87252  0.20580  1.0000 -0.1773562745
C   C138      1.0  0.12748  0.66155  0.20580  1.0000 -0.1773562745
C   C139      1.0  0.53407  0.66155  0.79420  1.0000 -0.1773562745
C   C140      1.0  0.12748  0.46593  0.79420  1.0000 -0.1773562745
C   C141      1.0  0.33845  0.87252  0.79420  1.0000 -0.1773562745
C   C142      1.0  0.46593  0.33845  0.79420  1.0000 -0.1773562745
C   C143      1.0  0.87252  0.53407  0.79420  1.0000 -0.1744562733
C   C144      1.0  0.66155  0.12748  0.79420  1.0000 -0.1773562745
C   C145      1.0  0.36602  0.46749  0.75230  1.0000 -0.1096626459
C   C146      1.0  0.53251  0.89853  0.75230  1.0000 -0.1096626459
C   C147      1.0  0.10147  0.63398  0.75230  1.0000 -0.1096626459
C   C148      1.0  0.63398  0.53251  0.75230  1.0000 -0.1096626459
C   C149      1.0  0.46749  0.10147  0.75230  1.0000 -0.1096626459
C   C150      1.0  0.89853  0.36602  0.75230  1.0000 -0.1096626459
C   C151      1.0  0.46749  0.36602  0.24770  1.0000 -0.1096626459
C   C152      1.0  0.89853  0.53251  0.24770  1.0000 -0.1096626459
C   C153      1.0  0.63398  0.10147  0.24770  1.0000 -0.1096626459
C   C154      1.0  0.53251  0.63398  0.24770  1.0000 -0.1096626459
C   C155      1.0  0.10147  0.46749  0.24770  1.0000 -0.1096626459
C   C156      1.0  0.36602  0.89853  0.24770  1.0000 -0.1096626459
C   C157      1.0  0.63398  0.53251  0.24770  1.0000 -0.1096626459
C   C158      1.0  0.46749  0.10147  0.24770  1.0000 -0.1096626459
C   C159      1.0  0.89853  0.36602  0.24770  1.0000 -0.1096626459
C   C160      1.0  0.36602  0.46749  0.24770  1.0000 -0.1096626459
C   C161      1.0  0.53251  0.89853  0.24770  1.0000 -0.1096626459
C   C162      1.0  0.10147  0.63398  0.24770  1.0000 -0.1096626459
C   C163      1.0  0.53251  0.63398  0.75230  1.0000 -0.1096626459
C   C164      1.0  0.10147  0.46749  0.75230  1.0000 -0.1096626459
C   C165      1.0  0.36602  0.89853  0.75230  1.0000 -0.1096626459
C   C166      1.0  0.46749  0.36602  0.75230  1.0000 -0.1096626459
C   C167      1.0  0.89853  0.53251  0.75230  1.0000 -0.1096626459
C   C168      1.0  0.63398  0.10147  0.75230  1.0000 -0.1096626459
C   C169      1.0  0.29626  0.48527  0.81560  1.0000 0.0626202973
C   C170      1.0  0.51473  0.81099  0.81560  1.0000 0.0626202973
C   C171      1.0  0.18901  0.70374  0.81560  1.0000 0.0626202973
C   C172      1.0  0.70374  0.51473  0.81560  1.0000 0.0626202973
C   C173      1.0  0.48527  0.18901  0.81560  1.0000 0.0626202973
C   C174      1.0  0.81099  0.29626  0.81560  1.0000 0.0626202973
C   C175      1.0  0.48527  0.29626  0.18440  1.0000 0.0626202973
C   C176      1.0  0.81099  0.51473  0.18440  1.0000 0.0626202973
C   C177      1.0  0.70374  0.18901  0.18440  1.0000 0.0626202973
C   C178      1.0  0.51473  0.70374  0.18440  1.0000 0.0626202973
C   C179      1.0  0.18901  0.48527  0.18440  1.0000 0.0626202973
C   C180      1.0  0.29626  0.81099  0.18440  1.0000 0.0626202973
C   C181      1.0  0.70374  0.51473  0.18440  1.0000 0.0626202973
C   C182      1.0  0.48527  0.18901  0.18440  1.0000 0.0626202973
C   C183      1.0  0.81099  0.29626  0.18440  1.0000 0.0626202973
C   C184      1.0  0.29626  0.48527  0.18440  1.0000 0.0626202973
C   C185      1.0  0.51473  0.81099  0.18440  1.0000 0.0626202973
C   C186      1.0  0.18901  0.70374  0.18440  1.0000 0.0626202973
C   C187      1.0  0.51473  0.70374  0.81560  1.0000 0.0626202973
C   C188      1.0  0.18901  0.48527  0.81560  1.0000 0.0626202973
C   C189      1.0  0.29626  0.81099  0.81560  1.0000 0.0626202973
C   C190      1.0  0.48527  0.29626  0.81560  1.0000 0.0626202973
C   C191      1.0  0.81099  0.51473  0.81560  1.0000 0.0626202973
C   C192      1.0  0.70374  0.18901  0.81560  1.0000 0.0626202973
C   C193      1.0  0.27014  0.48614  0.77150  1.0000 -0.2353552479
C   C194      1.0  0.51386  0.78400  0.77150  1.0000 -0.2353552479
C   C195      1.0  0.21600  0.72986  0.77150  1.0000 -0.2353552479
C   C196      1.0  0.72986  0.51386  0.77150  1.0000 -0.2353552479
C   C197      1.0  0.48614  0.21600  0.77150  1.0000 -0.2353552479
C   C198      1.0  0.78400  0.27014  0.77150  1.0000 -0.2353552479
C   C199      1.0  0.48614  0.27014  0.22850  1.0000 -0.2353552479
C   C200      1.0  0.78400  0.51386  0.22850  1.0000 -0.2353552479
C   C201      1.0  0.72986  0.21600  0.22850  1.0000 -0.2353552479
C   C202      1.0  0.51386  0.72986  0.22850  1.0000 -0.2353552479
C   C203      1.0  0.21600  0.48614  0.22850  1.0000 -0.2353552479
C   C204      1.0  0.27014  0.78400  0.22850  1.0000 -0.2353552479
C   C205      1.0  0.72986  0.51386  0.22850  1.0000 -0.2353552479
C   C206      1.0  0.48614  0.21600  0.22850  1.0000 -0.2353552479
C   C207      1.0  0.78400  0.27014  0.22850  1.0000 -0.2353552479
C   C208      1.0  0.27014  0.48614  0.22850  1.0000 -0.2353552479
C   C209      1.0  0.51386  0.78400  0.22850  1.0000 -0.2353552479
C   C210      1.0  0.21600  0.72986  0.22850  1.0000 -0.2353552479
C   C211      1.0  0.51386  0.72986  0.77150  1.0000 -0.2353552479
C   C212      1.0  0.21600  0.48614  0.77150  1.0000 -0.2353552479
C   C213      1.0  0.27014  0.78400  0.77150  1.0000 -0.2353552479
C   C214      1.0  0.48614  0.27014  0.77150  1.0000 -0.2353552479
C   C215      1.0  0.78400  0.51386  0.77150  1.0000 -0.2353552479
C   C216      1.0  0.72986  0.21600  0.77150  1.0000 -0.2353552479
C   C217      1.0  0.24260  0.48520  0.81630  1.0000 0.0800039894
C   C218      1.0  0.51480  0.75740  0.81630  1.0000 0.0800039894
C   C219      1.0  0.24260  0.75740  0.81630  1.0000 0.0800039894
C   C220      1.0  0.75740  0.51480  0.81630  1.0000 0.0800039894
C   C221      1.0  0.48520  0.24260  0.81630  1.0000 0.0800039894
C   C222      1.0  0.75740  0.24260  0.81630  1.0000 0.0800039894
C   C223      1.0  0.48520  0.24260  0.18370  1.0000 0.0800039894
C   C224      1.0  0.75740  0.51480  0.18370  1.0000 0.0800039894
C   C225      1.0  0.75740  0.24260  0.18370  1.0000 0.0800039894
C   C226      1.0  0.51480  0.75740  0.18370  1.0000 0.0800039894
C   C227      1.0  0.24260  0.48520  0.18370  1.0000 0.0800039894
C   C228      1.0  0.24260  0.75740  0.18370  1.0000 0.0800039894
C   C229      1.0  0.24240  0.48480  0.90900  1.0000 -0.033671267
C   C230      1.0  0.51520  0.75760  0.90900  1.0000 -0.033671267
C   C231      1.0  0.24240  0.75760  0.90900  1.0000 -0.033671267
C   C232      1.0  0.75760  0.51520  0.90900  1.0000 -0.033671267
C   C233      1.0  0.48480  0.24240  0.90900  1.0000 -0.033671267
C   C234      1.0  0.75760  0.24240  0.90900  1.0000 -0.033671267
C   C235      1.0  0.48480  0.24240  0.09100  1.0000 -0.033671267
C   C236      1.0  0.75760  0.51520  0.09100  1.0000 -0.033671267
C   C237      1.0  0.75760  0.24240  0.09100  1.0000 -0.033671267
C   C238      1.0  0.51520  0.75760  0.09100  1.0000 -0.033671267
C   C239      1.0  0.24240  0.48480  0.09100  1.0000 -0.033671267
C   C240      1.0  0.24240  0.75760  0.09100  1.0000 -0.033671267
C   C241      1.0  0.26973  0.48447  0.95330  1.0000 0.0239455342
C   C242      1.0  0.51553  0.78526  0.95330  1.0000 0.0239455342
C   C243      1.0  0.21474  0.73027  0.95330  1.0000 0.0239455342
C   C244      1.0  0.73027  0.51553  0.95330  1.0000 0.0239455342
C   C245      1.0  0.48447  0.21474  0.95330  1.0000 0.0239455342
C   C246      1.0  0.78526  0.26973  0.95330  1.0000 0.0239455342
C   C247      1.0  0.48447  0.26973  0.04670  1.0000 0.0239455342
C   C248      1.0  0.78526  0.51553  0.04670  1.0000 0.0239455342
C   C249      1.0  0.73027  0.21474  0.04670  1.0000 0.0239455342
C   C250      1.0  0.51553  0.73027  0.04670  1.0000 0.0239455342
C   C251      1.0  0.21474  0.48447  0.04670  1.0000 0.0239455342
C   C252      1.0  0.26973  0.78526  0.04670  1.0000 0.0239455342
C   C253      1.0  0.73027  0.51553  0.04670  1.0000 0.0239455342
C   C254      1.0  0.48447  0.21474  0.04670  1.0000 0.0239455342
C   C255      1.0  0.78526  0.26973  0.04670  1.0000 0.0239455342
C   C256      1.0  0.26973  0.48447  0.04670  1.0000 0.0239455342
C   C257      1.0  0.51553  0.78526  0.04670  1.0000 0.0239455342
C   C258      1.0  0.21474  0.73027  0.04670  1.0000 0.0239455342
C   C259      1.0  0.51553  0.73027  0.95330  1.0000 0.0239455342
C   C260      1.0  0.21474  0.48447  0.95330  1.0000 0.0239455342
C   C261      1.0  0.26973  0.78526  0.95330  1.0000 0.0239455342
C   C262      1.0  0.48447  0.26973  0.95330  1.0000 0.0239455342
C   C263      1.0  0.78526  0.51553  0.95330  1.0000 0.0239455342
C   C264      1.0  0.73027  0.21474  0.95330  1.0000 0.0239455342
C   C265      1.0  0.29565  0.48456  0.90600  1.0000 -0.2218072661
C   C266      1.0  0.51544  0.81109  0.90600  1.0000 -0.2218072661
C   C267      1.0  0.18891  0.70435  0.90600  1.0000 -0.2218072661
C   C268      1.0  0.70435  0.51544  0.90600  1.0000 -0.2218072661
C   C269      1.0  0.48456  0.18891  0.90600  1.0000 -0.2218072661
C   C270      1.0  0.81109  0.29565  0.90600  1.0000 -0.2218072661
C   C271      1.0  0.48456  0.29565  0.09400  1.0000 -0.2218072661
C   C272      1.0  0.81109  0.51544  0.09400  1.0000 -0.2218072661
C   C273      1.0  0.70435  0.18891  0.09400  1.0000 -0.2218072661
C   C274      1.0  0.51544  0.70435  0.09400  1.0000 -0.2218072661
C   C275      1.0  0.18891  0.48456  0.09400  1.0000 -0.2218072661
C   C276      1.0  0.29565  0.81109  0.09400  1.0000 -0.2218072661
C   C277      1.0  0.70435  0.51544  0.09400  1.0000 -0.2218072661
C   C278      1.0  0.48456  0.18891  0.09400  1.0000 -0.2218072661
C   C279      1.0  0.81109  0.29565  0.09400  1.0000 -0.2218072661
C   C280      1.0  0.29565  0.48456  0.09400  1.0000 -0.2218072661
C   C281      1.0  0.51544  0.81109  0.09400  1.0000 -0.2218072661
C   C282      1.0  0.18891  0.70435  0.09400  1.0000 -0.2218072661
C   C283      1.0  0.51544  0.70435  0.90600  1.0000 -0.2218072661
C   C284      1.0  0.18891  0.48456  0.90600  1.0000 -0.2218072661
C   C285      1.0  0.29565  0.81109  0.90600  1.0000 -0.2218072661
C   C286      1.0  0.48456  0.29565  0.90600  1.0000 -0.2218072661
C   C287      1.0  0.81109  0.51544  0.90600  1.0000 -0.2218072661
C   C288      1.0  0.70435  0.18891  0.90600  1.0000 -0.2218072661
O   O1        1.0  0.42525  0.51597  0.58533  1.0000 -0.6090150474
O   O2        1.0  0.48403  0.90928  0.58533  1.0000 -0.6090150474
O   O3        1.0  0.09072  0.57475  0.58533  1.0000 -0.6090150474
O   O4        1.0  0.57475  0.48403  0.58533  1.0000 -0.6090150474
O   O5        1.0  0.51597  0.09072  0.58533  1.0000 -0.6090150474
O   O6        1.0  0.90928  0.42525  0.58533  1.0000 -0.6090150474
O   O7        1.0  0.51597  0.42525  0.41467  1.0000 -0.6090150474
O   O8        1.0  0.90928  0.48403  0.41467  1.0000 -0.6090150474
O   O9        1.0  0.57475  0.09072  0.41467  1.0000 -0.6090150474
O   O10       1.0  0.48403  0.57475  0.41467  1.0000 -0.6090150474
O   O11       1.0  0.09072  0.51597  0.41467  1.0000 -0.6090150474
O   O12       1.0  0.42525  0.90928  0.41467  1.0000 -0.6090150474
O   O13       1.0  0.57475  0.48403  0.41467  1.0000 -0.6090150474
O   O14       1.0  0.51597  0.09072  0.41467  1.0000 -0.6090150474
O   O15       1.0  0.90928  0.42525  0.41467  1.0000 -0.6090150474
O   O16       1.0  0.42525  0.51597  0.41467  1.0000 -0.6090150474
O   O17       1.0  0.48403  0.90928  0.41467  1.0000 -0.6090150474
O   O18       1.0  0.09072  0.57475  0.41467  1.0000 -0.6090150474
O   O19       1.0  0.48403  0.57475  0.58533  1.0000 -0.6090150474
O   O20       1.0  0.09072  0.51597  0.58533  1.0000 -0.6090150474
O   O21       1.0  0.42525  0.90928  0.58533  1.0000 -0.6090150474
O   O22       1.0  0.51597  0.42525  0.58533  1.0000 -0.6090150474
O   O23       1.0  0.90928  0.48403  0.58533  1.0000 -0.6090150474
O   O24       1.0  0.57475  0.09072  0.58533  1.0000 -0.6090150474
O   O25       1.0  0.41967  0.47071  0.65870  1.0000 -0.6561056522
O   O26       1.0  0.52929  0.94896  0.65870  1.0000 -0.6561056522
O   O27       1.0  0.05104  0.58033  0.65870  1.0000 -0.6561056522
O   O28       1.0  0.58033  0.52929  0.65870  1.0000 -0.6561056522
O   O29       1.0  0.47071  0.05104  0.65870  1.0000 -0.6561056522
O   O30       1.0  0.94896  0.41967  0.65870  1.0000 -0.6561056522
O   O31       1.0  0.47071  0.41967  0.34130  1.0000 -0.6561056522
O   O32       1.0  0.94896  0.52929  0.34130  1.0000 -0.6561056522
O   O33       1.0  0.58033  0.05104  0.34130  1.0000 -0.6561056522
O   O34       1.0  0.52929  0.58033  0.34130  1.0000 -0.6561056522
O   O35       1.0  0.05104  0.47071  0.34130  1.0000 -0.6561056522
O   O36       1.0  0.41967  0.94896  0.34130  1.0000 -0.6561056522
O   O37       1.0  0.58033  0.52929  0.34130  1.0000 -0.6561056522
O   O38       1.0  0.47071  0.05104  0.34130  1.0000 -0.6561056522
O   O39       1.0  0.94896  0.41967  0.34130  1.0000 -0.6561056522
O   O40       1.0  0.41967  0.47071  0.34130  1.0000 -0.6561056522
O   O41       1.0  0.52929  0.94896  0.34130  1.0000 -0.6561056522
O   O42       1.0  0.05104  0.58033  0.34130  1.0000 -0.6561056522
O   O43       1.0  0.52929  0.58033  0.65870  1.0000 -0.6561056522
O   O44       1.0  0.05104  0.47071  0.65870  1.0000 -0.6561056522
O   O45       1.0  0.41967  0.94896  0.65870  1.0000 -0.6561056522
O   O46       1.0  0.47071  0.41967  0.65870  1.0000 -0.6561056522
O   O47       1.0  0.94896  0.52929  0.65870  1.0000 -0.6561056522
O   O48       1.0  0.58033  0.05104  0.65870  1.0000 -0.6561056522
O   O49       1.0  0.52347  0.55399  0.50000  1.0000 -1.0991887399
O   O50       1.0  0.44601  0.96948  0.50000  1.0000 -1.0991887399
O   O51       1.0  0.03052  0.47653  0.50000  1.0000 -1.0991887399
O   O52       1.0  0.47653  0.44601  0.50000  1.0000 -1.0991887399
O   O53       1.0  0.55399  0.03052  0.50000  1.0000 -1.0991887399
O   O54       1.0  0.96948  0.52347  0.50000  1.0000 -1.0991887399
O   O55       1.0  0.55399  0.52347  0.50000  1.0000 -1.0991887399
O   O56       1.0  0.96948  0.44601  0.50000  1.0000 -1.0991887399
O   O57       1.0  0.47653  0.03052  0.50000  1.0000 -1.0991887399
O   O58       1.0  0.44601  0.47653  0.50000  1.0000 -1.0991887399
O   O59       1.0  0.03052  0.55399  0.50000  1.0000 -1.0991887399
O   O60       1.0  0.52347  0.96948  0.50000  1.0000 -1.0991887399
O   O61       1.0  0.48509  0.51491  0.38670  1.0000 -1.0906634279
O   O62       1.0  0.48509  0.97018  0.38670  1.0000 -1.0906634279
O   O63       1.0  0.02982  0.51491  0.38670  1.0000 -1.0906634279
O   O64       1.0  0.51491  0.48509  0.38670  1.0000 -1.0906634279
O   O65       1.0  0.51491  0.02982  0.38670  1.0000 -1.0906634279
O   O66       1.0  0.97018  0.48509  0.38670  1.0000 -1.0906634279
O   O67       1.0  0.51491  0.48509  0.61330  1.0000 -1.0906634279
O   O68       1.0  0.97018  0.48509  0.61330  1.0000 -1.0906634279
O   O69       1.0  0.51491  0.02982  0.61330  1.0000 -1.0906634279
O   O70       1.0  0.48509  0.51491  0.61330  1.0000 -1.0906634279
O   O71       1.0  0.02982  0.51491  0.61330  1.0000 -1.0906634279
O   O72       1.0  0.48509  0.97018  0.61330  1.0000 -1.0906634279
