# DDEC6 charges by PACMAN v1.1 (https://github.com/mtap-research/PACMAN-charge/)
data_2016[Ag][nan]3[ASR]6
_chemical_formula_sum              "Ag16 H64 C96 N16 O32"
_cell_length_a       19.7373
_cell_length_b       19.7373
_cell_length_c       19.7373
_cell_angle_alpha    159.062
_cell_angle_beta     106.01
_cell_angle_gamma    77.8914

_symmetry_space_group_name_H-M    "P 1"
_symmetry_Int_Tables_number       1

loop_
  _symmetry_equiv_pos_as_xyz
  'x, y, z'

loop_
  _atom_site_type_symbol
  _atom_site_label
  _atom_site_symmetry_multiplicity
  _atom_site_fract_x
  _atom_site_fract_y
  _atom_site_fract_z
  _atom_site_occupancy
  _atom_site_charge
Ag  Ag1       1.0  0.06074  0.48614  0.96534  1.0000 0.3666281026
Ag  Ag2       1.0  0.02080  0.09540  0.53466  1.0000 0.3666281026
Ag  Ag3       1.0  0.47920  0.01386  0.07460  1.0000 0.3666281026
Ag  Ag4       1.0  0.43926  0.40460  0.42540  1.0000 0.3666281026
Ag  Ag5       1.0  0.93926  0.51386  0.03466  1.0000 0.3666281026
Ag  Ag6       1.0  0.97920  0.90460  0.46534  1.0000 0.3666281026
Ag  Ag7       1.0  0.52080  0.98614  0.92540  1.0000 0.3666281026
Ag  Ag8       1.0  0.56074  0.59540  0.57460  1.0000 0.3666281026
Ag  Ag9       1.0  0.92716  0.01488  0.97344  1.0000 0.4071920622
Ag  Ag10      1.0  0.54144  0.95372  0.52656  1.0000 0.4071920622
Ag  Ag11      1.0  0.95856  0.48512  0.41228  1.0000 0.4071920622
Ag  Ag12      1.0  0.57284  0.54628  0.08772  1.0000 0.4071920622
Ag  Ag13      1.0  0.07284  0.98512  0.02656  1.0000 0.4071920622
Ag  Ag14      1.0  0.45856  0.04628  0.47344  1.0000 0.4071920622
Ag  Ag15      1.0  0.04144  0.51488  0.58772  1.0000 0.4071920622
Ag  Ag16      1.0  0.42716  0.45372  0.91228  1.0000 0.4071920622
H   H1        1.0  0.19850  0.28080  0.82290  1.0000 0.1194497455
H   H2        1.0  0.95790  0.37560  0.67710  1.0000 0.1194497455
H   H3        1.0  0.54210  0.21920  0.41770  1.0000 0.1194497455
H   H4        1.0  0.30150  0.12440  0.08230  1.0000 0.1194497455
H   H5        1.0  0.80150  0.71920  0.17710  1.0000 0.1194497455
H   H6        1.0  0.04210  0.62440  0.32290  1.0000 0.1194497455
H   H7        1.0  0.45790  0.78080  0.58230  1.0000 0.1194497455
H   H8        1.0  0.69850  0.87560  0.91770  1.0000 0.1194497455
H   H9        1.0  0.31060  0.26680  0.79740  1.0000 0.1194497455
H   H10       1.0  0.96940  0.51320  0.70260  1.0000 0.1194497455
H   H11       1.0  0.53060  0.23320  0.54380  1.0000 0.1194497455
H   H12       1.0  0.18940  0.98680  0.95620  1.0000 0.1194497455
H   H13       1.0  0.68940  0.73320  0.20260  1.0000 0.1194497455
H   H14       1.0  0.03060  0.48680  0.29740  1.0000 0.1194497455
H   H15       1.0  0.46940  0.76680  0.45620  1.0000 0.1194497455
H   H16       1.0  0.81060  0.01320  0.04380  1.0000 0.1194497455
H   H17       1.0  0.27750  0.63170  0.98680  1.0000 0.1194497455
H   H18       1.0  0.14490  0.29070  0.51320  1.0000 0.1194497455
H   H19       1.0  0.35510  0.86830  0.14580  1.0000 0.1194497455
H   H20       1.0  0.22250  0.20930  0.35420  1.0000 0.1194497455
H   H21       1.0  0.72250  0.36830  0.01320  1.0000 0.1194497455
H   H22       1.0  0.85510  0.70930  0.48680  1.0000 0.1194497455
H   H23       1.0  0.64490  0.13170  0.85420  1.0000 0.1194497455
H   H24       1.0  0.77750  0.79070  0.64580  1.0000 0.1194497455
H   H25       1.0  0.16490  0.64520  0.01050  1.0000 0.1194497455
H   H26       1.0  0.13470  0.15440  0.48950  1.0000 0.1194497455
H   H27       1.0  0.36530  0.85480  0.01970  1.0000 0.1194497455
H   H28       1.0  0.33510  0.34560  0.48030  1.0000 0.1194497455
H   H29       1.0  0.83510  0.35480  0.98950  1.0000 0.1194497455
H   H30       1.0  0.86530  0.84560  0.51050  1.0000 0.1194497455
H   H31       1.0  0.63470  0.14520  0.98030  1.0000 0.1194497455
H   H32       1.0  0.66490  0.65440  0.51970  1.0000 0.1194497455
H   H33       1.0  0.83840  0.90710  0.23150  1.0000 0.1194497455
H   H34       1.0  0.17560  0.60690  0.26850  1.0000 0.1194497455
H   H35       1.0  0.32440  0.59290  0.43130  1.0000 0.1194497455
H   H36       1.0  0.66160  0.89310  0.06870  1.0000 0.1194497455
H   H37       1.0  0.16160  0.09290  0.76850  1.0000 0.1194497455
H   H38       1.0  0.82440  0.39310  0.73150  1.0000 0.1194497455
H   H39       1.0  0.67560  0.40710  0.56870  1.0000 0.1194497455
H   H40       1.0  0.33840  0.10690  0.93130  1.0000 0.1194497455
H   H41       1.0  0.80030  0.09910  0.31460  1.0000 0.1098603257
H   H42       1.0  0.28450  0.48570  0.18540  1.0000 0.1098603257
H   H43       1.0  0.21550  0.40090  0.20120  1.0000 0.1098603257
H   H44       1.0  0.69970  0.01430  0.29880  1.0000 0.1098603257
H   H45       1.0  0.19970  0.90090  0.68540  1.0000 0.1098603257
H   H46       1.0  0.71550  0.51430  0.81460  1.0000 0.1098603257
H   H47       1.0  0.78450  0.59910  0.79880  1.0000 0.1098603257
H   H48       1.0  0.30030  0.98570  0.70120  1.0000 0.1098603257
H   H49       1.0  0.86460  0.14830  0.27890  1.0000 0.1098603257
H   H50       1.0  0.36940  0.58570  0.22110  1.0000 0.1098603257
H   H51       1.0  0.13060  0.35170  0.21630  1.0000 0.1098603257
H   H52       1.0  0.63540  0.91430  0.28370  1.0000 0.1098603257
H   H53       1.0  0.13540  0.85170  0.72110  1.0000 0.1098603257
H   H54       1.0  0.63060  0.41430  0.77890  1.0000 0.1098603257
H   H55       1.0  0.86940  0.64830  0.78370  1.0000 0.1098603257
H   H56       1.0  0.36460  0.08570  0.71630  1.0000 0.1098603257
H   H57       1.0  0.00540  0.81160  0.07120  1.0000 0.1194497455
H   H58       1.0  0.24040  0.93420  0.42880  1.0000 0.1194497455
H   H59       1.0  0.25960  0.68840  0.69380  1.0000 0.1194497455
H   H60       1.0  0.49460  0.56580  0.80620  1.0000 0.1194497455
H   H61       1.0  0.99460  0.18840  0.92880  1.0000 0.1194497455
H   H62       1.0  0.75960  0.06580  0.57120  1.0000 0.1194497455
H   H63       1.0  0.74040  0.31160  0.30620  1.0000 0.1194497455
H   H64       1.0  0.50540  0.43420  0.19380  1.0000 0.1194497455
C   C1        1.0  0.21388  0.35518  0.85790  1.0000 0.0458561513
C   C2        1.0  0.99728  0.35598  0.64210  1.0000 0.0458561513
C   C3        1.0  0.50272  0.14482  0.35870  1.0000 0.0458561513
C   C4        1.0  0.28612  0.14402  0.14130  1.0000 0.0458561513
C   C5        1.0  0.78612  0.64482  0.14210  1.0000 0.0458561513
C   C6        1.0  0.00272  0.64402  0.35790  1.0000 0.0458561513
C   C7        1.0  0.49728  0.85518  0.64130  1.0000 0.0458561513
C   C8        1.0  0.71388  0.85598  0.85870  1.0000 0.0458561513
C   C9        1.0  0.28115  0.34764  0.84351  1.0000 0.0360867214
C   C10       1.0  0.00413  0.43764  0.65649  1.0000 0.0360867214
C   C11       1.0  0.49587  0.15236  0.43351  1.0000 0.0360867214
C   C12       1.0  0.21885  0.06236  0.06649  1.0000 0.0360867214
C   C13       1.0  0.71885  0.65236  0.15649  1.0000 0.0360867214
C   C14       1.0  0.99587  0.56236  0.34351  1.0000 0.0360867214
C   C15       1.0  0.50413  0.84764  0.56649  1.0000 0.0360867214
C   C16       1.0  0.78115  0.93764  0.93351  1.0000 0.0360867214
C   C17       1.0  0.26190  0.55802  0.95248  1.0000 0.002368133
C   C18       1.0  0.10554  0.30942  0.54752  1.0000 0.002368133
C   C19       1.0  0.39446  0.94198  0.20388  1.0000 0.002368133
C   C20       1.0  0.23810  0.19058  0.29612  1.0000 0.002368133
C   C21       1.0  0.73810  0.44198  0.04752  1.0000 0.002368133
C   C22       1.0  0.89446  0.69058  0.45248  1.0000 0.002368133
C   C23       1.0  0.60554  0.05802  0.79612  1.0000 0.002368133
C   C24       1.0  0.76190  0.80942  0.70388  1.0000 0.002368133
C   C25       1.0  0.19455  0.56609  0.96666  1.0000 0.0293696035
C   C26       1.0  0.09943  0.22789  0.53334  1.0000 0.0293696035
C   C27       1.0  0.40057  0.93391  0.12846  1.0000 0.0293696035
C   C28       1.0  0.30545  0.27211  0.37154  1.0000 0.0293696035
C   C29       1.0  0.80545  0.43391  0.03334  1.0000 0.0293696035
C   C30       1.0  0.90057  0.77211  0.46666  1.0000 0.0293696035
C   C31       1.0  0.59943  0.06609  0.87154  1.0000 0.0293696035
C   C32       1.0  0.69455  0.72789  0.62846  1.0000 0.0293696035
C   C33       1.0  0.95330  0.72482  0.09848  1.0000 0.5340168248
C   C34       1.0  0.12634  0.85482  0.40152  1.0000 0.5340168248
C   C35       1.0  0.37366  0.77518  0.72848  1.0000 0.5340168248
C   C36       1.0  0.54670  0.64518  0.77152  1.0000 0.5340168248
C   C37       1.0  0.04670  0.27518  0.90152  1.0000 0.5340168248
C   C38       1.0  0.87366  0.14518  0.59848  1.0000 0.5340168248
C   C39       1.0  0.62634  0.22482  0.27152  1.0000 0.5340168248
C   C40       1.0  0.45330  0.35482  0.22848  1.0000 0.5340168248
C   C41       1.0  0.92626  0.84243  0.14523  1.0000 -0.0269758817
C   C42       1.0  0.19720  0.78103  0.35477  1.0000 -0.0269758817
C   C43       1.0  0.30280  0.65757  0.58383  1.0000 -0.0269758817
C   C44       1.0  0.57374  0.71897  0.91617  1.0000 -0.0269758817
C   C45       1.0  0.07374  0.15757  0.85477  1.0000 -0.0269758817
C   C46       1.0  0.80280  0.21897  0.64523  1.0000 -0.0269758817
C   C47       1.0  0.69720  0.34243  0.41617  1.0000 -0.0269758817
C   C48       1.0  0.42626  0.28103  0.08383  1.0000 -0.0269758817
C   C49       1.0  0.86474  0.92708  0.21646  1.0000 -0.1024621357
C   C50       1.0  0.21062  0.64828  0.28354  1.0000 -0.1024621357
C   C51       1.0  0.28938  0.57292  0.43766  1.0000 -0.1024621357
C   C52       1.0  0.63526  0.85172  0.06234  1.0000 -0.1024621357
C   C53       1.0  0.13526  0.07292  0.78354  1.0000 -0.1024621357
C   C54       1.0  0.78938  0.35172  0.71646  1.0000 -0.1024621357
C   C55       1.0  0.71062  0.42708  0.56234  1.0000 -0.1024621357
C   C56       1.0  0.36474  0.14828  0.93766  1.0000 -0.1024621357
C   C57       1.0  0.84203  0.04075  0.26548  1.0000 -0.1097838492
C   C58       1.0  0.27527  0.57655  0.23452  1.0000 -0.1097838492
C   C59       1.0  0.22473  0.45925  0.30128  1.0000 -0.1097838492
C   C60       1.0  0.65797  0.92345  0.19872  1.0000 -0.1097838492
C   C61       1.0  0.15797  0.95925  0.73452  1.0000 -0.1097838492
C   C62       1.0  0.72473  0.42345  0.76548  1.0000 -0.1097838492
C   C63       1.0  0.77527  0.54075  0.69872  1.0000 -0.1097838492
C   C64       1.0  0.34203  0.07655  0.80128  1.0000 -0.1097838492
C   C65       1.0  0.87994  0.06855  0.24279  1.0000 -0.1097838492
C   C66       1.0  0.32576  0.63715  0.25721  1.0000 -0.1097838492
C   C67       1.0  0.17424  0.43145  0.31139  1.0000 -0.1097838492
C   C68       1.0  0.62006  0.86285  0.18861  1.0000 -0.1097838492
C   C69       1.0  0.12006  0.93145  0.75721  1.0000 -0.1097838492
C   C70       1.0  0.67424  0.36285  0.74279  1.0000 -0.1097838492
C   C71       1.0  0.82576  0.56855  0.68861  1.0000 -0.1097838492
C   C72       1.0  0.37994  0.13715  0.81139  1.0000 -0.1097838492
C   C73       1.0  0.94055  0.98203  0.16792  1.0000 -0.0269758817
C   C74       1.0  0.31411  0.77263  0.33208  1.0000 -0.0269758817
C   C75       1.0  0.18589  0.51797  0.45852  1.0000 -0.0269758817
C   C76       1.0  0.55945  0.72737  0.04148  1.0000 -0.0269758817
C   C77       1.0  0.05945  0.01797  0.83208  1.0000 -0.0269758817
C   C78       1.0  0.68589  0.22737  0.66792  1.0000 -0.0269758817
C   C79       1.0  0.81411  0.48203  0.54148  1.0000 -0.0269758817
C   C80       1.0  0.44055  0.27263  0.95852  1.0000 -0.0269758817
C   C81       1.0  0.96369  0.86985  0.12064  1.0000 -0.1419105497
C   C82       1.0  0.24921  0.84305  0.37936  1.0000 -0.1419105497
C   C83       1.0  0.25079  0.63015  0.59384  1.0000 -0.1419105497
C   C84       1.0  0.53631  0.65695  0.90616  1.0000 -0.1419105497
C   C85       1.0  0.03631  0.13015  0.87936  1.0000 -0.1419105497
C   C86       1.0  0.75079  0.15695  0.62064  1.0000 -0.1419105497
C   C87       1.0  0.74921  0.36985  0.40616  1.0000 -0.1419105497
C   C88       1.0  0.46369  0.34305  0.09384  1.0000 -0.1419105497
C   C89       1.0  0.97906  0.00640  0.13466  1.0000 0.5455122959
C   C90       1.0  0.37174  0.84440  0.36534  1.0000 0.5455122959
C   C91       1.0  0.12826  0.49360  0.47266  1.0000 0.5455122959
C   C92       1.0  0.52094  0.65560  0.02734  1.0000 0.5455122959
C   C93       1.0  0.02094  0.99360  0.86534  1.0000 0.5455122959
C   C94       1.0  0.62826  0.15560  0.63466  1.0000 0.5455122959
C   C95       1.0  0.87174  0.50640  0.52734  1.0000 0.5455122959
C   C96       1.0  0.47906  0.34440  0.97266  1.0000 0.5455122959
N   N1        1.0  0.17022  0.46524  0.92018  1.0000 -0.1639136155
N   N2        1.0  0.04506  0.25004  0.57982  1.0000 -0.1639136155
N   N3        1.0  0.45494  0.03476  0.20498  1.0000 -0.1639136155
N   N4        1.0  0.32978  0.24996  0.29502  1.0000 -0.1639136155
N   N5        1.0  0.82978  0.53476  0.07982  1.0000 -0.1639136155
N   N6        1.0  0.95494  0.74996  0.42018  1.0000 -0.1639136155
N   N7        1.0  0.54506  0.96524  0.79502  1.0000 -0.1639136155
N   N8        1.0  0.67022  0.75004  0.70498  1.0000 -0.1639136155
N   N9        1.0  0.30583  0.44878  0.89145  1.0000 -0.1419105497
N   N10       1.0  0.05733  0.41438  0.60855  1.0000 -0.1419105497
N   N11       1.0  0.44267  0.05122  0.35705  1.0000 -0.1419105497
N   N12       1.0  0.19417  0.08562  0.14295  1.0000 -0.1419105497
N   N13       1.0  0.69417  0.55122  0.10855  1.0000 -0.1419105497
N   N14       1.0  0.94267  0.58562  0.39145  1.0000 -0.1419105497
N   N15       1.0  0.55733  0.94878  0.64295  1.0000 -0.1419105497
N   N16       1.0  0.80583  0.91438  0.85705  1.0000 -0.1419105497
O   O1        1.0  0.00984  0.65901  0.04083  1.0000 -0.4995438274
O   O2        1.0  0.11818  0.96901  0.45917  1.0000 -0.4995438274
O   O3        1.0  0.38182  0.84099  0.85083  1.0000 -0.4995438274
O   O4        1.0  0.49016  0.53099  0.64917  1.0000 -0.4995438274
O   O5        1.0  0.99016  0.34099  0.95917  1.0000 -0.4995438274
O   O6        1.0  0.88182  0.03099  0.54083  1.0000 -0.4995438274
O   O7        1.0  0.61818  0.15901  0.14917  1.0000 -0.4995438274
O   O8        1.0  0.50984  0.46901  0.35083  1.0000 -0.4995438274
O   O9        1.0  0.91639  0.70299  0.12100  1.0000 -0.5176573921
O   O10       1.0  0.08199  0.79539  0.37900  1.0000 -0.5176573921
O   O11       1.0  0.41801  0.79701  0.71340  1.0000 -0.5176573921
O   O12       1.0  0.58361  0.70461  0.78660  1.0000 -0.5176573921
O   O13       1.0  0.08361  0.29701  0.87900  1.0000 -0.5176573921
O   O14       1.0  0.91801  0.20461  0.62100  1.0000 -0.5176573921
O   O15       1.0  0.58199  0.20299  0.28660  1.0000 -0.5176573921
O   O16       1.0  0.41639  0.29539  0.21340  1.0000 -0.5176573921
O   O17       1.0  0.03423  0.92872  0.07011  1.0000 -0.5176573921
O   O18       1.0  0.35861  0.96412  0.42989  1.0000 -0.5176573921
O   O19       1.0  0.14139  0.57128  0.60551  1.0000 -0.5176573921
O   O20       1.0  0.46577  0.53588  0.89449  1.0000 -0.5176573921
O   O21       1.0  0.96577  0.07128  0.92989  1.0000 -0.5176573921
O   O22       1.0  0.64139  0.03588  0.57011  1.0000 -0.5176573921
O   O23       1.0  0.85861  0.42872  0.39449  1.0000 -0.5176573921
O   O24       1.0  0.53423  0.46412  0.10551  1.0000 -0.5176573921
O   O25       1.0  0.95281  0.10276  0.17245  1.0000 -0.5448740948
O   O26       1.0  0.43031  0.78036  0.32755  1.0000 -0.5448740948
O   O27       1.0  0.06969  0.39724  0.35005  1.0000 -0.5448740948
O   O28       1.0  0.54719  0.71964  0.14995  1.0000 -0.5448740948
O   O29       1.0  0.04719  0.89724  0.82755  1.0000 -0.5448740948
O   O30       1.0  0.56969  0.21964  0.67245  1.0000 -0.5448740948
O   O31       1.0  0.93031  0.60276  0.64995  1.0000 -0.5448740948
O   O32       1.0  0.45281  0.28036  0.85005  1.0000 -0.5448740948
