# DDEC6 charges by PACMAN v1.1 (https://github.com/mtap-research/PACMAN-charge/)
data_2016[Tb][nan]3[ASR]7
_chemical_formula_sum              "Tb4 H72 C102 O24"
_cell_length_a       11.4646
_cell_length_b       13.6288
_cell_length_c       23.7978
_cell_angle_alpha    92.929
_cell_angle_beta     103.548
_cell_angle_gamma    112.494

_symmetry_space_group_name_H-M    "P 1"
_symmetry_Int_Tables_number       1

loop_
  _symmetry_equiv_pos_as_xyz
  'x, y, z'

loop_
  _atom_site_type_symbol
  _atom_site_label
  _atom_site_symmetry_multiplicity
  _atom_site_fract_x
  _atom_site_fract_y
  _atom_site_fract_z
  _atom_site_occupancy
  _atom_site_charge
Tb  Tb1       1.0  0.37832  0.30086  0.51767  1.0000 2.0245471955
Tb  Tb2       1.0  0.62168  0.69914  0.48233  1.0000 2.0245471955
Tb  Tb3       1.0  0.64148  0.59472  0.96163  1.0000 2.0585736991
Tb  Tb4       1.0  0.35852  0.40528  0.03837  1.0000 2.0585736991
H   H1        1.0  0.63240  0.33160  0.13240  1.0000 0.1307409255
H   H2        1.0  0.36760  0.66840  0.86760  1.0000 0.1307409255
H   H3        1.0  0.75340  0.28610  0.21180  1.0000 0.1204479558
H   H4        1.0  0.24660  0.71390  0.78820  1.0000 0.1204479558
H   H5        1.0  0.93400  0.27370  0.30480  1.0000 0.1204479558
H   H6        1.0  0.06600  0.72630  0.69520  1.0000 0.1204479558
H   H7        1.0  0.10910  0.30800  0.38570  1.0000 0.1204479558
H   H8        1.0  0.89090  0.69200  0.61430  1.0000 0.1204479558
H   H9        1.0  0.32120  0.58080  0.33420  1.0000 0.1387889557
H   H10       1.0  0.67880  0.41920  0.66580  1.0000 0.1387889557
H   H11       1.0  0.21630  0.51280  0.18430  1.0000 0.1387889557
H   H12       1.0  0.78370  0.48720  0.81570  1.0000 0.1387889557
H   H13       1.0  0.31120  0.62240  0.22460  1.0000 0.1307409255
H   H14       1.0  0.68880  0.37760  0.77540  1.0000 0.1307409255
H   H15       1.0  0.20850  0.62030  0.16750  1.0000 0.1307409255
H   H16       1.0  0.79150  0.37970  0.83250  1.0000 0.1307409255
H   H17       1.0  0.12560  0.72210  0.22970  1.0000 0.1307409255
H   H18       1.0  0.87440  0.27790  0.77030  1.0000 0.1307409255
H   H19       1.0  0.23080  0.72020  0.28470  1.0000 0.1307409255
H   H20       1.0  0.76920  0.27980  0.71530  1.0000 0.1307409255
H   H21       1.0  0.08230  0.67520  0.28380  1.0000 0.1307409255
H   H22       1.0  0.91770  0.32480  0.71620  1.0000 0.1307409255
H   H23       1.0  0.95210  0.59130  0.13310  1.0000 0.1307409255
H   H24       1.0  0.04790  0.40870  0.86690  1.0000 0.1307409255
H   H25       1.0  0.49200  0.63920  0.17630  1.0000 0.1307409255
H   H26       1.0  0.50800  0.36080  0.82370  1.0000 0.1307409255
H   H27       1.0  0.60370  0.72910  0.27060  1.0000 0.1307409255
H   H28       1.0  0.39630  0.27090  0.72940  1.0000 0.1307409255
H   H29       1.0  0.77620  0.85580  0.37040  1.0000 0.1307409255
H   H30       1.0  0.22380  0.14420  0.62960  1.0000 0.1307409255
H   H31       1.0  0.94710  0.98530  0.44140  1.0000 0.1387889557
H   H32       1.0  0.05290  0.01470  0.55860  1.0000 0.1387889557
H   H33       1.0  0.13540  0.10680  0.32240  1.0000 0.1307409255
H   H34       1.0  0.86460  0.89320  0.67760  1.0000 0.1307409255
H   H35       1.0  0.05990  0.87790  0.23070  1.0000 0.1307409255
H   H36       1.0  0.94010  0.12210  0.76930  1.0000 0.1307409255
H   H37       1.0  0.13760  0.99770  0.22440  1.0000 0.1307409255
H   H38       1.0  0.86240  0.00230  0.77560  1.0000 0.1307409255
H   H39       1.0  0.03720  0.91510  0.16940  1.0000 0.1307409255
H   H40       1.0  0.96280  0.08490  0.83060  1.0000 0.1307409255
H   H41       1.0  0.92470  0.04640  0.15350  1.0000 0.1307409255
H   H42       1.0  0.07530  0.95360  0.84650  1.0000 0.1307409255
H   H43       1.0  0.03120  0.12130  0.20960  1.0000 0.1307409255
H   H44       1.0  0.96880  0.87870  0.79040  1.0000 0.1307409255
H   H45       1.0  0.88160  0.08410  0.20550  1.0000 0.1307409255
H   H46       1.0  0.11840  0.91590  0.79450  1.0000 0.1307409255
H   H47       1.0  0.77980  0.83480  0.11490  1.0000 0.1307409255
H   H48       1.0  0.22020  0.16520  0.88510  1.0000 0.1307409255
H   H49       1.0  0.53820  0.01160  0.55010  1.0000 0.1307409255
H   H50       1.0  0.46180  0.98840  0.44990  1.0000 0.1307409255
H   H51       1.0  0.58930  0.88690  0.60050  1.0000 0.1307409255
H   H52       1.0  0.41070  0.11310  0.39950  1.0000 0.1307409255
H   H53       1.0  0.62900  0.75350  0.67790  1.0000 0.1307409255
H   H54       1.0  0.37100  0.24650  0.32210  1.0000 0.1307409255
H   H55       1.0  0.65850  0.66910  0.75800  1.0000 0.1307409255
H   H56       1.0  0.34150  0.33090  0.24200  1.0000 0.1307409255
H   H57       1.0  0.56530  0.86520  0.85210  1.0000 0.1307409255
H   H58       1.0  0.43470  0.13480  0.14790  1.0000 0.1307409255
H   H59       1.0  0.62010  0.06700  0.84870  1.0000 0.1307409255
H   H60       1.0  0.37990  0.93300  0.15130  1.0000 0.1307409255
H   H61       1.0  0.58340  0.14220  0.80680  1.0000 0.1307409255
H   H62       1.0  0.41660  0.85780  0.19320  1.0000 0.1307409255
H   H63       1.0  0.69940  0.11030  0.80330  1.0000 0.1387889557
H   H64       1.0  0.30060  0.88970  0.19670  1.0000 0.1387889557
H   H65       1.0  0.31980  0.88930  0.74340  1.0000 0.1307409255
H   H66       1.0  0.68020  0.11070  0.25660  1.0000 0.1307409255
H   H67       1.0  0.34910  0.01030  0.76180  1.0000 0.1307409255
H   H68       1.0  0.65090  0.98970  0.23820  1.0000 0.1307409255
H   H69       1.0  0.37640  0.94100  0.80970  1.0000 0.1307409255
H   H70       1.0  0.62360  0.05900  0.19030  1.0000 0.1307409255
H   H71       1.0  0.47020  0.13120  0.69070  1.0000 0.1307409255
H   H72       1.0  0.52980  0.86880  0.30930  1.0000 0.1307409255
C   C1        1.0  0.70400  0.49410  0.07300  1.0000 0.6463602544
C   C2        1.0  0.29600  0.50590  0.92700  1.0000 0.6463602544
C   C3        1.0  0.78200  0.46520  0.12570  1.0000 -0.0187142534
C   C4        1.0  0.21800  0.53480  0.87430  1.0000 -0.0187142534
C   C5        1.0  0.72120  0.37470  0.14870  1.0000 -0.1083310568
C   C6        1.0  0.27880  0.62530  0.85130  1.0000 -0.1083310568
C   C7        1.0  0.79300  0.34800  0.19650  1.0000 -0.1477015107
C   C8        1.0  0.20700  0.65200  0.80350  1.0000 -0.1477015107
C   C9        1.0  0.92450  0.41480  0.22110  1.0000 0.0123092194
C   C10       1.0  0.07550  0.58520  0.77890  1.0000 0.0173694165
C   C11       1.0  0.01990  0.41020  0.27280  1.0000 0.0123092194
C   C12       1.0  0.98010  0.58980  0.72720  1.0000 0.0123092194
C   C13       1.0  0.01020  0.33610  0.31130  1.0000 -0.1477015107
C   C14       1.0  0.98980  0.66390  0.68870  1.0000 -0.1477015107
C   C15       1.0  0.11530  0.35650  0.35920  1.0000 -0.1083310568
C   C16       1.0  0.88470  0.64350  0.64080  1.0000 -0.1083310568
C   C17       1.0  0.23100  0.44890  0.36870  1.0000 -0.0383520084
C   C18       1.0  0.76900  0.55110  0.63130  1.0000 -0.0383520084
C   C19       1.0  0.34250  0.47190  0.42160  1.0000 0.6654218496
C   C20       1.0  0.65750  0.52810  0.57840  1.0000 0.6654218496
C   C21       1.0  0.24300  0.52080  0.32900  1.0000 -0.1477015107
C   C22       1.0  0.75700  0.47920  0.67100  1.0000 -0.1477015107
C   C23       1.0  0.13640  0.50140  0.28160  1.0000 0.0173694165
C   C24       1.0  0.86360  0.49860  0.71840  1.0000 0.0173694165
C   C25       1.0  0.12420  0.57100  0.23410  1.0000 0.1726889969
C   C26       1.0  0.87580  0.42900  0.76590  1.0000 0.1726889969
C   C27       1.0  0.22430  0.58250  0.19940  1.0000 -0.4537223815
C   C28       1.0  0.77570  0.41750  0.80060  1.0000 -0.4537223815
C   C29       1.0  0.14230  0.68250  0.26050  1.0000 -0.4607719197
C   C30       1.0  0.85770  0.31750  0.73950  1.0000 -0.4607719197
C   C31       1.0  0.98350  0.50760  0.19820  1.0000 0.0123092194
C   C32       1.0  0.01650  0.49240  0.80180  1.0000 0.0123092194
C   C33       1.0  0.91220  0.53120  0.14950  1.0000 -0.141038274
C   C34       1.0  0.08780  0.46880  0.85050  1.0000 -0.141038274
C   C35       1.0  0.55590  0.66160  0.07710  1.0000 0.6583096743
C   C36       1.0  0.44410  0.33840  0.92290  1.0000 0.6583096743
C   C37       1.0  0.62480  0.72440  0.13750  1.0000 -0.0383520084
C   C38       1.0  0.37520  0.27560  0.86250  1.0000 -0.0383520084
C   C39       1.0  0.57360  0.69620  0.18320  1.0000 -0.1083310568
C   C40       1.0  0.42640  0.30380  0.81680  1.0000 -0.1083310568
C   C41       1.0  0.63950  0.74990  0.23970  1.0000 -0.141038274
C   C42       1.0  0.36050  0.25010  0.76030  1.0000 -0.141038274
C   C43       1.0  0.76100  0.83610  0.24900  1.0000 0.0123092194
C   C44       1.0  0.23900  0.16390  0.75100  1.0000 0.0123092194
C   C45       1.0  0.85220  0.90730  0.30270  1.0000 0.0123092194
C   C46       1.0  0.14780  0.09270  0.69730  1.0000 0.0123092194
C   C47       1.0  0.84690  0.90650  0.36060  1.0000 -0.1326015531
C   C48       1.0  0.15310  0.09350  0.63940  1.0000 -0.1326015531
C   C49       1.0  0.94980  0.98330  0.40260  1.0000 -0.0989267952
C   C50       1.0  0.05020  0.01670  0.59740  1.0000 -0.0989267952
C   C51       1.0  0.05770  0.05800  0.38910  1.0000 -0.0187142534
C   C52       1.0  0.94230  0.94200  0.61090  1.0000 -0.0187142534
C   C53       1.0  0.17130  0.14030  0.43630  1.0000 0.5668630363
C   C54       1.0  0.82870  0.85970  0.56370  1.0000 0.5668630363
C   C55       1.0  0.06330  0.05710  0.33170  1.0000 -0.1477015107
C   C56       1.0  0.93670  0.94290  0.66830  1.0000 -0.1477015107
C   C57       1.0  0.96090  0.98170  0.28870  1.0000 0.0173694165
C   C58       1.0  0.03910  0.01830  0.71130  1.0000 0.0173694165
C   C59       1.0  0.94550  0.96460  0.22300  1.0000 0.1777736083
C   C60       1.0  0.05450  0.03540  0.77700  1.0000 0.1777736083
C   C61       1.0  0.05530  0.93620  0.21070  1.0000 -0.4693037708
C   C62       1.0  0.94470  0.06380  0.78930  1.0000 -0.4693037708
C   C63       1.0  0.94600  0.06330  0.19530  1.0000 -0.4607719197
C   C64       1.0  0.05400  0.93670  0.80470  1.0000 -0.4607719197
C   C65       1.0  0.81230  0.86880  0.20250  1.0000 0.0123092194
C   C66       1.0  0.18770  0.13120  0.79750  1.0000 0.0123092194
C   C67       1.0  0.74560  0.81350  0.14620  1.0000 -0.1477015107
C   C68       1.0  0.25440  0.18650  0.85380  1.0000 -0.1477015107
C   C69       1.0  0.46320  0.16400  0.58190  1.0000 0.5668630363
C   C70       1.0  0.53680  0.83600  0.41810  1.0000 0.5668630363
C   C71       1.0  0.49840  0.08340  0.61520  1.0000 -0.0187142534
C   C72       1.0  0.50160  0.91660  0.38480  1.0000 -0.0187142534
C   C73       1.0  0.53450  0.00990  0.58870  1.0000 -0.0989267952
C   C74       1.0  0.46550  0.99010  0.41130  1.0000 -0.0989267952
C   C75       1.0  0.56470  0.93520  0.61850  1.0000 -0.1248547524
C   C76       1.0  0.43530  0.06480  0.38150  1.0000 -0.1248547524
C   C77       1.0  0.55790  0.93280  0.67610  1.0000 0.0173694165
C   C78       1.0  0.44210  0.06720  0.32390  1.0000 0.0173694165
C   C79       1.0  0.58130  0.86270  0.71780  1.0000 0.0173694165
C   C80       1.0  0.41870  0.13730  0.28220  1.0000 0.0173694165
C   C81       1.0  0.61660  0.77640  0.71270  1.0000 -0.1477015107
C   C82       1.0  0.38340  0.22360  0.28730  1.0000 -0.1477015107
C   C83       1.0  0.63280  0.72570  0.76090  1.0000 -0.1083310568
C   C84       1.0  0.36720  0.27430  0.23910  1.0000 -0.1083310568
C   C85       1.0  0.61310  0.75410  0.81220  1.0000 -0.0286230496
C   C86       1.0  0.38690  0.24590  0.18780  1.0000 -0.0286230496
C   C87       1.0  0.62740  0.69930  0.86440  1.0000 0.5599473179
C   C88       1.0  0.37260  0.30070  0.13560  1.0000 0.5599473179
C   C89       1.0  0.57710  0.84270  0.81710  1.0000 -0.1477015107
C   C90       1.0  0.42290  0.15730  0.18290  1.0000 -0.1477015107
C   C91       1.0  0.55980  0.89490  0.76980  1.0000 0.0123092194
C   C92       1.0  0.44020  0.10510  0.23020  1.0000 0.0123092194
C   C93       1.0  0.51820  0.98740  0.76450  1.0000 0.1777736083
C   C94       1.0  0.48180  0.01260  0.23550  1.0000 0.1777736083
C   C95       1.0  0.61430  0.08590  0.81010  1.0000 -0.4693037708
C   C96       1.0  0.38570  0.91410  0.18990  1.0000 -0.4693037708
C   C97       1.0  0.37760  0.95380  0.77050  1.0000 -0.4693037708
C   C98       1.0  0.62240  0.04620  0.22950  1.0000 -0.4693037708
C   C99       1.0  0.52270  0.00640  0.70290  1.0000 0.0123092194
C   C100      1.0  0.47730  0.99360  0.29710  1.0000 0.0123092194
C   C101      1.0  0.49320  0.08200  0.67260  1.0000 -0.1477015107
C   C102      1.0  0.50680  0.91800  0.32740  1.0000 -0.1477015107
O   O1        1.0  0.76590  0.55140  0.04220  1.0000 -0.6297822435
O   O2        1.0  0.23410  0.44860  0.95780  1.0000 -0.6297822435
O   O3        1.0  0.58170  0.45750  0.06300  1.0000 -0.6897556225
O   O4        1.0  0.41830  0.54250  0.93700  1.0000 -0.6960414886
O   O5        1.0  0.45140  0.54490  0.42340  1.0000 -0.6700253277
O   O6        1.0  0.54860  0.45510  0.57660  1.0000 -0.6700253277
O   O7        1.0  0.32070  0.42110  0.46360  1.0000 -0.6897556225
O   O8        1.0  0.67930  0.57890  0.53640  1.0000 -0.6897556225
O   O9        1.0  0.61420  0.68690  0.03760  1.0000 -0.6700253277
O   O10       1.0  0.38580  0.31310  0.96240  1.0000 -0.6700253277
O   O11       1.0  0.44300  0.58650  0.07000  1.0000 -0.6792519032
O   O12       1.0  0.55700  0.41350  0.93000  1.0000 -0.6792519032
O   O13       1.0  0.27170  0.19860  0.42230  1.0000 -0.6398290932
O   O14       1.0  0.72830  0.80140  0.57770  1.0000 -0.6398290932
O   O15       1.0  0.16340  0.15090  0.48820  1.0000 -0.6398290932
O   O16       1.0  0.83660  0.84910  0.51180  1.0000 -0.6398290932
O   O17       1.0  0.46010  0.16100  0.52840  1.0000 -0.6297822435
O   O18       1.0  0.53990  0.83900  0.47160  1.0000 -0.6297822435
O   O19       1.0  0.43430  0.23140  0.60720  1.0000 -0.6458294629
O   O20       1.0  0.56570  0.76860  0.39280  1.0000 -0.6458294629
O   O21       1.0  0.63180  0.60890  0.85880  1.0000 -0.6297822435
O   O22       1.0  0.36820  0.39110  0.14120  1.0000 -0.6297822435
O   O23       1.0  0.63200  0.74270  0.91380  1.0000 -0.6398290932
O   O24       1.0  0.36800  0.25730  0.08620  1.0000 -0.6398290932
