# DDEC6 charges by PACMAN v1.1 (https://github.com/mtap-research/PACMAN-charge/)
data_2016[Cu][nbo]3[ASR]30
_chemical_formula_sum              "Cu6 H90 C132 O30"
_cell_length_a       21.2617
_cell_length_b       21.2617
_cell_length_c       21.2617
_cell_angle_alpha    114.608
_cell_angle_beta     114.608
_cell_angle_gamma    114.608

_symmetry_space_group_name_H-M    "P 1"
_symmetry_Int_Tables_number       1

loop_
  _symmetry_equiv_pos_as_xyz
  'x, y, z'

loop_
  _atom_site_type_symbol
  _atom_site_label
  _atom_site_symmetry_multiplicity
  _atom_site_fract_x
  _atom_site_fract_y
  _atom_site_fract_z
  _atom_site_occupancy
  _atom_site_charge
Cu  Cu1       1.0  0.41744  0.41744  0.90745  1.0000 0.8383285196
Cu  Cu2       1.0  0.41744  0.90745  0.41744  1.0000 0.8383285196
Cu  Cu3       1.0  0.90745  0.41744  0.41744  1.0000 0.8383285196
Cu  Cu4       1.0  0.58256  0.58256  0.09255  1.0000 0.8383285196
Cu  Cu5       1.0  0.09255  0.58256  0.58256  1.0000 0.8383285196
Cu  Cu6       1.0  0.58256  0.09255  0.58256  1.0000 0.8383285196
H   H1        1.0  0.36450  0.53930  0.79380  1.0000 0.1140620738
H   H2        1.0  0.53930  0.79380  0.36450  1.0000 0.1140620738
H   H3        1.0  0.79380  0.36450  0.53930  1.0000 0.1140620738
H   H4        1.0  0.46070  0.63550  0.20620  1.0000 0.1140620738
H   H5        1.0  0.20620  0.46070  0.63550  1.0000 0.1140620738
H   H6        1.0  0.63550  0.20620  0.46070  1.0000 0.1140620738
H   H7        1.0  0.63550  0.46070  0.20620  1.0000 0.1140620738
H   H8        1.0  0.46070  0.20620  0.63550  1.0000 0.1140620738
H   H9        1.0  0.20620  0.63550  0.46070  1.0000 0.1140620738
H   H10       1.0  0.53930  0.36450  0.79380  1.0000 0.1140620738
H   H11       1.0  0.79380  0.53930  0.36450  1.0000 0.1140620738
H   H12       1.0  0.36450  0.79380  0.53930  1.0000 0.1140620738
H   H13       1.0  0.36460  0.63540  0.76870  1.0000 0.1262710831
H   H14       1.0  0.63540  0.76870  0.36460  1.0000 0.1262710831
H   H15       1.0  0.76870  0.36460  0.63540  1.0000 0.1262710831
H   H16       1.0  0.36460  0.63540  0.23130  1.0000 0.1262710831
H   H17       1.0  0.23130  0.36460  0.63540  1.0000 0.1262710831
H   H18       1.0  0.63540  0.23130  0.36460  1.0000 0.1262710831
H   H19       1.0  0.63540  0.36460  0.23130  1.0000 0.1262710831
H   H20       1.0  0.36460  0.23130  0.63540  1.0000 0.1262710831
H   H21       1.0  0.23130  0.63540  0.36460  1.0000 0.1262710831
H   H22       1.0  0.63540  0.36460  0.76870  1.0000 0.1262710831
H   H23       1.0  0.76870  0.63540  0.36460  1.0000 0.1262710831
H   H24       1.0  0.36460  0.76870  0.63540  1.0000 0.1262710831
H   H25       1.0  0.61690  0.87630  0.04590  1.0000 0.1193979604
H   H26       1.0  0.87630  0.04590  0.61690  1.0000 0.1193979604
H   H27       1.0  0.04590  0.61690  0.87630  1.0000 0.1193979604
H   H28       1.0  0.12370  0.38310  0.95410  1.0000 0.1193979604
H   H29       1.0  0.95410  0.12370  0.38310  1.0000 0.1193979604
H   H30       1.0  0.38310  0.95410  0.12370  1.0000 0.1193979604
H   H31       1.0  0.38310  0.12370  0.95410  1.0000 0.1193979604
H   H32       1.0  0.12370  0.95410  0.38310  1.0000 0.1193979604
H   H33       1.0  0.95410  0.38310  0.12370  1.0000 0.1193979604
H   H34       1.0  0.87630  0.61690  0.04590  1.0000 0.1193979604
H   H35       1.0  0.04590  0.87630  0.61690  1.0000 0.1193979604
H   H36       1.0  0.61690  0.04590  0.87630  1.0000 0.1193979604
H   H37       1.0  0.62040  0.78060  0.07300  1.0000 0.1193979604
H   H38       1.0  0.78060  0.07300  0.62040  1.0000 0.1193979604
H   H39       1.0  0.07300  0.62040  0.78060  1.0000 0.1193979604
H   H40       1.0  0.21940  0.37960  0.92700  1.0000 0.1193979604
H   H41       1.0  0.92700  0.21940  0.37960  1.0000 0.1193979604
H   H42       1.0  0.37960  0.92700  0.21940  1.0000 0.1193979604
H   H43       1.0  0.37960  0.21940  0.92700  1.0000 0.1193979604
H   H44       1.0  0.21940  0.92700  0.37960  1.0000 0.1193979604
H   H45       1.0  0.92700  0.37960  0.21940  1.0000 0.1193979604
H   H46       1.0  0.78060  0.62040  0.07300  1.0000 0.1193979604
H   H47       1.0  0.07300  0.78060  0.62040  1.0000 0.1193979604
H   H48       1.0  0.62040  0.07300  0.78060  1.0000 0.1193979604
H   H49       1.0  0.49770  0.89910  0.01030  1.0000 0.1193979604
H   H50       1.0  0.89910  0.01030  0.49770  1.0000 0.1193979604
H   H51       1.0  0.01030  0.49770  0.89910  1.0000 0.1193979604
H   H52       1.0  0.10090  0.50230  0.98970  1.0000 0.1193979604
H   H53       1.0  0.98970  0.10090  0.50230  1.0000 0.1193979604
H   H54       1.0  0.50230  0.98970  0.10090  1.0000 0.1193979604
H   H55       1.0  0.50230  0.10090  0.98970  1.0000 0.1193979604
H   H56       1.0  0.10090  0.98970  0.50230  1.0000 0.1193979604
H   H57       1.0  0.98970  0.50230  0.10090  1.0000 0.1193979604
H   H58       1.0  0.89910  0.49770  0.01030  1.0000 0.1193979604
H   H59       1.0  0.01030  0.89910  0.49770  1.0000 0.1193979604
H   H60       1.0  0.49770  0.01030  0.89910  1.0000 0.1193979604
H   H61       1.0  0.59620  0.86600  0.82220  1.0000 0.0728769986
H   H62       1.0  0.86600  0.82220  0.59620  1.0000 0.0728769986
H   H63       1.0  0.82220  0.59620  0.86600  1.0000 0.0728769986
H   H64       1.0  0.13400  0.40380  0.17780  1.0000 0.0728769986
H   H65       1.0  0.17780  0.13400  0.40380  1.0000 0.0728769986
H   H66       1.0  0.40380  0.17780  0.13400  1.0000 0.0728769986
H   H67       1.0  0.40380  0.13400  0.17780  1.0000 0.0728769986
H   H68       1.0  0.13400  0.17780  0.40380  1.0000 0.0728769986
H   H69       1.0  0.17780  0.40380  0.13400  1.0000 0.0728769986
H   H70       1.0  0.86600  0.59620  0.82220  1.0000 0.0728769986
H   H71       1.0  0.82220  0.86600  0.59620  1.0000 0.0728769986
H   H72       1.0  0.59620  0.82220  0.86600  1.0000 0.0728769986
H   H73       1.0  0.62640  0.77020  0.77020  1.0000 0.104773759
H   H74       1.0  0.77020  0.77020  0.62640  1.0000 0.104773759
H   H75       1.0  0.77020  0.62640  0.77020  1.0000 0.104773759
H   H76       1.0  0.22980  0.37360  0.22980  1.0000 0.104773759
H   H77       1.0  0.22980  0.22980  0.37360  1.0000 0.104773759
H   H78       1.0  0.37360  0.22980  0.22980  1.0000 0.104773759
H   H79       1.0  0.52610  0.67740  0.72120  1.0000 0.1140620738
H   H80       1.0  0.67740  0.72120  0.52610  1.0000 0.1140620738
H   H81       1.0  0.72120  0.52610  0.67740  1.0000 0.1140620738
H   H82       1.0  0.32260  0.47390  0.27880  1.0000 0.1140620738
H   H83       1.0  0.27880  0.32260  0.47390  1.0000 0.1140620738
H   H84       1.0  0.47390  0.27880  0.32260  1.0000 0.1140620738
H   H85       1.0  0.47390  0.32260  0.27880  1.0000 0.1140620738
H   H86       1.0  0.32260  0.27880  0.47390  1.0000 0.1140620738
H   H87       1.0  0.27880  0.47390  0.32260  1.0000 0.1140620738
H   H88       1.0  0.67740  0.52610  0.72120  1.0000 0.1140620738
H   H89       1.0  0.72120  0.67740  0.52610  1.0000 0.1140620738
H   H90       1.0  0.52610  0.72120  0.67740  1.0000 0.1140620738
C   C1        1.0  0.48749  0.58700  0.95221  1.0000 0.5670694502
C   C2        1.0  0.58700  0.95221  0.48749  1.0000 0.5670694502
C   C3        1.0  0.95221  0.48749  0.58700  1.0000 0.5670694502
C   C4        1.0  0.41300  0.51251  0.04779  1.0000 0.5670694502
C   C5        1.0  0.04779  0.41300  0.51251  1.0000 0.5670694502
C   C6        1.0  0.51251  0.04779  0.41300  1.0000 0.5670694502
C   C7        1.0  0.51251  0.41300  0.04779  1.0000 0.5670694502
C   C8        1.0  0.41300  0.04779  0.51251  1.0000 0.5670694502
C   C9        1.0  0.04779  0.51251  0.41300  1.0000 0.5670694502
C   C10       1.0  0.58700  0.48749  0.95221  1.0000 0.5670694502
C   C11       1.0  0.95221  0.58700  0.48749  1.0000 0.5670694502
C   C12       1.0  0.48749  0.95221  0.58700  1.0000 0.5670694502
C   C13       1.0  0.48769  0.64861  0.93450  1.0000 -0.0121233543
C   C14       1.0  0.64861  0.93450  0.48769  1.0000 -0.0121233543
C   C15       1.0  0.93450  0.48769  0.64861  1.0000 -0.0121233543
C   C16       1.0  0.35139  0.51231  0.06550  1.0000 -0.0121233543
C   C17       1.0  0.06550  0.35139  0.51231  1.0000 -0.0121233543
C   C18       1.0  0.51231  0.06550  0.35139  1.0000 -0.0121233543
C   C19       1.0  0.51231  0.35139  0.06550  1.0000 -0.0121233543
C   C20       1.0  0.35139  0.06550  0.51231  1.0000 -0.0121233543
C   C21       1.0  0.06550  0.51231  0.35139  1.0000 -0.0121233543
C   C22       1.0  0.64861  0.48769  0.93450  1.0000 -0.0121233543
C   C23       1.0  0.93450  0.64861  0.48769  1.0000 -0.0121233543
C   C24       1.0  0.48769  0.93450  0.64861  1.0000 -0.0121233543
C   C25       1.0  0.41560  0.60780  0.84670  1.0000 -0.0841957258
C   C26       1.0  0.60780  0.84670  0.41560  1.0000 -0.0841957258
C   C27       1.0  0.84670  0.41560  0.60780  1.0000 -0.0841957258
C   C28       1.0  0.39220  0.58440  0.15330  1.0000 -0.0841957258
C   C29       1.0  0.15330  0.39220  0.58440  1.0000 -0.0841957258
C   C30       1.0  0.58440  0.15330  0.39220  1.0000 -0.0841957258
C   C31       1.0  0.58440  0.39220  0.15330  1.0000 -0.0841957258
C   C32       1.0  0.39220  0.15330  0.58440  1.0000 -0.0841957258
C   C33       1.0  0.15330  0.58440  0.39220  1.0000 -0.0841957258
C   C34       1.0  0.60780  0.41560  0.84670  1.0000 -0.0841957258
C   C35       1.0  0.84670  0.60780  0.41560  1.0000 -0.0841957258
C   C36       1.0  0.41560  0.84670  0.60780  1.0000 -0.0841957258
C   C37       1.0  0.41480  0.66610  0.83180  1.0000 -0.1417107888
C   C38       1.0  0.66610  0.83180  0.41480  1.0000 -0.1417107888
C   C39       1.0  0.83180  0.41480  0.66610  1.0000 -0.1417107888
C   C40       1.0  0.33390  0.58520  0.16820  1.0000 -0.1417107888
C   C41       1.0  0.16820  0.33390  0.58520  1.0000 -0.1417107888
C   C42       1.0  0.58520  0.16820  0.33390  1.0000 -0.1417107888
C   C43       1.0  0.58520  0.33390  0.16820  1.0000 -0.1417107888
C   C44       1.0  0.33390  0.16820  0.58520  1.0000 -0.1417107888
C   C45       1.0  0.16820  0.58520  0.33390  1.0000 -0.1417107888
C   C46       1.0  0.66610  0.41480  0.83180  1.0000 -0.1417107888
C   C47       1.0  0.83180  0.66610  0.41480  1.0000 -0.1417107888
C   C48       1.0  0.41480  0.83180  0.66610  1.0000 -0.1417107888
C   C49       1.0  0.48385  0.76349  0.90536  1.0000 0.083798959
C   C50       1.0  0.76349  0.90536  0.48385  1.0000 0.083798959
C   C51       1.0  0.90536  0.48385  0.76349  1.0000 0.083798959
C   C52       1.0  0.23651  0.51615  0.09464  1.0000 0.083798959
C   C53       1.0  0.09464  0.23651  0.51615  1.0000 0.083798959
C   C54       1.0  0.51615  0.09464  0.23651  1.0000 0.083798959
C   C55       1.0  0.51615  0.23651  0.09464  1.0000 0.083798959
C   C56       1.0  0.23651  0.09464  0.51615  1.0000 0.083798959
C   C57       1.0  0.09464  0.51615  0.23651  1.0000 0.083798959
C   C58       1.0  0.76349  0.48385  0.90536  1.0000 0.083798959
C   C59       1.0  0.90536  0.76349  0.48385  1.0000 0.083798959
C   C60       1.0  0.48385  0.90536  0.76349  1.0000 0.083798959
C   C61       1.0  0.56400  0.80790  0.99530  1.0000 -0.1663124867
C   C62       1.0  0.80790  0.99530  0.56400  1.0000 -0.1663124867
C   C63       1.0  0.99530  0.56400  0.80790  1.0000 -0.1663124867
C   C64       1.0  0.19210  0.43600  0.00470  1.0000 -0.1663124867
C   C65       1.0  0.00470  0.19210  0.43600  1.0000 -0.1663124867
C   C66       1.0  0.43600  0.00470  0.19210  1.0000 -0.1663124867
C   C67       1.0  0.43600  0.19210  0.00470  1.0000 -0.1663124867
C   C68       1.0  0.19210  0.00470  0.43600  1.0000 -0.1663124867
C   C69       1.0  0.00470  0.43600  0.19210  1.0000 -0.1663124867
C   C70       1.0  0.80790  0.56400  0.99530  1.0000 -0.1663124867
C   C71       1.0  0.99530  0.80790  0.56400  1.0000 -0.1663124867
C   C72       1.0  0.56400  0.99530  0.80790  1.0000 -0.1663124867
C   C73       1.0  0.56680  0.75070  0.01190  1.0000 -0.0944930193
C   C74       1.0  0.75070  0.01190  0.56680  1.0000 -0.0944930193
C   C75       1.0  0.01190  0.56680  0.75070  1.0000 -0.0944930193
C   C76       1.0  0.24930  0.43320  0.98810  1.0000 -0.0944930193
C   C77       1.0  0.98810  0.24930  0.43320  1.0000 -0.0944930193
C   C78       1.0  0.43320  0.98810  0.24930  1.0000 -0.0944930193
C   C79       1.0  0.43320  0.24930  0.98810  1.0000 -0.0944930193
C   C80       1.0  0.24930  0.98810  0.43320  1.0000 -0.0944930193
C   C81       1.0  0.98810  0.43320  0.24930  1.0000 -0.0944930193
C   C82       1.0  0.75070  0.56680  0.01190  1.0000 -0.0944930193
C   C83       1.0  0.01190  0.75070  0.56680  1.0000 -0.0944930193
C   C84       1.0  0.56680  0.01190  0.75070  1.0000 -0.0944930193
C   C85       1.0  0.48181  0.82950  0.89689  1.0000 -0.0121233543
C   C86       1.0  0.82950  0.89689  0.48181  1.0000 -0.0121233543
C   C87       1.0  0.89689  0.48181  0.82950  1.0000 -0.0121233543
C   C88       1.0  0.17050  0.51819  0.10311  1.0000 -0.0121233543
C   C89       1.0  0.10311  0.17050  0.51819  1.0000 -0.0121233543
C   C90       1.0  0.51819  0.10311  0.17050  1.0000 -0.0121233543
C   C91       1.0  0.51819  0.17050  0.10311  1.0000 -0.0121233543
C   C92       1.0  0.17050  0.10311  0.51819  1.0000 -0.0121233543
C   C93       1.0  0.10311  0.51819  0.17050  1.0000 -0.0121233543
C   C94       1.0  0.82950  0.48181  0.89689  1.0000 -0.0121233543
C   C95       1.0  0.89689  0.82950  0.48181  1.0000 -0.0121233543
C   C96       1.0  0.48181  0.89689  0.82950  1.0000 -0.0121233543
C   C97       1.0  0.49306  0.89846  0.96458  1.0000 -0.2010524331
C   C98       1.0  0.89846  0.96458  0.49306  1.0000 -0.2010524331
C   C99       1.0  0.96458  0.49306  0.89846  1.0000 -0.2010524331
C   C100      1.0  0.10154  0.50694  0.03542  1.0000 -0.2010524331
C   C101      1.0  0.03542  0.10154  0.50694  1.0000 -0.2010524331
C   C102      1.0  0.50694  0.03542  0.10154  1.0000 -0.2010524331
C   C103      1.0  0.50694  0.10154  0.03542  1.0000 -0.2010524331
C   C104      1.0  0.10154  0.03542  0.50694  1.0000 -0.2010524331
C   C105      1.0  0.03542  0.50694  0.10154  1.0000 -0.2010524331
C   C106      1.0  0.89846  0.49306  0.96458  1.0000 -0.2010524331
C   C107      1.0  0.96458  0.89846  0.49306  1.0000 -0.2010524331
C   C108      1.0  0.49306  0.96458  0.89846  1.0000 -0.2010524331
C   C109      1.0  0.49762  0.96599  0.96599  1.0000 0.0728769986
C   C110      1.0  0.96599  0.96599  0.49762  1.0000 0.0728769986
C   C111      1.0  0.96599  0.49762  0.96599  1.0000 0.0728769986
C   C112      1.0  0.03401  0.50238  0.03401  1.0000 0.0728769986
C   C113      1.0  0.03401  0.03401  0.50238  1.0000 0.0728769986
C   C114      1.0  0.50238  0.03401  0.03401  1.0000 0.0728769986
C   C115      1.0  0.47660  0.82875  0.82875  1.0000 0.1383356543
C   C116      1.0  0.82875  0.82875  0.47660  1.0000 0.1383356543
C   C117      1.0  0.82875  0.47660  0.82875  1.0000 0.1383356543
C   C118      1.0  0.17125  0.52340  0.17125  1.0000 0.1383356543
C   C119      1.0  0.17125  0.17125  0.52340  1.0000 0.1383356543
C   C120      1.0  0.52340  0.17125  0.17125  1.0000 0.1383356543
C   C121      1.0  0.56100  0.80530  0.80530  1.0000 0.0177151739
C   C122      1.0  0.80530  0.80530  0.56100  1.0000 0.0177151739
C   C123      1.0  0.80530  0.56100  0.80530  1.0000 0.0177151739
C   C124      1.0  0.19470  0.43900  0.19470  1.0000 0.0177151739
C   C125      1.0  0.19470  0.19470  0.43900  1.0000 0.0177151739
C   C126      1.0  0.43900  0.19470  0.19470  1.0000 0.0177151739
C   C127      1.0  0.55970  0.73710  0.73710  1.0000 -0.3863808173
C   C128      1.0  0.73710  0.73710  0.55970  1.0000 -0.3863808173
C   C129      1.0  0.73710  0.55970  0.73710  1.0000 -0.3863808173
C   C130      1.0  0.26290  0.44030  0.26290  1.0000 -0.3863808173
C   C131      1.0  0.26290  0.26290  0.44030  1.0000 -0.3863808173
C   C132      1.0  0.44030  0.26290  0.26290  1.0000 -0.3863808173
O   O1        1.0  0.56305  0.63990  0.04395  1.0000 -0.5335122355
O   O2        1.0  0.63990  0.04395  0.56305  1.0000 -0.5335122355
O   O3        1.0  0.04395  0.56305  0.63990  1.0000 -0.5335122355
O   O4        1.0  0.36010  0.43695  0.95605  1.0000 -0.5335122355
O   O5        1.0  0.95605  0.36010  0.43695  1.0000 -0.5335122355
O   O6        1.0  0.43695  0.95605  0.36010  1.0000 -0.5335122355
O   O7        1.0  0.43695  0.36010  0.95605  1.0000 -0.5335122355
O   O8        1.0  0.36010  0.95605  0.43695  1.0000 -0.5335122355
O   O9        1.0  0.95605  0.43695  0.36010  1.0000 -0.5335122355
O   O10       1.0  0.63990  0.56305  0.04395  1.0000 -0.5335122355
O   O11       1.0  0.04395  0.63990  0.56305  1.0000 -0.5335122355
O   O12       1.0  0.56305  0.04395  0.63990  1.0000 -0.5335122355
O   O13       1.0  0.41844  0.49603  0.88123  1.0000 -0.4831095495
O   O14       1.0  0.49603  0.88123  0.41844  1.0000 -0.4831095495
O   O15       1.0  0.88123  0.41844  0.49603  1.0000 -0.4831095495
O   O16       1.0  0.50397  0.58156  0.11877  1.0000 -0.4831095495
O   O17       1.0  0.11877  0.50397  0.58156  1.0000 -0.4831095495
O   O18       1.0  0.58156  0.11877  0.50397  1.0000 -0.4831095495
O   O19       1.0  0.58156  0.50397  0.11877  1.0000 -0.4831095495
O   O20       1.0  0.50397  0.11877  0.58156  1.0000 -0.4831095495
O   O21       1.0  0.11877  0.58156  0.50397  1.0000 -0.4831095495
O   O22       1.0  0.49603  0.41844  0.88123  1.0000 -0.4831095495
O   O23       1.0  0.88123  0.49603  0.41844  1.0000 -0.4831095495
O   O24       1.0  0.41844  0.88123  0.49603  1.0000 -0.4831095495
O   O25       1.0  0.46386  0.76012  0.76012  1.0000 -0.2010524331
O   O26       1.0  0.76012  0.76012  0.46386  1.0000 -0.2010524331
O   O27       1.0  0.76012  0.46386  0.76012  1.0000 -0.2010524331
O   O28       1.0  0.23988  0.53614  0.23988  1.0000 -0.2010524331
O   O29       1.0  0.23988  0.23988  0.53614  1.0000 -0.2010524331
O   O30       1.0  0.53614  0.23988  0.23988  1.0000 -0.2010524331
