# DDEC6 charges by PACMAN v1.1 (https://github.com/mtap-research/PACMAN-charge/)
data_2016[Cd][nan]3[ASR]23
_chemical_formula_sum              "Cd9 H138 C198 N12 O48"
_cell_length_a       15.398
_cell_length_b       15.398
_cell_length_c       25.456
_cell_angle_alpha    90
_cell_angle_beta     90
_cell_angle_gamma    120

_symmetry_space_group_name_H-M    "P 1"
_symmetry_Int_Tables_number       1

loop_
  _symmetry_equiv_pos_as_xyz
  'x, y, z'

loop_
  _atom_site_type_symbol
  _atom_site_label
  _atom_site_symmetry_multiplicity
  _atom_site_fract_x
  _atom_site_fract_y
  _atom_site_fract_z
  _atom_site_occupancy
  _atom_site_charge
Cd  Cd1       1.0  0.34702  0.77902  0.19861  1.0000 0.9102024354
Cd  Cd2       1.0  0.22098  0.56801  0.86527  1.0000 0.9102024354
Cd  Cd3       1.0  0.43199  0.65298  0.53194  1.0000 0.9102024354
Cd  Cd4       1.0  0.77902  0.34703  0.80139  1.0000 0.9102024354
Cd  Cd5       1.0  0.56801  0.22098  0.13472  1.0000 0.9102024354
Cd  Cd6       1.0  0.65297  0.43199  0.46806  1.0000 0.9102024354
Cd  Cd7       1.0  0.50177  0.00001  0.66667  1.0000 0.6426713186
Cd  Cd8       1.0  0.99999  0.50176  0.33333  1.0000 0.6458790617
Cd  Cd9       1.0  0.49824  0.49823  0.00000  1.0000 0.6426713186
H   H1        1.0  0.63155  0.07552  0.76874  1.0000 0.0992702226
H   H2        1.0  0.92448  0.55602  0.43541  1.0000 0.0992702226
H   H3        1.0  0.44398  0.36845  0.10208  1.0000 0.0992702226
H   H4        1.0  0.07552  0.63155  0.23126  1.0000 0.0992702226
H   H5        1.0  0.55603  0.92448  0.56459  1.0000 0.0992702226
H   H6        1.0  0.36845  0.44397  0.89792  1.0000 0.0992702226
H   H7        1.0  0.24717  0.00398  0.06448  1.0000 0.1191304781
H   H8        1.0  0.99602  0.24319  0.73115  1.0000 0.1191304781
H   H9        1.0  0.75681  0.75283  0.39781  1.0000 0.1191304781
H   H10       1.0  0.00397  0.24716  0.93552  1.0000 0.1191304781
H   H11       1.0  0.24320  0.99603  0.26885  1.0000 0.1191304781
H   H12       1.0  0.75284  0.75680  0.60219  1.0000 0.1191304781
H   H13       1.0  0.96517  0.99521  0.09596  1.0000 0.1477967816
H   H14       1.0  0.00479  0.96996  0.76263  1.0000 0.1477967816
H   H15       1.0  0.03004  0.03483  0.42930  1.0000 0.1477967816
H   H16       1.0  0.99521  0.96517  0.90404  1.0000 0.1477967816
H   H17       1.0  0.96996  0.00479  0.23737  1.0000 0.1477967816
H   H18       1.0  0.03483  0.03004  0.57070  1.0000 0.1477967816
H   H19       1.0  0.09091  0.24248  0.24870  1.0000 0.1285247013
H   H20       1.0  0.75752  0.84844  0.91536  1.0000 0.1285247013
H   H21       1.0  0.15156  0.90909  0.58203  1.0000 0.1285247013
H   H22       1.0  0.24248  0.09091  0.75131  1.0000 0.1285247013
H   H23       1.0  0.84843  0.75752  0.08464  1.0000 0.1285247013
H   H24       1.0  0.90909  0.15157  0.41797  1.0000 0.1285247013
H   H25       1.0  0.17457  0.43157  0.26111  1.0000 0.0992702226
H   H26       1.0  0.56843  0.74300  0.92777  1.0000 0.0992702226
H   H27       1.0  0.25700  0.82543  0.59444  1.0000 0.0992702226
H   H28       1.0  0.43156  0.17455  0.73889  1.0000 0.0992702226
H   H29       1.0  0.74299  0.56844  0.07222  1.0000 0.0992702226
H   H30       1.0  0.82545  0.25701  0.40556  1.0000 0.0992702226
H   H31       1.0  0.10204  0.78606  0.08824  1.0000 0.1285247013
H   H32       1.0  0.21394  0.31598  0.75491  1.0000 0.1285247013
H   H33       1.0  0.68402  0.89796  0.42158  1.0000 0.1285247013
H   H34       1.0  0.78605  0.10203  0.91175  1.0000 0.1285247013
H   H35       1.0  0.31598  0.21395  0.24508  1.0000 0.1285247013
H   H36       1.0  0.89797  0.68402  0.57842  1.0000 0.1285247013
H   H37       1.0  0.60841  0.03966  0.86160  1.0000 0.1285247013
H   H38       1.0  0.96034  0.56875  0.52827  1.0000 0.1285247013
H   H39       1.0  0.43125  0.39159  0.19494  1.0000 0.1285247013
H   H40       1.0  0.03966  0.60841  0.13840  1.0000 0.1285247013
H   H41       1.0  0.56875  0.96034  0.47173  1.0000 0.1285247013
H   H42       1.0  0.39159  0.43125  0.80507  1.0000 0.1285247013
H   H43       1.0  0.14664  0.83326  0.89346  1.0000 0.1107997541
H   H44       1.0  0.16674  0.31338  0.56012  1.0000 0.1107997541
H   H45       1.0  0.68662  0.85336  0.22679  1.0000 0.1107997541
H   H46       1.0  0.83327  0.14665  0.10654  1.0000 0.1107997541
H   H47       1.0  0.31338  0.16673  0.43988  1.0000 0.1107997541
H   H48       1.0  0.85335  0.68662  0.77321  1.0000 0.1107997541
H   H49       1.0  0.24271  0.22703  0.16543  1.0000 0.1285247013
H   H50       1.0  0.77297  0.01569  0.83209  1.0000 0.1285247013
H   H51       1.0  0.98431  0.75729  0.49876  1.0000 0.1285247013
H   H52       1.0  0.22702  0.24272  0.83458  1.0000 0.1285247013
H   H53       1.0  0.01569  0.77298  0.16791  1.0000 0.1285247013
H   H54       1.0  0.75728  0.98431  0.50124  1.0000 0.1285247013
H   H55       1.0  0.29230  0.83060  0.83263  1.0000 0.1285247013
H   H56       1.0  0.16940  0.46171  0.49929  1.0000 0.1285247013
H   H57       1.0  0.53829  0.70770  0.16596  1.0000 0.1285247013
H   H58       1.0  0.83059  0.29231  0.16737  1.0000 0.1285247013
H   H59       1.0  0.46172  0.16941  0.50071  1.0000 0.1285247013
H   H60       1.0  0.70769  0.53828  0.83404  1.0000 0.1285247013
H   H61       1.0  0.16452  0.69022  0.03534  1.0000 0.1107997541
H   H62       1.0  0.30978  0.47429  0.70200  1.0000 0.1107997541
H   H63       1.0  0.52571  0.83548  0.36867  1.0000 0.1107997541
H   H64       1.0  0.69022  0.16451  0.96467  1.0000 0.1107997541
H   H65       1.0  0.47429  0.30978  0.29800  1.0000 0.1107997541
H   H66       1.0  0.83549  0.52571  0.63133  1.0000 0.1107997541
H   H67       1.0  0.10219  0.28488  0.08072  1.0000 0.1285247013
H   H68       1.0  0.71512  0.81731  0.74739  1.0000 0.1285247013
H   H69       1.0  0.18269  0.89781  0.41405  1.0000 0.1285247013
H   H70       1.0  0.28489  0.10219  0.91928  1.0000 0.1285247013
H   H71       1.0  0.81730  0.71511  0.25261  1.0000 0.1285247013
H   H72       1.0  0.89781  0.18270  0.58595  1.0000 0.1285247013
H   H73       1.0  0.19195  0.47316  0.09341  1.0000 0.1191304781
H   H74       1.0  0.52684  0.71879  0.76007  1.0000 0.1191304781
H   H75       1.0  0.28121  0.80805  0.42674  1.0000 0.1191304781
H   H76       1.0  0.47316  0.19193  0.90659  1.0000 0.1191304781
H   H77       1.0  0.71878  0.52684  0.23992  1.0000 0.1191304781
H   H78       1.0  0.80807  0.28122  0.57326  1.0000 0.1191304781
H   H79       1.0  0.09153  0.93544  0.94655  1.0000 0.1107997541
H   H80       1.0  0.06456  0.15610  0.61321  1.0000 0.1107997541
H   H81       1.0  0.84390  0.90847  0.27988  1.0000 0.1107997541
H   H82       1.0  0.93545  0.09153  0.05346  1.0000 0.1107997541
H   H83       1.0  0.15608  0.06455  0.38679  1.0000 0.1107997541
H   H84       1.0  0.90847  0.84392  0.72012  1.0000 0.1107997541
H   H85       1.0  0.32704  0.87033  0.73677  1.0000 0.0812331958
H   H86       1.0  0.12967  0.45671  0.40343  1.0000 0.0812331958
H   H87       1.0  0.54329  0.67296  0.07010  1.0000 0.0812331958
H   H88       1.0  0.87032  0.32704  0.26323  1.0000 0.0812331958
H   H89       1.0  0.45672  0.12968  0.59657  1.0000 0.0812331958
H   H90       1.0  0.67296  0.54328  0.92990  1.0000 0.0812331958
H   H91       1.0  0.35388  0.90316  0.92316  1.0000 0.0895709403
H   H92       1.0  0.09684  0.45072  0.58982  1.0000 0.0895709403
H   H93       1.0  0.54928  0.64612  0.25649  1.0000 0.0895709403
H   H94       1.0  0.90317  0.35389  0.07685  1.0000 0.0895709403
H   H95       1.0  0.45072  0.09683  0.41018  1.0000 0.0895709403
H   H96       1.0  0.64611  0.54928  0.74351  1.0000 0.0895709403
H   H97       1.0  0.39651  0.81773  0.91523  1.0000 0.1191304781
H   H98       1.0  0.18227  0.57878  0.58189  1.0000 0.1191304781
H   H99       1.0  0.42122  0.60349  0.24856  1.0000 0.1191304781
H   H100      1.0  0.81773  0.39650  0.08477  1.0000 0.1191304781
H   H101      1.0  0.57877  0.18227  0.41811  1.0000 0.1191304781
H   H102      1.0  0.60350  0.42123  0.75144  1.0000 0.1191304781
H   H103      1.0  0.52889  0.03841  0.95152  1.0000 0.1107997541
H   H104      1.0  0.96159  0.49048  0.61819  1.0000 0.1107997541
H   H105      1.0  0.50952  0.47111  0.28486  1.0000 0.1107997541
H   H106      1.0  0.03841  0.52889  0.04848  1.0000 0.1107997541
H   H107      1.0  0.49048  0.96159  0.38181  1.0000 0.1107997541
H   H108      1.0  0.47111  0.50952  0.71514  1.0000 0.1107997541
H   H109      1.0  0.57262  0.95148  0.94354  1.0000 0.0895709403
H   H110      1.0  0.04852  0.62114  0.61020  1.0000 0.0895709403
H   H111      1.0  0.37886  0.42738  0.27687  1.0000 0.0895709403
H   H112      1.0  0.95148  0.57262  0.05647  1.0000 0.0895709403
H   H113      1.0  0.62114  0.04852  0.38980  1.0000 0.0895709403
H   H114      1.0  0.42738  0.37886  0.72313  1.0000 0.0895709403
H   H115      1.0  0.36695  0.97590  0.01637  1.0000 0.1191304781
H   H116      1.0  0.02410  0.39104  0.68303  1.0000 0.1191304781
H   H117      1.0  0.60896  0.63305  0.34970  1.0000 0.1191304781
H   H118      1.0  0.97591  0.36695  0.98363  1.0000 0.1191304781
H   H119      1.0  0.39104  0.02409  0.31697  1.0000 0.1191304781
H   H120      1.0  0.63305  0.60896  0.65030  1.0000 0.1191304781
H   H121      1.0  0.31477  0.90977  0.10663  1.0000 0.0895709403
H   H122      1.0  0.09023  0.40500  0.77330  1.0000 0.0895709403
H   H123      1.0  0.59500  0.68523  0.43996  1.0000 0.0895709403
H   H124      1.0  0.90979  0.31478  0.89337  1.0000 0.0895709403
H   H125      1.0  0.40499  0.09021  0.22670  1.0000 0.0895709403
H   H126      1.0  0.68522  0.59501  0.56004  1.0000 0.0895709403
H   H127      1.0  0.52315  0.81491  0.11486  1.0000 0.0812331958
H   H128      1.0  0.18509  0.70823  0.78153  1.0000 0.0812331958
H   H129      1.0  0.29177  0.47685  0.44819  1.0000 0.0812331958
H   H130      1.0  0.81492  0.52315  0.88514  1.0000 0.0812331958
H   H131      1.0  0.70823  0.18508  0.21847  1.0000 0.0812331958
H   H132      1.0  0.47685  0.29177  0.55181  1.0000 0.0812331958
H   H133      1.0  0.58008  0.86913  0.02244  1.0000 0.1107997541
H   H134      1.0  0.13087  0.71095  0.68910  1.0000 0.1107997541
H   H135      1.0  0.28905  0.41992  0.35577  1.0000 0.1107997541
H   H136      1.0  0.86912  0.58007  0.97757  1.0000 0.1107997541
H   H137      1.0  0.71095  0.13088  0.31090  1.0000 0.1107997541
H   H138      1.0  0.41993  0.28905  0.64423  1.0000 0.1107997541
C   C1        1.0  0.55755  0.01916  0.78317  1.0000 0.1107997541
C   C2        1.0  0.98084  0.53839  0.44983  1.0000 0.1107997541
C   C3        1.0  0.46161  0.44245  0.11650  1.0000 0.1107997541
C   C4        1.0  0.01916  0.55755  0.21684  1.0000 0.1107997541
C   C5        1.0  0.53839  0.98084  0.55017  1.0000 0.1107997541
C   C6        1.0  0.44245  0.46161  0.88350  1.0000 0.1107997541
C   C7        1.0  0.09874  0.11661  0.13160  1.0000 0.270018624
C   C8        1.0  0.88339  0.98213  0.79827  1.0000 0.270018624
C   C9        1.0  0.01787  0.90126  0.46493  1.0000 0.270018624
C   C10       1.0  0.11661  0.09874  0.86840  1.0000 0.270018624
C   C11       1.0  0.98213  0.88339  0.20174  1.0000 0.270018624
C   C12       1.0  0.90126  0.01787  0.53507  1.0000 0.270018624
C   C13       1.0  0.25426  0.11935  0.11562  1.0000 0.0345202168
C   C14       1.0  0.88065  0.13491  0.78229  1.0000 0.0345202168
C   C15       1.0  0.86509  0.74574  0.44895  1.0000 0.0345202168
C   C16       1.0  0.11934  0.25426  0.88438  1.0000 0.0345202168
C   C17       1.0  0.13491  0.88066  0.21771  1.0000 0.0345202168
C   C18       1.0  0.74574  0.86509  0.55105  1.0000 0.0345202168
C   C19       1.0  0.20428  0.03500  0.08300  1.0000 -0.2494630035
C   C20       1.0  0.96500  0.16929  0.74967  1.0000 -0.2494630035
C   C21       1.0  0.83071  0.79572  0.41634  1.0000 -0.2494630035
C   C22       1.0  0.03499  0.20428  0.91700  1.0000 -0.2494630035
C   C23       1.0  0.16929  0.96501  0.25033  1.0000 -0.2494630035
C   C24       1.0  0.79572  0.83071  0.58366  1.0000 -0.2494630035
C   C25       1.0  0.10058  0.99178  0.07612  1.0000 0.2803024617
C   C26       1.0  0.00822  0.10879  0.74279  1.0000 0.2803024617
C   C27       1.0  0.89121  0.89942  0.40945  1.0000 0.2803024617
C   C28       1.0  0.99178  0.10058  0.92388  1.0000 0.2803024617
C   C29       1.0  0.10880  0.00822  0.25721  1.0000 0.2803024617
C   C30       1.0  0.89942  0.89120  0.59055  1.0000 0.2803024617
C   C31       1.0  0.04655  0.03163  0.10049  1.0000 -0.2930147631
C   C32       1.0  0.96837  0.01492  0.76716  1.0000 -0.2930147631
C   C33       1.0  0.98508  0.95345  0.43382  1.0000 -0.2930147631
C   C34       1.0  0.03164  0.04655  0.89951  1.0000 -0.2930147631
C   C35       1.0  0.01491  0.96836  0.23284  1.0000 -0.2930147631
C   C36       1.0  0.95345  0.98509  0.56618  1.0000 -0.2930147631
C   C37       1.0  0.09173  0.25579  0.16418  1.0000 0.2481795268
C   C38       1.0  0.74421  0.83595  0.83085  1.0000 0.2481795268
C   C39       1.0  0.16405  0.90827  0.49752  1.0000 0.2481795268
C   C40       1.0  0.25579  0.09173  0.83582  1.0000 0.2481795268
C   C41       1.0  0.83594  0.74421  0.16915  1.0000 0.2481795268
C   C42       1.0  0.90827  0.16406  0.50248  1.0000 0.2481795268
C   C43       1.0  0.11055  0.29403  0.21533  1.0000 -0.1929241282
C   C44       1.0  0.70597  0.81652  0.88200  1.0000 -0.1929241282
C   C45       1.0  0.18348  0.88945  0.54867  1.0000 -0.1929241282
C   C46       1.0  0.29404  0.11054  0.78467  1.0000 -0.1929241282
C   C47       1.0  0.81651  0.70596  0.11800  1.0000 -0.1929241282
C   C48       1.0  0.88946  0.18349  0.45133  1.0000 -0.1929241282
C   C49       1.0  0.36466  0.16295  0.12678  1.0000 0.5464961099
C   C50       1.0  0.83705  0.20171  0.79345  1.0000 0.5464961099
C   C51       1.0  0.79829  0.63534  0.46012  1.0000 0.5464961099
C   C52       1.0  0.16293  0.36465  0.87321  1.0000 0.5464961099
C   C53       1.0  0.20171  0.83707  0.20655  1.0000 0.5464961099
C   C54       1.0  0.63535  0.79829  0.53988  1.0000 0.5464961099
C   C55       1.0  0.15791  0.39797  0.22177  1.0000 -0.0716485973
C   C56       1.0  0.60203  0.75994  0.88844  1.0000 -0.0716485973
C   C57       1.0  0.24006  0.84209  0.55511  1.0000 -0.0716485973
C   C58       1.0  0.39797  0.15790  0.77822  1.0000 -0.0716485973
C   C59       1.0  0.75993  0.60203  0.11156  1.0000 -0.0716485973
C   C60       1.0  0.84210  0.24007  0.44489  1.0000 -0.0716485973
C   C61       1.0  0.18424  0.68911  0.92970  1.0000 0.5421079712
C   C62       1.0  0.31089  0.49513  0.59637  1.0000 0.5421079712
C   C63       1.0  0.50487  0.81576  0.26304  1.0000 0.5421079712
C   C64       1.0  0.68915  0.18425  0.07033  1.0000 0.5421079712
C   C65       1.0  0.49510  0.31085  0.40366  1.0000 0.5421079712
C   C66       1.0  0.81575  0.50490  0.73699  1.0000 0.5421079712
C   C67       1.0  0.15618  0.75352  0.96124  1.0000 -0.0460088385
C   C68       1.0  0.24648  0.40266  0.62791  1.0000 -0.0460088385
C   C69       1.0  0.59734  0.84382  0.29458  1.0000 -0.0460088385
C   C70       1.0  0.75352  0.15618  0.03876  1.0000 -0.0460088385
C   C71       1.0  0.40266  0.24648  0.37209  1.0000 -0.0460088385
C   C72       1.0  0.84382  0.59734  0.70542  1.0000 -0.0460088385
C   C73       1.0  0.11075  0.79507  0.04543  1.0000 -0.1929241282
C   C74       1.0  0.20493  0.31568  0.71209  1.0000 -0.1929241282
C   C75       1.0  0.68432  0.88925  0.37876  1.0000 -0.1929241282
C   C76       1.0  0.79506  0.11074  0.95458  1.0000 -0.1929241282
C   C77       1.0  0.31568  0.20494  0.28791  1.0000 -0.1929241282
C   C78       1.0  0.88926  0.68432  0.62125  1.0000 -0.1929241282
C   C79       1.0  0.54216  0.99830  0.83670  1.0000 -0.168149395
C   C80       1.0  0.00170  0.54386  0.50336  1.0000 -0.168149395
C   C81       1.0  0.45614  0.45784  0.17003  1.0000 -0.168149395
C   C82       1.0  0.99829  0.54216  0.16330  1.0000 -0.168149395
C   C83       1.0  0.54387  0.00171  0.49664  1.0000 -0.168149395
C   C84       1.0  0.45784  0.45613  0.82997  1.0000 -0.168149395
C   C85       1.0  0.08923  0.86190  0.01907  1.0000 0.2436149361
C   C86       1.0  0.13810  0.22733  0.68574  1.0000 0.2436149361
C   C87       1.0  0.77267  0.91077  0.35241  1.0000 0.2436149361
C   C88       1.0  0.86189  0.08922  0.98092  1.0000 0.2436149361
C   C89       1.0  0.22733  0.13811  0.31425  1.0000 0.2436149361
C   C90       1.0  0.91078  0.77267  0.64759  1.0000 0.2436149361
C   C91       1.0  0.13754  0.82380  0.93608  1.0000 -0.0798886029
C   C92       1.0  0.17620  0.31374  0.60275  1.0000 -0.0798886029
C   C93       1.0  0.68626  0.86246  0.26942  1.0000 -0.0798886029
C   C94       1.0  0.82380  0.13754  0.06392  1.0000 -0.0798886029
C   C95       1.0  0.31373  0.17620  0.39725  1.0000 -0.0798886029
C   C96       1.0  0.86246  0.68627  0.73059  1.0000 -0.0798886029
C   C97       1.0  0.44646  0.92959  0.85621  1.0000 0.169190904
C   C98       1.0  0.07041  0.51688  0.52287  1.0000 0.169190904
C   C99       1.0  0.48312  0.55354  0.18954  1.0000 0.169190904
C   C100      1.0  0.92959  0.44647  0.14379  1.0000 0.169190904
C   C101      1.0  0.51688  0.07041  0.47713  1.0000 0.169190904
C   C102      1.0  0.55353  0.48312  0.81046  1.0000 0.169190904
C   C103      1.0  0.20241  0.16164  0.13982  1.0000 -0.2494630035
C   C104      1.0  0.83836  0.04077  0.80649  1.0000 -0.2494630035
C   C105      1.0  0.95923  0.79759  0.47316  1.0000 -0.2494630035
C   C106      1.0  0.16164  0.20241  0.86018  1.0000 -0.2494630035
C   C107      1.0  0.04077  0.83836  0.19351  1.0000 -0.2494630035
C   C108      1.0  0.79759  0.95923  0.52684  1.0000 -0.2494630035
C   C109      1.0  0.36803  0.88498  0.81900  1.0000 -0.1799988878
C   C110      1.0  0.11502  0.48305  0.48566  1.0000 -0.1799988878
C   C111      1.0  0.51695  0.63197  0.15233  1.0000 -0.1799988878
C   C112      1.0  0.88497  0.36803  0.18100  1.0000 -0.1799988878
C   C113      1.0  0.48306  0.11503  0.51434  1.0000 -0.1799988878
C   C114      1.0  0.63197  0.51694  0.84767  1.0000 -0.1799988878
C   C115      1.0  0.14556  0.74206  0.01605  1.0000 -0.0716485973
C   C116      1.0  0.25794  0.40350  0.68271  1.0000 -0.0716485973
C   C117      1.0  0.59650  0.85444  0.34938  1.0000 -0.0716485973
C   C118      1.0  0.74206  0.14555  0.98395  1.0000 -0.0716485973
C   C119      1.0  0.40349  0.25794  0.31729  1.0000 -0.0716485973
C   C120      1.0  0.85445  0.59651  0.65062  1.0000 -0.0716485973
C   C121      1.0  0.18819  0.46275  0.17831  1.0000 -0.0336514657
C   C122      1.0  0.53725  0.72545  0.84498  1.0000 -0.0336514657
C   C123      1.0  0.27455  0.81181  0.51165  1.0000 -0.0336514657
C   C124      1.0  0.46274  0.18818  0.82169  1.0000 -0.0336514657
C   C125      1.0  0.72544  0.53726  0.15502  1.0000 -0.0336514657
C   C126      1.0  0.81182  0.27456  0.48835  1.0000 -0.0336514657
C   C127      1.0  0.11961  0.31872  0.12004  1.0000 -0.1929241282
C   C128      1.0  0.68128  0.80089  0.78671  1.0000 -0.1929241282
C   C129      1.0  0.19911  0.88039  0.45338  1.0000 -0.1929241282
C   C130      1.0  0.31873  0.11960  0.87995  1.0000 -0.1929241282
C   C131      1.0  0.80088  0.68127  0.21329  1.0000 -0.1929241282
C   C132      1.0  0.88040  0.19912  0.54662  1.0000 -0.1929241282
C   C133      1.0  0.24156  0.57385  0.18692  1.0000 0.5464961099
C   C134      1.0  0.42615  0.66771  0.85359  1.0000 0.5464961099
C   C135      1.0  0.33229  0.75844  0.52025  1.0000 0.5464961099
C   C136      1.0  0.57386  0.24156  0.81308  1.0000 0.5464961099
C   C137      1.0  0.66770  0.42614  0.14641  1.0000 0.5464961099
C   C138      1.0  0.75844  0.33230  0.47974  1.0000 0.5464961099
C   C139      1.0  0.16903  0.42237  0.12719  1.0000 -0.0638130514
C   C140      1.0  0.57763  0.74665  0.79386  1.0000 -0.0638130514
C   C141      1.0  0.25335  0.83097  0.46053  1.0000 -0.0638130514
C   C142      1.0  0.42237  0.16902  0.87280  1.0000 -0.0638130514
C   C143      1.0  0.74664  0.57763  0.20614  1.0000 -0.0638130514
C   C144      1.0  0.83098  0.25336  0.53947  1.0000 -0.0638130514
C   C145      1.0  0.10522  0.87926  0.96505  1.0000 -0.1929241282
C   C146      1.0  0.12074  0.22596  0.63172  1.0000 -0.1929241282
C   C147      1.0  0.77404  0.89478  0.29838  1.0000 -0.1929241282
C   C148      1.0  0.87927  0.10522  0.03496  1.0000 -0.1929241282
C   C149      1.0  0.22595  0.12073  0.36829  1.0000 -0.1929241282
C   C150      1.0  0.89478  0.77405  0.70162  1.0000 -0.1929241282
C   C151      1.0  0.38680  0.90636  0.76615  1.0000 0.0895709403
C   C152      1.0  0.09364  0.48044  0.43282  1.0000 0.0895709403
C   C153      1.0  0.51956  0.61320  0.09948  1.0000 0.0895709403
C   C154      1.0  0.90636  0.38681  0.23385  1.0000 0.0895709403
C   C155      1.0  0.48045  0.09364  0.56719  1.0000 0.0895709403
C   C156      1.0  0.61319  0.51955  0.90052  1.0000 0.0895709403
C   C157      1.0  0.42209  0.89920  0.91308  1.0000 -0.1799988878
C   C158      1.0  0.10080  0.52289  0.57975  1.0000 -0.1799988878
C   C159      1.0  0.47711  0.57791  0.24641  1.0000 -0.1799988878
C   C160      1.0  0.89920  0.42208  0.08692  1.0000 -0.1799988878
C   C161      1.0  0.52288  0.10080  0.42025  1.0000 -0.1799988878
C   C162      1.0  0.57792  0.47712  0.75359  1.0000 -0.1799988878
C   C163      1.0  0.50569  0.95766  0.95341  1.0000 -0.1929241282
C   C164      1.0  0.04234  0.54803  0.62007  1.0000 -0.1929241282
C   C165      1.0  0.45197  0.49431  0.28674  1.0000 -0.1929241282
C   C166      1.0  0.95766  0.50569  0.04659  1.0000 -0.1929241282
C   C167      1.0  0.54803  0.04234  0.37993  1.0000 -0.1929241282
C   C168      1.0  0.49431  0.45197  0.71326  1.0000 -0.1929241282
C   C169      1.0  0.47474  0.92305  0.00935  1.0000 0.169190904
C   C170      1.0  0.07695  0.55169  0.67601  1.0000 0.169190904
C   C171      1.0  0.44831  0.52526  0.34268  1.0000 0.169190904
C   C172      1.0  0.92305  0.47474  0.99065  1.0000 0.169190904
C   C173      1.0  0.55169  0.07695  0.32399  1.0000 0.169190904
C   C174      1.0  0.52526  0.44831  0.65732  1.0000 0.169190904
C   C175      1.0  0.40139  0.93632  0.03496  1.0000 -0.168149395
C   C176      1.0  0.06368  0.46507  0.70163  1.0000 -0.168149395
C   C177      1.0  0.53493  0.59861  0.36830  1.0000 -0.168149395
C   C178      1.0  0.93632  0.40139  0.96504  1.0000 -0.168149395
C   C179      1.0  0.46507  0.06368  0.29837  1.0000 -0.168149395
C   C180      1.0  0.59861  0.53493  0.63170  1.0000 -0.168149395
C   C181      1.0  0.37260  0.90121  0.08612  1.0000 0.1107997541
C   C182      1.0  0.09879  0.47139  0.75279  1.0000 0.1107997541
C   C183      1.0  0.52861  0.62740  0.41945  1.0000 0.1107997541
C   C184      1.0  0.90122  0.37261  0.91388  1.0000 0.1107997541
C   C185      1.0  0.47139  0.09878  0.24721  1.0000 0.1107997541
C   C186      1.0  0.62739  0.52861  0.58055  1.0000 0.1107997541
C   C187      1.0  0.48770  0.84697  0.09032  1.0000 0.0992702226
C   C188      1.0  0.15303  0.64073  0.75698  1.0000 0.0992702226
C   C189      1.0  0.35927  0.51230  0.42365  1.0000 0.0992702226
C   C190      1.0  0.84698  0.48771  0.90968  1.0000 0.0992702226
C   C191      1.0  0.64072  0.15302  0.24302  1.0000 0.0992702226
C   C192      1.0  0.51229  0.35928  0.57635  1.0000 0.0992702226
C   C193      1.0  0.51895  0.87783  0.03880  1.0000 -0.1929241282
C   C194      1.0  0.12217  0.64111  0.70546  1.0000 -0.1929241282
C   C195      1.0  0.35889  0.48105  0.37213  1.0000 -0.1929241282
C   C196      1.0  0.87784  0.51895  0.96121  1.0000 -0.1929241282
C   C197      1.0  0.64111  0.12216  0.29454  1.0000 -0.1929241282
C   C198      1.0  0.48105  0.35889  0.62787  1.0000 -0.1929241282
N   N1        1.0  0.48109  0.97242  0.74788  1.0000 -0.2494630035
N   N2        1.0  0.02758  0.50867  0.41455  1.0000 -0.2494630035
N   N3        1.0  0.49133  0.51891  0.08121  1.0000 -0.2494630035
N   N4        1.0  0.97242  0.48109  0.25212  1.0000 -0.2494630035
N   N5        1.0  0.50867  0.02758  0.58546  1.0000 -0.2494630035
N   N6        1.0  0.51891  0.49133  0.91879  1.0000 -0.2494630035
N   N7        1.0  0.41435  0.85676  0.11405  1.0000 -0.2557331307
N   N8        1.0  0.14324  0.55759  0.78071  1.0000 -0.2557331307
N   N9        1.0  0.44241  0.58565  0.44738  1.0000 -0.2557331307
N   N10       1.0  0.85677  0.41436  0.88595  1.0000 -0.2557331307
N   N11       1.0  0.55759  0.14323  0.21929  1.0000 -0.2557331307
N   N12       1.0  0.58564  0.44241  0.55262  1.0000 -0.2557331307
O   O1        1.0  0.19893  0.70717  0.87982  1.0000 -0.5699641619
O   O2        1.0  0.29283  0.49176  0.54648  1.0000 -0.5699641619
O   O3        1.0  0.50824  0.80107  0.21315  1.0000 -0.5699641619
O   O4        1.0  0.70716  0.19893  0.12017  1.0000 -0.5699641619
O   O5        1.0  0.49177  0.29284  0.45350  1.0000 -0.5699641619
O   O6        1.0  0.80107  0.50823  0.78684  1.0000 -0.5699641619
O   O7        1.0  0.40680  0.23482  0.15943  1.0000 -0.5699641619
O   O8        1.0  0.76518  0.17198  0.82609  1.0000 -0.5699641619
O   O9        1.0  0.82802  0.59320  0.49276  1.0000 -0.5699641619
O   O10       1.0  0.23480  0.40679  0.84056  1.0000 -0.5699641619
O   O11       1.0  0.17199  0.76520  0.17389  1.0000 -0.5699641619
O   O12       1.0  0.59321  0.82801  0.50723  1.0000 -0.5699641619
O   O13       1.0  0.40970  0.12345  0.10235  1.0000 -0.5352383537
O   O14       1.0  0.87655  0.28625  0.76901  1.0000 -0.5352383537
O   O15       1.0  0.71375  0.59030  0.43568  1.0000 -0.5352383537
O   O16       1.0  0.12344  0.40969  0.89765  1.0000 -0.5352383537
O   O17       1.0  0.28625  0.87656  0.23098  1.0000 -0.5352383537
O   O18       1.0  0.59031  0.71375  0.56432  1.0000 -0.5352383537
O   O19       1.0  0.04196  0.15177  0.15716  1.0000 -0.2171191581
O   O20       1.0  0.84823  0.89019  0.82383  1.0000 -0.2171191581
O   O21       1.0  0.10981  0.95804  0.49050  1.0000 -0.2171191581
O   O22       1.0  0.15177  0.04197  0.84284  1.0000 -0.2171191581
O   O23       1.0  0.89019  0.84823  0.17617  1.0000 -0.2171191581
O   O24       1.0  0.95803  0.10981  0.50950  1.0000 -0.2171191581
O   O25       1.0  0.23424  0.60616  0.23228  1.0000 -0.5699641619
O   O26       1.0  0.39384  0.62808  0.89895  1.0000 -0.5647504491
O   O27       1.0  0.37192  0.76576  0.56561  1.0000 -0.5647504491
O   O28       1.0  0.60616  0.23421  0.76772  1.0000 -0.5647504491
O   O29       1.0  0.62806  0.39384  0.10106  1.0000 -0.5647504491
O   O30       1.0  0.76579  0.37194  0.43439  1.0000 -0.5647504491
O   O31       1.0  0.19080  0.61928  0.95254  1.0000 -0.5275138003
O   O32       1.0  0.38072  0.57152  0.61921  1.0000 -0.5275138003
O   O33       1.0  0.42848  0.80920  0.28588  1.0000 -0.5275138003
O   O34       1.0  0.61926  0.19081  0.04744  1.0000 -0.5275138003
O   O35       1.0  0.57155  0.38074  0.38077  1.0000 -0.5275138003
O   O36       1.0  0.80919  0.42845  0.71411  1.0000 -0.5275138003
O   O37       1.0  0.04278  0.90750  0.04574  1.0000 -0.2171191581
O   O38       1.0  0.09250  0.13528  0.71241  1.0000 -0.2171191581
O   O39       1.0  0.86472  0.95722  0.37908  1.0000 -0.2171191581
O   O40       1.0  0.90750  0.04277  0.95425  1.0000 -0.2171191581
O   O41       1.0  0.13527  0.09250  0.28759  1.0000 -0.2171191581
O   O42       1.0  0.95723  0.86473  0.62092  1.0000 -0.2171191581
O   O43       1.0  0.29284  0.63031  0.14869  1.0000 -0.5516408963
O   O44       1.0  0.36969  0.66253  0.81536  1.0000 -0.5516408963
O   O45       1.0  0.33747  0.70716  0.48202  1.0000 -0.5516408963
O   O46       1.0  0.63030  0.29286  0.85131  1.0000 -0.5516408963
O   O47       1.0  0.66255  0.36970  0.18464  1.0000 -0.5516408963
O   O48       1.0  0.70714  0.33745  0.51797  1.0000 -0.5516408963
