# DDEC6 charges by PACMAN v1.1 (https://github.com/mtap-research/PACMAN-charge/)
data_2016[Cd][flu]3[ASR]1
_chemical_formula_sum              "Cd6 H40 C88 O32"
_cell_length_a       28.286
_cell_length_b       9.8876
_cell_length_c       10.4994
_cell_angle_alpha    90
_cell_angle_beta     108.083
_cell_angle_gamma    90

_symmetry_space_group_name_H-M    "P 1"
_symmetry_Int_Tables_number       1

loop_
  _symmetry_equiv_pos_as_xyz
  'x, y, z'

loop_
  _atom_site_type_symbol
  _atom_site_label
  _atom_site_symmetry_multiplicity
  _atom_site_fract_x
  _atom_site_fract_y
  _atom_site_fract_z
  _atom_site_occupancy
  _atom_site_charge
Cd  Cd1       1.0  0.50000  0.50000  0.50000  1.0000 1.1720235604
Cd  Cd2       1.0  0.00000  0.00000  0.50000  1.0000 1.1720235604
Cd  Cd3       1.0  0.60210  0.50000  0.79110  1.0000 0.9899377781
Cd  Cd4       1.0  0.39790  0.50000  0.20890  1.0000 0.9899377781
Cd  Cd5       1.0  0.10210  0.00000  0.79110  1.0000 0.9899377781
Cd  Cd6       1.0  0.89790  0.00000  0.20890  1.0000 0.9899377781
H   H1        1.0  0.58994  0.50000  0.25047  1.0000 0.1383764404
H   H2        1.0  0.41006  0.50000  0.74953  1.0000 0.1383764404
H   H3        1.0  0.08994  0.00000  0.25047  1.0000 0.1383764404
H   H4        1.0  0.91006  0.00000  0.74953  1.0000 0.1383764404
H   H5        1.0  0.73372  0.50000  0.18708  1.0000 0.132163205
H   H6        1.0  0.26628  0.50000  0.81292  1.0000 0.132163205
H   H7        1.0  0.23372  0.00000  0.18708  1.0000 0.132163205
H   H8        1.0  0.76628  0.00000  0.81292  1.0000 0.132163205
H   H9        1.0  0.72418  0.50000  0.59054  1.0000 0.132163205
H   H10       1.0  0.27582  0.50000  0.40946  1.0000 0.132163205
H   H11       1.0  0.22418  0.00000  0.59054  1.0000 0.132163205
H   H12       1.0  0.77582  0.00000  0.40946  1.0000 0.132163205
H   H13       1.0  0.59382  0.00000  0.77609  1.0000 0.132163205
H   H14       1.0  0.40618  0.00000  0.22391  1.0000 0.132163205
H   H15       1.0  0.09382  0.50000  0.77609  1.0000 0.132163205
H   H16       1.0  0.90618  0.50000  0.22391  1.0000 0.132163205
H   H17       1.0  0.45665  0.78055  0.62303  1.0000 0.1125463935
H   H18       1.0  0.54335  0.21945  0.37697  1.0000 0.1125463935
H   H19       1.0  0.54335  0.78055  0.37697  1.0000 0.1125463935
H   H20       1.0  0.45665  0.21945  0.62303  1.0000 0.1125463935
H   H21       1.0  0.95665  0.28055  0.62303  1.0000 0.1125463935
H   H22       1.0  0.04335  0.71945  0.37697  1.0000 0.1125463935
H   H23       1.0  0.04335  0.28055  0.37697  1.0000 0.1125463935
H   H24       1.0  0.95665  0.71945  0.62303  1.0000 0.1125463935
H   H25       1.0  0.38876  0.21955  0.51248  1.0000 0.1125463935
H   H26       1.0  0.61124  0.78045  0.48752  1.0000 0.1125463935
H   H27       1.0  0.61124  0.21955  0.48752  1.0000 0.1125463935
H   H28       1.0  0.38876  0.78045  0.51248  1.0000 0.1125463935
H   H29       1.0  0.88876  0.71955  0.51248  1.0000 0.1125463935
H   H30       1.0  0.11124  0.28045  0.48752  1.0000 0.1125463935
H   H31       1.0  0.11124  0.71955  0.48752  1.0000 0.1125463935
H   H32       1.0  0.88876  0.28045  0.51248  1.0000 0.1125463935
H   H33       1.0  0.29628  0.21848  0.43363  1.0000 0.1125463935
H   H34       1.0  0.70372  0.78152  0.56637  1.0000 0.1125463935
H   H35       1.0  0.70372  0.21848  0.56637  1.0000 0.1125463935
H   H36       1.0  0.29628  0.78152  0.43363  1.0000 0.1125463935
H   H37       1.0  0.79628  0.71848  0.43363  1.0000 0.1125463935
H   H38       1.0  0.20372  0.28152  0.56637  1.0000 0.1125463935
H   H39       1.0  0.20372  0.71848  0.56637  1.0000 0.1125463935
H   H40       1.0  0.79628  0.28152  0.43363  1.0000 0.1125463935
C   C1        1.0  0.62159  0.50000  0.51960  1.0000 0.5992930192
C   C2        1.0  0.37841  0.50000  0.48040  1.0000 0.5992930192
C   C3        1.0  0.12159  0.00000  0.51960  1.0000 0.5992930192
C   C4        1.0  0.87841  0.00000  0.48040  1.0000 0.5992930192
C   C5        1.0  0.63773  0.50000  0.05676  1.0000 0.5584590244
C   C6        1.0  0.36227  0.50000  0.94324  1.0000 0.5584590244
C   C7        1.0  0.13773  0.00000  0.05676  1.0000 0.5584590244
C   C8        1.0  0.86227  0.00000  0.94324  1.0000 0.5584590244
C   C9        1.0  0.65386  0.50000  0.42940  1.0000 -0.0322852046
C   C10       1.0  0.34614  0.50000  0.57060  1.0000 -0.0322852046
C   C11       1.0  0.15386  0.00000  0.42940  1.0000 -0.0322852046
C   C12       1.0  0.84614  0.00000  0.57060  1.0000 -0.0322852046
C   C13       1.0  0.63066  0.50000  0.29038  1.0000 -0.0834167064
C   C14       1.0  0.36934  0.50000  0.70962  1.0000 -0.0834167064
C   C15       1.0  0.13066  0.00000  0.29038  1.0000 -0.0834167064
C   C16       1.0  0.86934  0.00000  0.70962  1.0000 -0.0834167064
C   C17       1.0  0.65982  0.50000  0.20427  1.0000 -0.0130428095
C   C18       1.0  0.34018  0.50000  0.79573  1.0000 -0.0130428095
C   C19       1.0  0.15982  0.00000  0.20427  1.0000 -0.0130428095
C   C20       1.0  0.84018  0.00000  0.79573  1.0000 -0.0130428095
C   C21       1.0  0.71175  0.50000  0.25643  1.0000 -0.1092937817
C   C22       1.0  0.28825  0.50000  0.74357  1.0000 -0.1092937817
C   C23       1.0  0.21175  0.00000  0.25643  1.0000 -0.1092937817
C   C24       1.0  0.78825  0.00000  0.74357  1.0000 -0.1092937817
C   C25       1.0  0.73528  0.50000  0.39465  1.0000 0.0621034051
C   C26       1.0  0.26472  0.50000  0.60535  1.0000 0.0621034051
C   C27       1.0  0.23528  0.00000  0.39465  1.0000 0.0621034051
C   C28       1.0  0.76472  0.00000  0.60535  1.0000 0.0621034051
C   C29       1.0  0.70627  0.50000  0.48173  1.0000 -0.1205294597
C   C30       1.0  0.29373  0.50000  0.51827  1.0000 -0.1205294597
C   C31       1.0  0.20627  0.00000  0.48173  1.0000 -0.1205294597
C   C32       1.0  0.79373  0.00000  0.51827  1.0000 -0.1205294597
C   C33       1.0  0.55456  0.74704  0.73216  1.0000 0.5925765293
C   C34       1.0  0.44544  0.25296  0.26784  1.0000 0.5925765293
C   C35       1.0  0.44544  0.74704  0.26784  1.0000 0.5925765293
C   C36       1.0  0.55456  0.25296  0.73216  1.0000 0.5925765293
C   C37       1.0  0.05456  0.24704  0.73216  1.0000 0.5925765293
C   C38       1.0  0.94544  0.75296  0.26784  1.0000 0.5925765293
C   C39       1.0  0.94544  0.24704  0.26784  1.0000 0.5925765293
C   C40       1.0  0.05456  0.75296  0.73216  1.0000 0.5925765293
C   C41       1.0  0.55343  0.00000  0.73214  1.0000 -0.0736786541
C   C42       1.0  0.44657  0.00000  0.26786  1.0000 -0.0736786541
C   C43       1.0  0.05343  0.50000  0.73214  1.0000 -0.0736786541
C   C44       1.0  0.94657  0.50000  0.26786  1.0000 -0.0736786541
C   C45       1.0  0.52711  0.87804  0.70350  1.0000 -0.0243876209
C   C46       1.0  0.47289  0.12196  0.29650  1.0000 -0.0243876209
C   C47       1.0  0.47289  0.87804  0.29650  1.0000 -0.0243876209
C   C48       1.0  0.52711  0.12196  0.70350  1.0000 -0.0243876209
C   C49       1.0  0.02711  0.37804  0.70350  1.0000 -0.0243876209
C   C50       1.0  0.97289  0.62196  0.29650  1.0000 -0.0243876209
C   C51       1.0  0.97289  0.37804  0.29650  1.0000 -0.0243876209
C   C52       1.0  0.02711  0.62196  0.70350  1.0000 -0.0243876209
C   C53       1.0  0.47561  0.87801  0.64286  1.0000 -0.1008441504
C   C54       1.0  0.52439  0.12199  0.35714  1.0000 -0.1008441504
C   C55       1.0  0.52439  0.87801  0.35714  1.0000 -0.1008441504
C   C56       1.0  0.47561  0.12199  0.64286  1.0000 -0.1008441504
C   C57       1.0  0.97561  0.37801  0.64286  1.0000 -0.1008441504
C   C58       1.0  0.02439  0.62199  0.35714  1.0000 -0.1008441504
C   C59       1.0  0.02439  0.37801  0.35714  1.0000 -0.1008441504
C   C60       1.0  0.97561  0.62199  0.64286  1.0000 -0.1008441504
C   C61       1.0  0.44898  0.00000  0.60655  1.0000 0.0621034051
C   C62       1.0  0.55102  0.00000  0.39345  1.0000 0.0621034051
C   C63       1.0  0.94898  0.50000  0.60655  1.0000 0.0621034051
C   C64       1.0  0.05102  0.50000  0.39345  1.0000 0.0621034051
C   C65       1.0  0.39566  0.00000  0.53310  1.0000 0.0803370918
C   C66       1.0  0.60434  0.00000  0.46690  1.0000 0.0803370918
C   C67       1.0  0.89566  0.50000  0.53310  1.0000 0.0803370918
C   C68       1.0  0.10434  0.50000  0.46690  1.0000 0.0803370918
C   C69       1.0  0.36871  0.12329  0.49939  1.0000 -0.1008441504
C   C70       1.0  0.63129  0.87671  0.50061  1.0000 -0.1008441504
C   C71       1.0  0.63129  0.12329  0.50061  1.0000 -0.1008441504
C   C72       1.0  0.36871  0.87671  0.49939  1.0000 -0.1008441504
C   C73       1.0  0.86871  0.62329  0.49939  1.0000 -0.1008441504
C   C74       1.0  0.13129  0.37671  0.50061  1.0000 -0.1008441504
C   C75       1.0  0.13129  0.62329  0.50061  1.0000 -0.1008441504
C   C76       1.0  0.86871  0.37671  0.49939  1.0000 -0.1008441504
C   C77       1.0  0.31699  0.12322  0.45523  1.0000 -0.1205294597
C   C78       1.0  0.68301  0.87678  0.54477  1.0000 -0.1205294597
C   C79       1.0  0.68301  0.12322  0.54477  1.0000 -0.1205294597
C   C80       1.0  0.31699  0.87678  0.45523  1.0000 -0.1205294597
C   C81       1.0  0.81699  0.62322  0.45523  1.0000 -0.1205294597
C   C82       1.0  0.18301  0.37678  0.54477  1.0000 -0.1205294597
C   C83       1.0  0.18301  0.62322  0.54477  1.0000 -0.1205294597
C   C84       1.0  0.81699  0.37678  0.45523  1.0000 -0.1205294597
C   C85       1.0  0.29056  0.00000  0.43989  1.0000 0.0803370918
C   C86       1.0  0.70944  0.00000  0.56011  1.0000 0.0803370918
C   C87       1.0  0.79056  0.50000  0.43989  1.0000 0.0803370918
C   C88       1.0  0.20944  0.50000  0.56011  1.0000 0.0803370918
O   O1        1.0  0.57456  0.50000  0.46208  1.0000 -0.5801070672
O   O2        1.0  0.42544  0.50000  0.53792  1.0000 -0.5801070672
O   O3        1.0  0.07456  0.00000  0.46208  1.0000 -0.5801070672
O   O4        1.0  0.92544  0.00000  0.53792  1.0000 -0.5801070672
O   O5        1.0  0.64432  0.50000  0.64562  1.0000 -0.5281962496
O   O6        1.0  0.35568  0.50000  0.35438  1.0000 -0.5281962496
O   O7        1.0  0.14432  0.00000  0.64562  1.0000 -0.5281962496
O   O8        1.0  0.85568  0.00000  0.35438  1.0000 -0.5281962496
O   O9        1.0  0.59042  0.50000  0.00231  1.0000 -0.501310611
O   O10       1.0  0.40958  0.50000  0.99769  1.0000 -0.501310611
O   O11       1.0  0.09042  0.00000  0.00231  1.0000 -0.501310611
O   O12       1.0  0.90958  0.00000  0.99769  1.0000 -0.501310611
O   O13       1.0  0.66727  0.50000  0.98502  1.0000 -0.4898308408
O   O14       1.0  0.33273  0.50000  0.01498  1.0000 -0.4898308408
O   O15       1.0  0.16727  0.00000  0.98502  1.0000 -0.4898308408
O   O16       1.0  0.83273  0.00000  0.01498  1.0000 -0.4898308408
O   O17       1.0  0.53026  0.63817  0.68308  1.0000 -0.593178351
O   O18       1.0  0.46974  0.36183  0.31692  1.0000 -0.593178351
O   O19       1.0  0.46974  0.63817  0.31692  1.0000 -0.593178351
O   O20       1.0  0.53026  0.36183  0.68308  1.0000 -0.593178351
O   O21       1.0  0.03026  0.13817  0.68308  1.0000 -0.593178351
O   O22       1.0  0.96974  0.86183  0.31692  1.0000 -0.593178351
O   O23       1.0  0.96974  0.13817  0.31692  1.0000 -0.593178351
O   O24       1.0  0.03026  0.86183  0.68308  1.0000 -0.593178351
O   O25       1.0  0.60001  0.74513  0.80226  1.0000 -0.501310611
O   O26       1.0  0.39999  0.25487  0.19774  1.0000 -0.501310611
O   O27       1.0  0.39999  0.74513  0.19774  1.0000 -0.501310611
O   O28       1.0  0.60001  0.25487  0.80226  1.0000 -0.501310611
O   O29       1.0  0.10001  0.24513  0.80226  1.0000 -0.501310611
O   O30       1.0  0.89999  0.75487  0.19774  1.0000 -0.501310611
O   O31       1.0  0.89999  0.24513  0.19774  1.0000 -0.501310611
O   O32       1.0  0.10001  0.75487  0.80226  1.0000 -0.501310611
