# DDEC6 charges by PACMAN v1.1 (https://github.com/mtap-research/PACMAN-charge/)
data_2016[Cu][nbo]3[ASR]47
_chemical_formula_sum              "Cu6 H78 C126 O30"
_cell_length_a       21.4753
_cell_length_b       21.4753
_cell_length_c       21.4753
_cell_angle_alpha    110.516
_cell_angle_beta     110.516
_cell_angle_gamma    110.516

_symmetry_space_group_name_H-M    "P 1"
_symmetry_Int_Tables_number       1

loop_
  _symmetry_equiv_pos_as_xyz
  'x, y, z'

loop_
  _atom_site_type_symbol
  _atom_site_label
  _atom_site_symmetry_multiplicity
  _atom_site_fract_x
  _atom_site_fract_y
  _atom_site_fract_z
  _atom_site_occupancy
  _atom_site_charge
Cu  Cu1       1.0  0.44683  0.44684  0.92404  1.0000 0.8667679295
Cu  Cu2       1.0  0.44683  0.92404  0.44683  1.0000 0.8667679295
Cu  Cu3       1.0  0.92404  0.44684  0.44683  1.0000 0.8667679295
Cu  Cu4       1.0  0.55317  0.55317  0.07596  1.0000 0.8667679295
Cu  Cu5       1.0  0.07596  0.55317  0.55317  1.0000 0.8667679295
Cu  Cu6       1.0  0.55317  0.07596  0.55317  1.0000 0.8667679295
H   H1        1.0  0.42930  0.60080  0.84350  1.0000 0.1290499617
H   H2        1.0  0.60080  0.84350  0.42930  1.0000 0.1290499617
H   H3        1.0  0.84350  0.42930  0.60080  1.0000 0.1290499617
H   H4        1.0  0.39920  0.57070  0.15650  1.0000 0.1290499617
H   H5        1.0  0.15650  0.39920  0.57070  1.0000 0.1290499617
H   H6        1.0  0.57070  0.15650  0.39920  1.0000 0.1290499617
H   H7        1.0  0.57070  0.39920  0.15650  1.0000 0.1290499617
H   H8        1.0  0.39920  0.15650  0.57070  1.0000 0.1290499617
H   H9        1.0  0.15650  0.57070  0.39920  1.0000 0.1290499617
H   H10       1.0  0.60080  0.42930  0.84350  1.0000 0.1290499617
H   H11       1.0  0.84350  0.60080  0.42930  1.0000 0.1290499617
H   H12       1.0  0.42930  0.84350  0.60080  1.0000 0.1290499617
H   H13       1.0  0.43480  0.70150  0.82220  1.0000 0.1188761896
H   H14       1.0  0.70150  0.82220  0.43480  1.0000 0.1188761896
H   H15       1.0  0.82220  0.43480  0.70150  1.0000 0.1290499617
H   H16       1.0  0.29850  0.56520  0.17780  1.0000 0.1188761896
H   H17       1.0  0.17780  0.29850  0.56520  1.0000 0.1188761896
H   H18       1.0  0.56520  0.17780  0.29850  1.0000 0.1188761896
H   H19       1.0  0.56520  0.29850  0.17780  1.0000 0.1188761896
H   H20       1.0  0.29850  0.17780  0.56520  1.0000 0.1290499617
H   H21       1.0  0.17780  0.56520  0.29850  1.0000 0.1188761896
H   H22       1.0  0.70150  0.43480  0.82220  1.0000 0.1188761896
H   H23       1.0  0.82220  0.70150  0.43480  1.0000 0.1188761896
H   H24       1.0  0.43480  0.82220  0.70150  1.0000 0.1188761896
H   H25       1.0  0.60040  0.86460  0.05480  1.0000 0.1188761896
H   H26       1.0  0.86460  0.05480  0.60040  1.0000 0.1188761896
H   H27       1.0  0.05480  0.60040  0.86460  1.0000 0.1188761896
H   H28       1.0  0.13540  0.39960  0.94520  1.0000 0.1188761896
H   H29       1.0  0.94520  0.13540  0.39960  1.0000 0.1188761896
H   H30       1.0  0.39960  0.94520  0.13540  1.0000 0.1188761896
H   H31       1.0  0.39960  0.13540  0.94520  1.0000 0.1188761896
H   H32       1.0  0.13540  0.94520  0.39960  1.0000 0.1188761896
H   H33       1.0  0.94520  0.39960  0.13540  1.0000 0.1188761896
H   H34       1.0  0.86460  0.60040  0.05480  1.0000 0.1188761896
H   H35       1.0  0.05480  0.86460  0.60040  1.0000 0.1188761896
H   H36       1.0  0.60040  0.05480  0.86460  1.0000 0.1188761896
H   H37       1.0  0.59420  0.76390  0.07620  1.0000 0.1290499617
H   H38       1.0  0.76390  0.07620  0.59420  1.0000 0.1290499617
H   H39       1.0  0.07620  0.59420  0.76390  1.0000 0.1290499617
H   H40       1.0  0.23610  0.40580  0.92380  1.0000 0.1290499617
H   H41       1.0  0.92380  0.23610  0.40580  1.0000 0.1290499617
H   H42       1.0  0.40580  0.92380  0.23610  1.0000 0.1290499617
H   H43       1.0  0.40580  0.23610  0.92380  1.0000 0.1290499617
H   H44       1.0  0.23610  0.92380  0.40580  1.0000 0.1290499617
H   H45       1.0  0.92380  0.40580  0.23610  1.0000 0.1290499617
H   H46       1.0  0.76390  0.59420  0.07620  1.0000 0.1290499617
H   H47       1.0  0.07620  0.76390  0.59420  1.0000 0.1290499617
H   H48       1.0  0.59420  0.07620  0.76390  1.0000 0.1290499617
H   H49       1.0  0.50720  0.90610  0.02040  1.0000 0.1084834814
H   H50       1.0  0.90610  0.02040  0.50720  1.0000 0.1188761896
H   H51       1.0  0.02040  0.50720  0.90610  1.0000 0.1084834814
H   H52       1.0  0.09390  0.49280  0.97960  1.0000 0.1188761896
H   H53       1.0  0.97960  0.09390  0.49280  1.0000 0.1188761896
H   H54       1.0  0.49280  0.97960  0.09390  1.0000 0.1188761896
H   H55       1.0  0.49280  0.09390  0.97960  1.0000 0.1188761896
H   H56       1.0  0.09390  0.97960  0.49280  1.0000 0.1188761896
H   H57       1.0  0.97960  0.49280  0.09390  1.0000 0.1188761896
H   H58       1.0  0.90610  0.50720  0.02040  1.0000 0.1188761896
H   H59       1.0  0.02040  0.90610  0.50720  1.0000 0.1084834814
H   H60       1.0  0.50720  0.02040  0.90610  1.0000 0.1084834814
H   H61       1.0  0.60270  0.79520  0.79520  1.0000 0.1188761896
H   H62       1.0  0.79520  0.79520  0.60270  1.0000 0.1188761896
H   H63       1.0  0.79520  0.60270  0.79520  1.0000 0.1188761896
H   H64       1.0  0.20480  0.39730  0.20480  1.0000 0.1188761896
H   H65       1.0  0.20480  0.20480  0.39730  1.0000 0.1188761896
H   H66       1.0  0.39730  0.20480  0.20480  1.0000 0.1188761896
H   H67       1.0  0.62890  0.88560  0.84030  1.0000 0.1084834814
H   H68       1.0  0.88560  0.84030  0.62890  1.0000 0.1084834814
H   H69       1.0  0.84030  0.62890  0.88560  1.0000 0.1084834814
H   H70       1.0  0.11440  0.37110  0.15970  1.0000 0.1084834814
H   H71       1.0  0.15970  0.11440  0.37110  1.0000 0.1084834814
H   H72       1.0  0.37110  0.15970  0.11440  1.0000 0.1084834814
H   H73       1.0  0.37110  0.11440  0.15970  1.0000 0.1084834814
H   H74       1.0  0.11440  0.15970  0.37110  1.0000 0.1084834814
H   H75       1.0  0.15970  0.37110  0.11440  1.0000 0.1084834814
H   H76       1.0  0.88560  0.62890  0.84030  1.0000 0.1048524246
H   H77       1.0  0.84030  0.88560  0.62890  1.0000 0.1084834814
H   H78       1.0  0.62890  0.84030  0.88560  1.0000 0.1084834814
C   C1        1.0  0.50779  0.60873  0.97656  1.0000 0.5811221366
C   C2        1.0  0.60873  0.97656  0.50779  1.0000 0.5811221366
C   C3        1.0  0.97656  0.50779  0.60873  1.0000 0.5811221366
C   C4        1.0  0.39127  0.49221  0.02344  1.0000 0.5811221366
C   C5        1.0  0.02344  0.39127  0.49221  1.0000 0.5811221366
C   C6        1.0  0.49221  0.02344  0.39127  1.0000 0.5811221366
C   C7        1.0  0.49221  0.39127  0.02344  1.0000 0.5811221366
C   C8        1.0  0.39127  0.02344  0.49221  1.0000 0.5811221366
C   C9        1.0  0.02344  0.49221  0.39127  1.0000 0.5811221366
C   C10       1.0  0.60873  0.50779  0.97656  1.0000 0.5811221366
C   C11       1.0  0.97656  0.60873  0.50779  1.0000 0.5811221366
C   C12       1.0  0.50779  0.97656  0.60873  1.0000 0.5811221366
C   C13       1.0  0.51200  0.67358  0.96258  1.0000 -0.0285615886
C   C14       1.0  0.67358  0.96258  0.51200  1.0000 -0.0285615886
C   C15       1.0  0.96258  0.51200  0.67358  1.0000 -0.0285615886
C   C16       1.0  0.32642  0.48800  0.03742  1.0000 -0.0285615886
C   C17       1.0  0.03742  0.32642  0.48800  1.0000 -0.0285615886
C   C18       1.0  0.48800  0.03742  0.32642  1.0000 -0.0285615886
C   C19       1.0  0.48800  0.32642  0.03742  1.0000 -0.0285615886
C   C20       1.0  0.32642  0.03742  0.48800  1.0000 -0.0285615886
C   C21       1.0  0.03742  0.48800  0.32642  1.0000 -0.0285615886
C   C22       1.0  0.67358  0.51200  0.96258  1.0000 -0.0285615886
C   C23       1.0  0.96258  0.67358  0.51200  1.0000 -0.0285615886
C   C24       1.0  0.51200  0.96258  0.67358  1.0000 -0.0285615886
C   C25       1.0  0.46374  0.65437  0.88638  1.0000 -0.0886644346
C   C26       1.0  0.65437  0.88638  0.46374  1.0000 -0.0886644346
C   C27       1.0  0.88638  0.46374  0.65437  1.0000 -0.0886644346
C   C28       1.0  0.34563  0.53626  0.11362  1.0000 -0.0886644346
C   C29       1.0  0.11362  0.34563  0.53626  1.0000 -0.0886644346
C   C30       1.0  0.53626  0.11362  0.34563  1.0000 -0.0886644346
C   C31       1.0  0.53626  0.34563  0.11362  1.0000 -0.0886644346
C   C32       1.0  0.34563  0.11362  0.53626  1.0000 -0.0886644346
C   C33       1.0  0.11362  0.53626  0.34563  1.0000 -0.0886644346
C   C34       1.0  0.65437  0.46374  0.88638  1.0000 -0.0886644346
C   C35       1.0  0.88638  0.65437  0.46374  1.0000 -0.0886644346
C   C36       1.0  0.46374  0.88638  0.65437  1.0000 -0.0886644346
C   C37       1.0  0.46674  0.71433  0.87400  1.0000 -0.1506183356
C   C38       1.0  0.71433  0.87400  0.46674  1.0000 -0.1506183356
C   C39       1.0  0.87400  0.46674  0.71433  1.0000 -0.1506183356
C   C40       1.0  0.28567  0.53326  0.12600  1.0000 -0.1506183356
C   C41       1.0  0.12600  0.28567  0.53326  1.0000 -0.1506183356
C   C42       1.0  0.53326  0.12600  0.28567  1.0000 -0.1506183356
C   C43       1.0  0.53326  0.28567  0.12600  1.0000 -0.1506183356
C   C44       1.0  0.28567  0.12600  0.53326  1.0000 -0.1506183356
C   C45       1.0  0.12600  0.53326  0.28567  1.0000 -0.1506183356
C   C46       1.0  0.71433  0.46674  0.87400  1.0000 -0.1506183356
C   C47       1.0  0.87400  0.71433  0.46674  1.0000 -0.1506183356
C   C48       1.0  0.46674  0.87400  0.71433  1.0000 -0.1506183356
C   C49       1.0  0.51562  0.79263  0.93609  1.0000 0.0919317233
C   C50       1.0  0.79263  0.93609  0.51562  1.0000 0.0919317233
C   C51       1.0  0.93609  0.51562  0.79263  1.0000 0.0919317233
C   C52       1.0  0.20737  0.48438  0.06391  1.0000 0.0919317233
C   C53       1.0  0.06391  0.20737  0.48438  1.0000 0.0919317233
C   C54       1.0  0.48438  0.06391  0.20737  1.0000 0.0919317233
C   C55       1.0  0.48438  0.20737  0.06391  1.0000 0.0919317233
C   C56       1.0  0.20737  0.06391  0.48438  1.0000 0.0919317233
C   C57       1.0  0.06391  0.48438  0.20737  1.0000 0.0919317233
C   C58       1.0  0.79263  0.51562  0.93609  1.0000 0.0919317233
C   C59       1.0  0.93609  0.79263  0.51562  1.0000 0.0919317233
C   C60       1.0  0.51562  0.93609  0.79263  1.0000 0.0919317233
C   C61       1.0  0.56487  0.81099  0.01194  1.0000 -0.1640825078
C   C62       1.0  0.81099  0.01194  0.56487  1.0000 -0.1640825078
C   C63       1.0  0.01194  0.56487  0.81099  1.0000 -0.1654823259
C   C64       1.0  0.18901  0.43513  0.98806  1.0000 -0.1640825078
C   C65       1.0  0.98806  0.18901  0.43513  1.0000 -0.1640825078
C   C66       1.0  0.43513  0.98806  0.18901  1.0000 -0.1640825078
C   C67       1.0  0.43513  0.18901  0.98806  1.0000 -0.1640825078
C   C68       1.0  0.18901  0.98806  0.43513  1.0000 -0.1640825078
C   C69       1.0  0.98806  0.43513  0.18901  1.0000 -0.1640825078
C   C70       1.0  0.81099  0.56487  0.01194  1.0000 -0.1640825078
C   C71       1.0  0.01194  0.81099  0.56487  1.0000 -0.1654823259
C   C72       1.0  0.56487  0.01194  0.81099  1.0000 -0.1640825078
C   C73       1.0  0.56182  0.75119  0.02457  1.0000 -0.0886644346
C   C74       1.0  0.75119  0.02457  0.56182  1.0000 -0.0886644346
C   C75       1.0  0.02457  0.56182  0.75119  1.0000 -0.0886644346
C   C76       1.0  0.24881  0.43818  0.97543  1.0000 -0.0886644346
C   C77       1.0  0.97543  0.24881  0.43818  1.0000 -0.0886644346
C   C78       1.0  0.43818  0.97543  0.24881  1.0000 -0.0886644346
C   C79       1.0  0.43818  0.24881  0.97543  1.0000 -0.0886644346
C   C80       1.0  0.24881  0.97543  0.43818  1.0000 -0.0886644346
C   C81       1.0  0.97543  0.43818  0.24881  1.0000 -0.0886644346
C   C82       1.0  0.75119  0.56182  0.02457  1.0000 -0.0886644346
C   C83       1.0  0.02457  0.75119  0.56182  1.0000 -0.0886644346
C   C84       1.0  0.56182  0.02457  0.75119  1.0000 -0.0886644346
C   C85       1.0  0.51261  0.85650  0.92548  1.0000 -0.0199686094
C   C86       1.0  0.85650  0.92548  0.51261  1.0000 -0.0199686094
C   C87       1.0  0.92548  0.51261  0.85650  1.0000 -0.0199686094
C   C88       1.0  0.14350  0.48739  0.07452  1.0000 -0.0199686094
C   C89       1.0  0.07452  0.14350  0.48739  1.0000 -0.0199686094
C   C90       1.0  0.48739  0.07452  0.14350  1.0000 -0.0199686094
C   C91       1.0  0.48739  0.14350  0.07452  1.0000 -0.0199686094
C   C92       1.0  0.14350  0.07452  0.48739  1.0000 -0.0199686094
C   C93       1.0  0.07452  0.48739  0.14350  1.0000 -0.0199686094
C   C94       1.0  0.85650  0.51261  0.92548  1.0000 -0.0199686094
C   C95       1.0  0.92548  0.85650  0.51261  1.0000 -0.0199686094
C   C96       1.0  0.51261  0.92548  0.85650  1.0000 -0.0199686094
C   C97       1.0  0.50802  0.91082  0.97832  1.0000 -0.1962965975
C   C98       1.0  0.91082  0.97832  0.50802  1.0000 -0.1962965975
C   C99       1.0  0.97832  0.50802  0.91082  1.0000 -0.1962965975
C   C100      1.0  0.08918  0.49198  0.02168  1.0000 -0.1962965975
C   C101      1.0  0.02168  0.08918  0.49198  1.0000 -0.1945738927
C   C102      1.0  0.49198  0.02168  0.08918  1.0000 -0.1962965975
C   C103      1.0  0.49198  0.08918  0.02168  1.0000 -0.1962965975
C   C104      1.0  0.08918  0.02168  0.49198  1.0000 -0.1962965975
C   C105      1.0  0.02168  0.49198  0.08918  1.0000 -0.1962965975
C   C106      1.0  0.91082  0.50802  0.97832  1.0000 -0.1962965975
C   C107      1.0  0.97832  0.91082  0.50802  1.0000 -0.1962965975
C   C108      1.0  0.50802  0.97832  0.91082  1.0000 -0.1962965975
C   C109      1.0  0.50448  0.97286  0.97286  1.0000 0.0723922081
C   C110      1.0  0.97286  0.97286  0.50448  1.0000 0.0723922081
C   C111      1.0  0.97286  0.50448  0.97286  1.0000 0.0723922081
C   C112      1.0  0.02714  0.49552  0.02714  1.0000 0.0723922081
C   C113      1.0  0.02714  0.02714  0.49552  1.0000 0.0723922081
C   C114      1.0  0.49552  0.02714  0.02714  1.0000 0.0723922081
C   C115      1.0  0.51466  0.86364  0.86364  1.0000 0.1592919444
C   C116      1.0  0.86364  0.86364  0.51466  1.0000 0.1592919444
C   C117      1.0  0.86364  0.51466  0.86364  1.0000 0.1592919444
C   C118      1.0  0.13636  0.48534  0.13636  1.0000 0.1592919444
C   C119      1.0  0.13636  0.13636  0.48534  1.0000 0.1592919444
C   C120      1.0  0.48534  0.13636  0.13636  1.0000 0.1592919444
C   C121      1.0  0.60200  0.83485  0.83485  1.0000 -0.2373247628
C   C122      1.0  0.83485  0.83485  0.60200  1.0000 -0.2373247628
C   C123      1.0  0.83485  0.60200  0.83485  1.0000 -0.2373247628
C   C124      1.0  0.16515  0.39800  0.16515  1.0000 -0.2373247628
C   C125      1.0  0.16515  0.16515  0.39800  1.0000 -0.2373247628
C   C126      1.0  0.39800  0.16515  0.16515  1.0000 -0.2373247628
O   O1        1.0  0.55173  0.62963  0.04684  1.0000 -0.5230413363
O   O2        1.0  0.62963  0.04684  0.55173  1.0000 -0.5230413363
O   O3        1.0  0.04684  0.55173  0.62963  1.0000 -0.5230413363
O   O4        1.0  0.37037  0.44827  0.95316  1.0000 -0.5230413363
O   O5        1.0  0.95316  0.37037  0.44827  1.0000 -0.5230413363
O   O6        1.0  0.44827  0.95316  0.37037  1.0000 -0.5230413363
O   O7        1.0  0.44827  0.37037  0.95316  1.0000 -0.5230413363
O   O8        1.0  0.37037  0.95316  0.44827  1.0000 -0.5230413363
O   O9        1.0  0.95316  0.44827  0.37037  1.0000 -0.5230413363
O   O10       1.0  0.62963  0.55173  0.04684  1.0000 -0.5230413363
O   O11       1.0  0.04684  0.62963  0.55173  1.0000 -0.5230413363
O   O12       1.0  0.55173  0.04684  0.62963  1.0000 -0.5230413363
O   O13       1.0  0.46047  0.53854  0.91689  1.0000 -0.5260605052
O   O14       1.0  0.53854  0.91689  0.46047  1.0000 -0.5260605052
O   O15       1.0  0.91689  0.46047  0.53854  1.0000 -0.5260605052
O   O16       1.0  0.46146  0.53953  0.08311  1.0000 -0.5260605052
O   O17       1.0  0.08311  0.46146  0.53953  1.0000 -0.5260605052
O   O18       1.0  0.53953  0.08311  0.46146  1.0000 -0.5260605052
O   O19       1.0  0.53953  0.46146  0.08311  1.0000 -0.5260605052
O   O20       1.0  0.46146  0.08311  0.53953  1.0000 -0.5260605052
O   O21       1.0  0.08311  0.53953  0.46146  1.0000 -0.5260605052
O   O22       1.0  0.53854  0.46047  0.91689  1.0000 -0.5260605052
O   O23       1.0  0.91689  0.53854  0.46047  1.0000 -0.5260605052
O   O24       1.0  0.46047  0.91689  0.53854  1.0000 -0.5260605052
O   O25       1.0  0.51995  0.80977  0.80977  1.0000 -0.1962965975
O   O26       1.0  0.80977  0.80977  0.51995  1.0000 -0.1962965975
O   O27       1.0  0.80977  0.51995  0.80977  1.0000 -0.1962965975
O   O28       1.0  0.19023  0.48005  0.19023  1.0000 -0.1962965975
O   O29       1.0  0.19023  0.19023  0.48005  1.0000 -0.1962965975
O   O30       1.0  0.48005  0.19023  0.19023  1.0000 -0.1962965975
