# DDEC6 charges by PACMAN v1.1 (https://github.com/mtap-research/PACMAN-charge/)
data_2016[IrZr][she]3[ASR]1
_chemical_formula_sum              "Zr24 H144 Ir6 C288 N24 Cl12 O80"
_cell_length_a       33.2499
_cell_length_b       33.2499
_cell_length_c       33.2499
_cell_angle_alpha    109.471
_cell_angle_beta     109.471
_cell_angle_gamma    109.471

_symmetry_space_group_name_H-M    "P 1"
_symmetry_Int_Tables_number       1

loop_
  _symmetry_equiv_pos_as_xyz
  'x, y, z'

loop_
  _atom_site_type_symbol
  _atom_site_label
  _atom_site_symmetry_multiplicity
  _atom_site_fract_x
  _atom_site_fract_y
  _atom_site_fract_z
  _atom_site_occupancy
  _atom_site_charge
Zr  Zr1       1.0  0.06442  0.00000  0.47830  1.0000 2.394031516
Zr  Zr2       1.0  0.52170  0.58612  0.52170  1.0000 2.3993709597
Zr  Zr3       1.0  0.47830  0.00000  0.06442  1.0000 2.3993709597
Zr  Zr4       1.0  0.93558  0.41388  0.93558  1.0000 2.3993709597
Zr  Zr5       1.0  0.47830  0.06442  0.00000  1.0000 2.3993709597
Zr  Zr6       1.0  0.52170  0.52170  0.58612  1.0000 2.3993709597
Zr  Zr7       1.0  0.06442  0.47830  0.00000  1.0000 2.394031516
Zr  Zr8       1.0  0.93558  0.93558  0.41388  1.0000 2.3993709597
Zr  Zr9       1.0  0.00000  0.47830  0.06442  1.0000 2.3993709597
Zr  Zr10      1.0  0.58612  0.52170  0.52170  1.0000 2.3993709597
Zr  Zr11      1.0  0.00000  0.06442  0.47830  1.0000 2.3993709597
Zr  Zr12      1.0  0.41388  0.93558  0.93558  1.0000 2.394031516
Zr  Zr13      1.0  0.41388  0.47830  0.47830  1.0000 2.3993709597
Zr  Zr14      1.0  0.00000  0.93558  0.52170  1.0000 2.3993709597
Zr  Zr15      1.0  0.58612  0.06442  0.06442  1.0000 2.3993709597
Zr  Zr16      1.0  0.00000  0.52170  0.93558  1.0000 2.394031516
Zr  Zr17      1.0  0.52170  0.93558  0.00000  1.0000 2.3993709597
Zr  Zr18      1.0  0.06442  0.06442  0.58612  1.0000 2.3993709597
Zr  Zr19      1.0  0.93558  0.52170  0.00000  1.0000 2.3993709597
Zr  Zr20      1.0  0.47830  0.47830  0.41388  1.0000 2.3993709597
Zr  Zr21      1.0  0.06442  0.58612  0.06442  1.0000 2.3993709597
Zr  Zr22      1.0  0.93558  0.00000  0.52170  1.0000 2.3993709597
Zr  Zr23      1.0  0.47830  0.41388  0.47830  1.0000 2.3993709597
Zr  Zr24      1.0  0.52170  0.00000  0.93558  1.0000 2.3993709597
H   H1        1.0  0.06950  0.84420  0.51530  1.0000 0.1212307386
H   H2        1.0  0.32890  0.55420  0.48470  1.0000 0.1212307386
H   H3        1.0  0.67110  0.15580  0.22530  1.0000 0.1212307386
H   H4        1.0  0.93050  0.44580  0.77470  1.0000 0.1212307386
H   H5        1.0  0.51530  0.06950  0.84420  1.0000 0.1212307386
H   H6        1.0  0.48470  0.32890  0.55420  1.0000 0.1212307386
H   H7        1.0  0.22530  0.67110  0.15580  1.0000 0.1212307386
H   H8        1.0  0.77470  0.93050  0.44580  1.0000 0.1212307386
H   H9        1.0  0.84420  0.51530  0.06950  1.0000 0.1212307386
H   H10       1.0  0.55420  0.48470  0.32890  1.0000 0.1212307386
H   H11       1.0  0.15580  0.22530  0.67110  1.0000 0.1212307386
H   H12       1.0  0.44580  0.77470  0.93050  1.0000 0.1212307386
H   H13       1.0  0.44580  0.67110  0.51530  1.0000 0.1212307386
H   H14       1.0  0.15580  0.93050  0.48470  1.0000 0.1212307386
H   H15       1.0  0.55420  0.06950  0.22530  1.0000 0.1212307386
H   H16       1.0  0.84420  0.32890  0.77470  1.0000 0.1212307386
H   H17       1.0  0.32890  0.77470  0.84420  1.0000 0.1212307386
H   H18       1.0  0.06950  0.22530  0.55420  1.0000 0.1212307386
H   H19       1.0  0.93050  0.48470  0.15580  1.0000 0.1212307386
H   H20       1.0  0.67110  0.51530  0.44580  1.0000 0.1212307386
H   H21       1.0  0.22530  0.55420  0.06950  1.0000 0.1212307386
H   H22       1.0  0.77470  0.84420  0.32890  1.0000 0.1212307386
H   H23       1.0  0.51530  0.44580  0.67110  1.0000 0.1212307386
H   H24       1.0  0.48470  0.15580  0.93050  1.0000 0.1212307386
H   H25       1.0  0.93050  0.15580  0.48470  1.0000 0.1212307386
H   H26       1.0  0.67110  0.44580  0.51530  1.0000 0.1212307386
H   H27       1.0  0.32890  0.84420  0.77470  1.0000 0.1212307386
H   H28       1.0  0.06950  0.55420  0.22530  1.0000 0.1212307386
H   H29       1.0  0.48470  0.93050  0.15580  1.0000 0.1212307386
H   H30       1.0  0.51530  0.67110  0.44580  1.0000 0.1212307386
H   H31       1.0  0.77470  0.32890  0.84420  1.0000 0.1212307386
H   H32       1.0  0.22530  0.06950  0.55420  1.0000 0.1212307386
H   H33       1.0  0.15580  0.48470  0.93050  1.0000 0.1212307386
H   H34       1.0  0.44580  0.51530  0.67110  1.0000 0.1212307386
H   H35       1.0  0.84420  0.77470  0.32890  1.0000 0.1212307386
H   H36       1.0  0.55420  0.22530  0.06950  1.0000 0.1212307386
H   H37       1.0  0.55420  0.32890  0.48470  1.0000 0.1212307386
H   H38       1.0  0.84420  0.06950  0.51530  1.0000 0.1212307386
H   H39       1.0  0.44580  0.93050  0.77470  1.0000 0.1212307386
H   H40       1.0  0.15580  0.67110  0.22530  1.0000 0.1212307386
H   H41       1.0  0.67110  0.22530  0.15580  1.0000 0.1212307386
H   H42       1.0  0.93050  0.77470  0.44580  1.0000 0.1212307386
H   H43       1.0  0.06950  0.51530  0.84420  1.0000 0.1212307386
H   H44       1.0  0.32890  0.48470  0.55420  1.0000 0.1212307386
H   H45       1.0  0.77470  0.44580  0.93050  1.0000 0.1212307386
H   H46       1.0  0.22530  0.15580  0.67110  1.0000 0.1212307386
H   H47       1.0  0.48470  0.55420  0.32890  1.0000 0.1212307386
H   H48       1.0  0.51530  0.84420  0.06950  1.0000 0.1212307386
H   H49       1.0  0.11510  0.80370  0.51920  1.0000 0.1212307386
H   H50       1.0  0.28450  0.59590  0.48080  1.0000 0.1212307386
H   H51       1.0  0.71550  0.19630  0.31140  1.0000 0.1212307386
H   H52       1.0  0.88490  0.40410  0.68860  1.0000 0.1212307386
H   H53       1.0  0.51920  0.11510  0.80370  1.0000 0.1212307386
H   H54       1.0  0.48080  0.28450  0.59590  1.0000 0.1212307386
H   H55       1.0  0.31140  0.71550  0.19630  1.0000 0.1212307386
H   H56       1.0  0.68860  0.88490  0.40410  1.0000 0.1212307386
H   H57       1.0  0.80370  0.51920  0.11510  1.0000 0.1212307386
H   H58       1.0  0.59590  0.48080  0.28450  1.0000 0.1212307386
H   H59       1.0  0.19630  0.31140  0.71550  1.0000 0.1212307386
H   H60       1.0  0.40410  0.68860  0.88490  1.0000 0.1212307386
H   H61       1.0  0.40410  0.71550  0.51920  1.0000 0.1212307386
H   H62       1.0  0.19630  0.88490  0.48080  1.0000 0.1212307386
H   H63       1.0  0.59590  0.11510  0.31140  1.0000 0.1212307386
H   H64       1.0  0.80370  0.28450  0.68860  1.0000 0.1212307386
H   H65       1.0  0.28450  0.68860  0.80370  1.0000 0.1212307386
H   H66       1.0  0.11510  0.31140  0.59590  1.0000 0.1212307386
H   H67       1.0  0.88490  0.48080  0.19630  1.0000 0.1212307386
H   H68       1.0  0.71550  0.51920  0.40410  1.0000 0.1212307386
H   H69       1.0  0.31140  0.59590  0.11510  1.0000 0.1212307386
H   H70       1.0  0.68860  0.80370  0.28450  1.0000 0.1212307386
H   H71       1.0  0.51920  0.40410  0.71550  1.0000 0.1212307386
H   H72       1.0  0.48080  0.19630  0.88490  1.0000 0.1212307386
H   H73       1.0  0.88490  0.19630  0.48080  1.0000 0.1212307386
H   H74       1.0  0.71550  0.40410  0.51920  1.0000 0.1212307386
H   H75       1.0  0.28450  0.80370  0.68860  1.0000 0.1212307386
H   H76       1.0  0.11510  0.59590  0.31140  1.0000 0.1212307386
H   H77       1.0  0.48080  0.88490  0.19630  1.0000 0.1212307386
H   H78       1.0  0.51920  0.71550  0.40410  1.0000 0.1212307386
H   H79       1.0  0.68860  0.28450  0.80370  1.0000 0.1212307386
H   H80       1.0  0.31140  0.11510  0.59590  1.0000 0.1212307386
H   H81       1.0  0.19630  0.48080  0.88490  1.0000 0.1212307386
H   H82       1.0  0.40410  0.51920  0.71550  1.0000 0.1212307386
H   H83       1.0  0.80370  0.68860  0.28450  1.0000 0.1212307386
H   H84       1.0  0.59590  0.31140  0.11510  1.0000 0.1212307386
H   H85       1.0  0.59590  0.28450  0.48080  1.0000 0.1212307386
H   H86       1.0  0.80370  0.11510  0.51920  1.0000 0.1212307386
H   H87       1.0  0.40410  0.88490  0.68860  1.0000 0.1212307386
H   H88       1.0  0.19630  0.71550  0.31140  1.0000 0.1212307386
H   H89       1.0  0.71550  0.31140  0.19630  1.0000 0.1212307386
H   H90       1.0  0.88490  0.68860  0.40410  1.0000 0.1212307386
H   H91       1.0  0.11510  0.51920  0.80370  1.0000 0.1212307386
H   H92       1.0  0.28450  0.48080  0.59590  1.0000 0.1212307386
H   H93       1.0  0.68860  0.40410  0.88490  1.0000 0.1212307386
H   H94       1.0  0.31140  0.19630  0.71550  1.0000 0.1212307386
H   H95       1.0  0.48080  0.59590  0.28450  1.0000 0.1212307386
H   H96       1.0  0.51920  0.80370  0.11510  1.0000 0.1212307386
H   H97       1.0  0.11820  0.77960  0.40280  1.0000 0.1212307386
H   H98       1.0  0.37680  0.71540  0.59720  1.0000 0.1212307386
H   H99       1.0  0.62320  0.22040  0.33860  1.0000 0.1212307386
H   H100      1.0  0.88180  0.28460  0.66140  1.0000 0.1212307386
H   H101      1.0  0.40280  0.11820  0.77960  1.0000 0.1212307386
H   H102      1.0  0.59720  0.37680  0.71540  1.0000 0.1212307386
H   H103      1.0  0.33860  0.62320  0.22040  1.0000 0.1212307386
H   H104      1.0  0.66140  0.88180  0.28460  1.0000 0.1212307386
H   H105      1.0  0.77960  0.40280  0.11820  1.0000 0.1212307386
H   H106      1.0  0.71540  0.59720  0.37680  1.0000 0.1212307386
H   H107      1.0  0.22040  0.33860  0.62320  1.0000 0.1212307386
H   H108      1.0  0.28460  0.66140  0.88180  1.0000 0.1212307386
H   H109      1.0  0.28460  0.62320  0.40280  1.0000 0.1212307386
H   H110      1.0  0.22040  0.88180  0.59720  1.0000 0.1212307386
H   H111      1.0  0.71540  0.11820  0.33860  1.0000 0.1212307386
H   H112      1.0  0.77960  0.37680  0.66140  1.0000 0.1212307386
H   H113      1.0  0.37680  0.66140  0.77960  1.0000 0.1212307386
H   H114      1.0  0.11820  0.33860  0.71540  1.0000 0.1212307386
H   H115      1.0  0.88180  0.59720  0.22040  1.0000 0.1212307386
H   H116      1.0  0.62320  0.40280  0.28460  1.0000 0.1212307386
H   H117      1.0  0.33860  0.71540  0.11820  1.0000 0.1212307386
H   H118      1.0  0.66140  0.77960  0.37680  1.0000 0.1212307386
H   H119      1.0  0.40280  0.28460  0.62320  1.0000 0.1212307386
H   H120      1.0  0.59720  0.22040  0.88180  1.0000 0.1212307386
H   H121      1.0  0.88180  0.22040  0.59720  1.0000 0.1212307386
H   H122      1.0  0.62320  0.28460  0.40280  1.0000 0.1212307386
H   H123      1.0  0.37680  0.77960  0.66140  1.0000 0.1212307386
H   H124      1.0  0.11820  0.71540  0.33860  1.0000 0.1212307386
H   H125      1.0  0.59720  0.88180  0.22040  1.0000 0.1212307386
H   H126      1.0  0.40280  0.62320  0.28460  1.0000 0.1212307386
H   H127      1.0  0.66140  0.37680  0.77960  1.0000 0.1212307386
H   H128      1.0  0.33860  0.11820  0.71540  1.0000 0.1212307386
H   H129      1.0  0.22040  0.59720  0.88180  1.0000 0.1212307386
H   H130      1.0  0.28460  0.40280  0.62320  1.0000 0.1212307386
H   H131      1.0  0.77960  0.66140  0.37680  1.0000 0.1212307386
H   H132      1.0  0.71540  0.33860  0.11820  1.0000 0.1212307386
H   H133      1.0  0.71540  0.37680  0.59720  1.0000 0.1212307386
H   H134      1.0  0.77960  0.11820  0.40280  1.0000 0.1212307386
H   H135      1.0  0.28460  0.88180  0.66140  1.0000 0.1212307386
H   H136      1.0  0.22040  0.62320  0.33860  1.0000 0.1212307386
H   H137      1.0  0.62320  0.33860  0.22040  1.0000 0.1212307386
H   H138      1.0  0.88180  0.66140  0.28460  1.0000 0.1212307386
H   H139      1.0  0.11820  0.40280  0.77960  1.0000 0.1212307386
H   H140      1.0  0.37680  0.59720  0.71540  1.0000 0.1212307386
H   H141      1.0  0.66140  0.28460  0.88180  1.0000 0.1212307386
H   H142      1.0  0.33860  0.22040  0.62320  1.0000 0.1212307386
H   H143      1.0  0.59720  0.71540  0.37680  1.0000 0.1212307386
H   H144      1.0  0.40280  0.77960  0.11820  1.0000 0.1212307386
Ir  Ir1       1.0  0.25000  0.75000  0.50000  1.0000 0.8810606394
Ir  Ir2       1.0  0.75000  0.25000  0.50000  1.0000 0.8855327878
Ir  Ir3       1.0  0.50000  0.25000  0.75000  1.0000 0.8810606394
Ir  Ir4       1.0  0.50000  0.75000  0.25000  1.0000 0.8810606394
Ir  Ir5       1.0  0.75000  0.50000  0.25000  1.0000 0.8810606394
Ir  Ir6       1.0  0.25000  0.50000  0.75000  1.0000 0.8810606394
C   C1        1.0  0.08069  0.91931  0.50000  1.0000 0.620482759
C   C2        1.0  0.41931  0.58069  0.50000  1.0000 0.620482759
C   C3        1.0  0.58069  0.08069  0.16138  1.0000 0.620482759
C   C4        1.0  0.91931  0.41931  0.83862  1.0000 0.620482759
C   C5        1.0  0.50000  0.08069  0.91931  1.0000 0.620482759
C   C6        1.0  0.50000  0.41931  0.58069  1.0000 0.620482759
C   C7        1.0  0.16138  0.58069  0.08069  1.0000 0.620482759
C   C8        1.0  0.83862  0.91931  0.41931  1.0000 0.620482759
C   C9        1.0  0.91931  0.50000  0.08069  1.0000 0.620482759
C   C10       1.0  0.58069  0.50000  0.41931  1.0000 0.620482759
C   C11       1.0  0.08069  0.16138  0.58069  1.0000 0.620482759
C   C12       1.0  0.41931  0.83862  0.91931  1.0000 0.620482759
C   C13       1.0  0.91931  0.08069  0.50000  1.0000 0.620482759
C   C14       1.0  0.58069  0.41931  0.50000  1.0000 0.620482759
C   C15       1.0  0.41931  0.91931  0.83862  1.0000 0.620482759
C   C16       1.0  0.08069  0.58069  0.16138  1.0000 0.620482759
C   C17       1.0  0.50000  0.91931  0.08069  1.0000 0.620482759
C   C18       1.0  0.50000  0.58069  0.41931  1.0000 0.620482759
C   C19       1.0  0.83862  0.41931  0.91931  1.0000 0.620482759
C   C20       1.0  0.16138  0.08069  0.58069  1.0000 0.620482759
C   C21       1.0  0.08069  0.50000  0.91931  1.0000 0.620482759
C   C22       1.0  0.41931  0.50000  0.58069  1.0000 0.620482759
C   C23       1.0  0.91931  0.83862  0.41931  1.0000 0.620482759
C   C24       1.0  0.58069  0.16138  0.08069  1.0000 0.620482759
C   C25       1.0  0.10899  0.89101  0.50000  1.0000 -0.046455296
C   C26       1.0  0.39101  0.60899  0.50000  1.0000 -0.046455296
C   C27       1.0  0.60899  0.10899  0.21798  1.0000 -0.046455296
C   C28       1.0  0.89101  0.39101  0.78202  1.0000 -0.046455296
C   C29       1.0  0.50000  0.10899  0.89101  1.0000 -0.046455296
C   C30       1.0  0.50000  0.39101  0.60899  1.0000 -0.046455296
C   C31       1.0  0.21798  0.60899  0.10899  1.0000 -0.046455296
C   C32       1.0  0.78202  0.89101  0.39101  1.0000 -0.046455296
C   C33       1.0  0.89101  0.50000  0.10899  1.0000 -0.046455296
C   C34       1.0  0.60899  0.50000  0.39101  1.0000 -0.046455296
C   C35       1.0  0.10899  0.21798  0.60899  1.0000 -0.046455296
C   C36       1.0  0.39101  0.78202  0.89101  1.0000 -0.046455296
C   C37       1.0  0.89101  0.10899  0.50000  1.0000 -0.046455296
C   C38       1.0  0.60899  0.39101  0.50000  1.0000 -0.046455296
C   C39       1.0  0.39101  0.89101  0.78202  1.0000 -0.046455296
C   C40       1.0  0.10899  0.60899  0.21798  1.0000 -0.046455296
C   C41       1.0  0.50000  0.89101  0.10899  1.0000 -0.046455296
C   C42       1.0  0.50000  0.60899  0.39101  1.0000 -0.046455296
C   C43       1.0  0.78202  0.39101  0.89101  1.0000 -0.046455296
C   C44       1.0  0.21798  0.10899  0.60899  1.0000 -0.046455296
C   C45       1.0  0.10899  0.50000  0.89101  1.0000 -0.046455296
C   C46       1.0  0.39101  0.50000  0.60899  1.0000 -0.046455296
C   C47       1.0  0.89101  0.78202  0.39101  1.0000 -0.046455296
C   C48       1.0  0.60899  0.21798  0.10899  1.0000 -0.046455296
C   C49       1.0  0.09637  0.85352  0.50949  1.0000 -0.0962947275
C   C50       1.0  0.34403  0.58688  0.49051  1.0000 -0.0962947275
C   C51       1.0  0.65597  0.14648  0.24285  1.0000 -0.0962947275
C   C52       1.0  0.90363  0.41312  0.75715  1.0000 -0.0962947275
C   C53       1.0  0.50949  0.09637  0.85352  1.0000 -0.0962947275
C   C54       1.0  0.49051  0.34403  0.58688  1.0000 -0.0962947275
C   C55       1.0  0.24285  0.65597  0.14648  1.0000 -0.0962947275
C   C56       1.0  0.75715  0.90363  0.41312  1.0000 -0.0962947275
C   C57       1.0  0.85352  0.50949  0.09637  1.0000 -0.0962947275
C   C58       1.0  0.58688  0.49051  0.34403  1.0000 -0.0962947275
C   C59       1.0  0.14648  0.24285  0.65597  1.0000 -0.0962947275
C   C60       1.0  0.41312  0.75715  0.90363  1.0000 -0.0962947275
C   C61       1.0  0.41312  0.65597  0.50949  1.0000 -0.0962947275
C   C62       1.0  0.14648  0.90363  0.49051  1.0000 -0.0962947275
C   C63       1.0  0.58688  0.09637  0.24285  1.0000 -0.0962947275
C   C64       1.0  0.85352  0.34403  0.75715  1.0000 -0.0962947275
C   C65       1.0  0.34403  0.75715  0.85352  1.0000 -0.0962947275
C   C66       1.0  0.09637  0.24285  0.58688  1.0000 -0.0962947275
C   C67       1.0  0.90363  0.49051  0.14648  1.0000 -0.0962947275
C   C68       1.0  0.65597  0.50949  0.41312  1.0000 -0.0962947275
C   C69       1.0  0.24285  0.58688  0.09637  1.0000 -0.0962947275
C   C70       1.0  0.75715  0.85352  0.34403  1.0000 -0.0962947275
C   C71       1.0  0.50949  0.41312  0.65597  1.0000 -0.0962947275
C   C72       1.0  0.49051  0.14648  0.90363  1.0000 -0.0962947275
C   C73       1.0  0.90363  0.14648  0.49051  1.0000 -0.0962947275
C   C74       1.0  0.65597  0.41312  0.50949  1.0000 -0.0962947275
C   C75       1.0  0.34403  0.85352  0.75715  1.0000 -0.0962947275
C   C76       1.0  0.09637  0.58688  0.24285  1.0000 -0.0962947275
C   C77       1.0  0.49051  0.90363  0.14648  1.0000 -0.0962947275
C   C78       1.0  0.50949  0.65597  0.41312  1.0000 -0.0962947275
C   C79       1.0  0.75715  0.34403  0.85352  1.0000 -0.0962947275
C   C80       1.0  0.24285  0.09637  0.58688  1.0000 -0.0962947275
C   C81       1.0  0.14648  0.49051  0.90363  1.0000 -0.0962947275
C   C82       1.0  0.41312  0.50949  0.65597  1.0000 -0.0962947275
C   C83       1.0  0.85352  0.75715  0.34403  1.0000 -0.0962947275
C   C84       1.0  0.58688  0.24285  0.09637  1.0000 -0.0962947275
C   C85       1.0  0.58688  0.34403  0.49051  1.0000 -0.0962947275
C   C86       1.0  0.85352  0.09637  0.50949  1.0000 -0.0962947275
C   C87       1.0  0.41312  0.90363  0.75715  1.0000 -0.0962947275
C   C88       1.0  0.14648  0.65597  0.24285  1.0000 -0.0962947275
C   C89       1.0  0.65597  0.24285  0.14648  1.0000 -0.0962947275
C   C90       1.0  0.90363  0.75715  0.41312  1.0000 -0.0962947275
C   C91       1.0  0.09637  0.50949  0.85352  1.0000 -0.0962947275
C   C92       1.0  0.34403  0.49051  0.58688  1.0000 -0.0962947275
C   C93       1.0  0.75715  0.41312  0.90363  1.0000 -0.0962947275
C   C94       1.0  0.24285  0.14648  0.65597  1.0000 -0.0962947275
C   C95       1.0  0.49051  0.58688  0.34403  1.0000 -0.0962947275
C   C96       1.0  0.50949  0.85352  0.09637  1.0000 -0.0962947275
C   C97       1.0  0.12280  0.82879  0.51079  1.0000 -0.1543399775
C   C98       1.0  0.31800  0.61201  0.48921  1.0000 -0.1543399775
C   C99       1.0  0.68200  0.17121  0.29401  1.0000 -0.1543399775
C   C100      1.0  0.87720  0.38799  0.70599  1.0000 -0.1543399775
C   C101      1.0  0.51079  0.12280  0.82879  1.0000 -0.1543399775
C   C102      1.0  0.48921  0.31800  0.61201  1.0000 -0.1543399775
C   C103      1.0  0.29401  0.68200  0.17121  1.0000 -0.1543399775
C   C104      1.0  0.70599  0.87720  0.38799  1.0000 -0.1543399775
C   C105      1.0  0.82879  0.51079  0.12280  1.0000 -0.1543399775
C   C106      1.0  0.61201  0.48921  0.31800  1.0000 -0.1543399775
C   C107      1.0  0.17121  0.29401  0.68200  1.0000 -0.1543399775
C   C108      1.0  0.38799  0.70599  0.87720  1.0000 -0.1543399775
C   C109      1.0  0.38799  0.68200  0.51079  1.0000 -0.1543399775
C   C110      1.0  0.17121  0.87720  0.48921  1.0000 -0.1543399775
C   C111      1.0  0.61201  0.12280  0.29401  1.0000 -0.1543399775
C   C112      1.0  0.82879  0.31800  0.70599  1.0000 -0.1543399775
C   C113      1.0  0.31800  0.70599  0.82879  1.0000 -0.1543399775
C   C114      1.0  0.12280  0.29401  0.61201  1.0000 -0.1543399775
C   C115      1.0  0.87720  0.48921  0.17121  1.0000 -0.1543399775
C   C116      1.0  0.68200  0.51079  0.38799  1.0000 -0.1543399775
C   C117      1.0  0.29401  0.61201  0.12280  1.0000 -0.1543399775
C   C118      1.0  0.70599  0.82879  0.31800  1.0000 -0.1543399775
C   C119      1.0  0.51079  0.38799  0.68200  1.0000 -0.1543399775
C   C120      1.0  0.48921  0.17121  0.87720  1.0000 -0.1543399775
C   C121      1.0  0.87720  0.17121  0.48921  1.0000 -0.1543399775
C   C122      1.0  0.68200  0.38799  0.51079  1.0000 -0.1543399775
C   C123      1.0  0.31800  0.82879  0.70599  1.0000 -0.1543399775
C   C124      1.0  0.12280  0.61201  0.29401  1.0000 -0.1543399775
C   C125      1.0  0.48921  0.87720  0.17121  1.0000 -0.1543399775
C   C126      1.0  0.51079  0.68200  0.38799  1.0000 -0.1543399775
C   C127      1.0  0.70599  0.31800  0.82879  1.0000 -0.1543399775
C   C128      1.0  0.29401  0.12280  0.61201  1.0000 -0.1543399775
C   C129      1.0  0.17121  0.48921  0.87720  1.0000 -0.1543399775
C   C130      1.0  0.38799  0.51079  0.68200  1.0000 -0.1543399775
C   C131      1.0  0.82879  0.70599  0.31800  1.0000 -0.1543399775
C   C132      1.0  0.61201  0.29401  0.12280  1.0000 -0.1543399775
C   C133      1.0  0.61201  0.31800  0.48921  1.0000 -0.1543399775
C   C134      1.0  0.82879  0.12280  0.51079  1.0000 -0.1543399775
C   C135      1.0  0.38799  0.87720  0.70599  1.0000 -0.1543399775
C   C136      1.0  0.17121  0.68200  0.29401  1.0000 -0.1543399775
C   C137      1.0  0.68200  0.29401  0.17121  1.0000 -0.1543399775
C   C138      1.0  0.87720  0.70599  0.38799  1.0000 -0.1543399775
C   C139      1.0  0.12280  0.51079  0.82879  1.0000 -0.1543399775
C   C140      1.0  0.31800  0.48921  0.61201  1.0000 -0.1543399775
C   C141      1.0  0.70599  0.38799  0.87720  1.0000 -0.1543399775
C   C142      1.0  0.29401  0.17121  0.68200  1.0000 -0.1543399775
C   C143      1.0  0.48921  0.61201  0.31800  1.0000 -0.1543399775
C   C144      1.0  0.51079  0.82879  0.12280  1.0000 -0.1543399775
C   C145      1.0  0.15961  0.84039  0.50000  1.0000 0.085109937
C   C146      1.0  0.34039  0.65961  0.50000  1.0000 0.084115206
C   C147      1.0  0.65961  0.15961  0.31922  1.0000 0.085109937
C   C148      1.0  0.84039  0.34039  0.68078  1.0000 0.085109937
C   C149      1.0  0.50000  0.15961  0.84039  1.0000 0.085109937
C   C150      1.0  0.50000  0.34039  0.65961  1.0000 0.085109937
C   C151      1.0  0.31922  0.65961  0.15961  1.0000 0.085109937
C   C152      1.0  0.68078  0.84039  0.34039  1.0000 0.085109937
C   C153      1.0  0.84039  0.50000  0.15961  1.0000 0.085109937
C   C154      1.0  0.65961  0.50000  0.34039  1.0000 0.085109937
C   C155      1.0  0.15961  0.31922  0.65961  1.0000 0.085109937
C   C156      1.0  0.34039  0.68078  0.84039  1.0000 0.085109937
C   C157      1.0  0.84039  0.15961  0.50000  1.0000 0.085109937
C   C158      1.0  0.65961  0.34039  0.50000  1.0000 0.085109937
C   C159      1.0  0.34039  0.84039  0.68078  1.0000 0.085109937
C   C160      1.0  0.15961  0.65961  0.31922  1.0000 0.085109937
C   C161      1.0  0.50000  0.84039  0.15961  1.0000 0.085109937
C   C162      1.0  0.50000  0.65961  0.34039  1.0000 0.084115206
C   C163      1.0  0.68078  0.34039  0.84039  1.0000 0.085109937
C   C164      1.0  0.31922  0.15961  0.65961  1.0000 0.085109937
C   C165      1.0  0.15961  0.50000  0.84039  1.0000 0.084115206
C   C166      1.0  0.34039  0.50000  0.65961  1.0000 0.085109937
C   C167      1.0  0.84039  0.68078  0.34039  1.0000 0.085109937
C   C168      1.0  0.65961  0.31922  0.15961  1.0000 0.085109937
C   C169      1.0  0.18722  0.81278  0.50000  1.0000 -0.0763064858
C   C170      1.0  0.31278  0.68722  0.50000  1.0000 -0.0763064858
C   C171      1.0  0.68722  0.18722  0.37444  1.0000 -0.0763064858
C   C172      1.0  0.81278  0.31278  0.62556  1.0000 -0.0763064858
C   C173      1.0  0.50000  0.18722  0.81278  1.0000 -0.0763064858
C   C174      1.0  0.50000  0.31278  0.68722  1.0000 -0.0763064858
C   C175      1.0  0.37444  0.68722  0.18722  1.0000 -0.0763064858
C   C176      1.0  0.62556  0.81278  0.31278  1.0000 -0.0763064858
C   C177      1.0  0.81278  0.50000  0.18722  1.0000 -0.0763064858
C   C178      1.0  0.68722  0.50000  0.31278  1.0000 -0.0763064858
C   C179      1.0  0.18722  0.37444  0.68722  1.0000 -0.0763064858
C   C180      1.0  0.31278  0.62556  0.81278  1.0000 -0.0763064858
C   C181      1.0  0.81278  0.18722  0.50000  1.0000 -0.0763064858
C   C182      1.0  0.68722  0.31278  0.50000  1.0000 -0.0763064858
C   C183      1.0  0.31278  0.81278  0.62556  1.0000 -0.0763064858
C   C184      1.0  0.18722  0.68722  0.37444  1.0000 -0.0763064858
C   C185      1.0  0.50000  0.81278  0.18722  1.0000 -0.0763064858
C   C186      1.0  0.50000  0.68722  0.31278  1.0000 -0.0763064858
C   C187      1.0  0.62556  0.31278  0.81278  1.0000 -0.0763064858
C   C188      1.0  0.37444  0.18722  0.68722  1.0000 -0.0763064858
C   C189      1.0  0.18722  0.50000  0.81278  1.0000 -0.0763064858
C   C190      1.0  0.31278  0.50000  0.68722  1.0000 -0.0763064858
C   C191      1.0  0.81278  0.62556  0.31278  1.0000 -0.0763064858
C   C192      1.0  0.68722  0.37444  0.18722  1.0000 -0.0763064858
C   C193      1.0  0.17512  0.77732  0.45544  1.0000 0.1477137653
C   C194      1.0  0.32188  0.71968  0.54456  1.0000 0.1477137653
C   C195      1.0  0.67812  0.22268  0.39780  1.0000 0.1477137653
C   C196      1.0  0.82488  0.28032  0.60220  1.0000 0.1477137653
C   C197      1.0  0.45544  0.17512  0.77732  1.0000 0.1477137653
C   C198      1.0  0.54456  0.32188  0.71968  1.0000 0.1477137653
C   C199      1.0  0.39780  0.67812  0.22268  1.0000 0.1477137653
C   C200      1.0  0.60220  0.82488  0.28032  1.0000 0.1477137653
C   C201      1.0  0.77732  0.45544  0.17512  1.0000 0.1477137653
C   C202      1.0  0.71968  0.54456  0.32188  1.0000 0.1477137653
C   C203      1.0  0.22268  0.39780  0.67812  1.0000 0.1477137653
C   C204      1.0  0.28032  0.60220  0.82488  1.0000 0.1477137653
C   C205      1.0  0.28032  0.67812  0.45544  1.0000 0.1477137653
C   C206      1.0  0.22268  0.82488  0.54456  1.0000 0.1477137653
C   C207      1.0  0.71968  0.17512  0.39780  1.0000 0.1477137653
C   C208      1.0  0.77732  0.32188  0.60220  1.0000 0.1477137653
C   C209      1.0  0.32188  0.60220  0.77732  1.0000 0.1477137653
C   C210      1.0  0.17512  0.39780  0.71968  1.0000 0.1477137653
C   C211      1.0  0.82488  0.54456  0.22268  1.0000 0.1477137653
C   C212      1.0  0.67812  0.45544  0.28032  1.0000 0.1477137653
C   C213      1.0  0.39780  0.71968  0.17512  1.0000 0.1477137653
C   C214      1.0  0.60220  0.77732  0.32188  1.0000 0.1477137653
C   C215      1.0  0.45544  0.28032  0.67812  1.0000 0.1477137653
C   C216      1.0  0.54456  0.22268  0.82488  1.0000 0.1477137653
C   C217      1.0  0.82488  0.22268  0.54456  1.0000 0.1477137653
C   C218      1.0  0.67812  0.28032  0.45544  1.0000 0.1477137653
C   C219      1.0  0.32188  0.77732  0.60220  1.0000 0.1477137653
C   C220      1.0  0.17512  0.71968  0.39780  1.0000 0.1477137653
C   C221      1.0  0.54456  0.82488  0.22268  1.0000 0.1477137653
C   C222      1.0  0.45544  0.67812  0.28032  1.0000 0.1477137653
C   C223      1.0  0.60220  0.32188  0.77732  1.0000 0.1477137653
C   C224      1.0  0.39780  0.17512  0.71968  1.0000 0.1477137653
C   C225      1.0  0.22268  0.54456  0.82488  1.0000 0.1477137653
C   C226      1.0  0.28032  0.45544  0.67812  1.0000 0.1477137653
C   C227      1.0  0.77732  0.60220  0.32188  1.0000 0.1477137653
C   C228      1.0  0.71968  0.39780  0.17512  1.0000 0.1477137653
C   C229      1.0  0.71968  0.32188  0.54456  1.0000 0.1477137653
C   C230      1.0  0.77732  0.17512  0.45544  1.0000 0.1477137653
C   C231      1.0  0.28032  0.82488  0.60220  1.0000 0.1477137653
C   C232      1.0  0.22268  0.67812  0.39780  1.0000 0.1477137653
C   C233      1.0  0.67812  0.39780  0.22268  1.0000 0.1477137653
C   C234      1.0  0.82488  0.60220  0.28032  1.0000 0.1477137653
C   C235      1.0  0.17512  0.45544  0.77732  1.0000 0.1477137653
C   C236      1.0  0.32188  0.54456  0.71968  1.0000 0.1477137653
C   C237      1.0  0.60220  0.28032  0.82488  1.0000 0.1477137653
C   C238      1.0  0.39780  0.22268  0.67812  1.0000 0.1477137653
C   C239      1.0  0.54456  0.71968  0.32188  1.0000 0.1477137653
C   C240      1.0  0.45544  0.77732  0.17512  1.0000 0.1477137653
C   C241      1.0  0.13848  0.76523  0.40811  1.0000 -0.1883904952
C   C242      1.0  0.35712  0.73037  0.59189  1.0000 -0.1883904952
C   C243      1.0  0.64288  0.23477  0.37325  1.0000 -0.1883904952
C   C244      1.0  0.86152  0.26963  0.62675  1.0000 -0.1883904952
C   C245      1.0  0.40811  0.13848  0.76523  1.0000 -0.1883904952
C   C246      1.0  0.59189  0.35712  0.73037  1.0000 -0.1883904952
C   C247      1.0  0.37325  0.64288  0.23477  1.0000 -0.1883904952
C   C248      1.0  0.62675  0.86152  0.26963  1.0000 -0.1883904952
C   C249      1.0  0.76523  0.40811  0.13848  1.0000 -0.1883904952
C   C250      1.0  0.73037  0.59189  0.35712  1.0000 -0.1883904952
C   C251      1.0  0.23477  0.37325  0.64288  1.0000 -0.1883904952
C   C252      1.0  0.26963  0.62675  0.86152  1.0000 -0.1883904952
C   C253      1.0  0.26963  0.64288  0.40811  1.0000 -0.1883904952
C   C254      1.0  0.23477  0.86152  0.59189  1.0000 -0.1883904952
C   C255      1.0  0.73037  0.13848  0.37325  1.0000 -0.1883904952
C   C256      1.0  0.76523  0.35712  0.62675  1.0000 -0.1883904952
C   C257      1.0  0.35712  0.62675  0.76523  1.0000 -0.1883904952
C   C258      1.0  0.13848  0.37325  0.73037  1.0000 -0.1883904952
C   C259      1.0  0.86152  0.59189  0.23477  1.0000 -0.1883904952
C   C260      1.0  0.64288  0.40811  0.26963  1.0000 -0.1883904952
C   C261      1.0  0.37325  0.73037  0.13848  1.0000 -0.1883904952
C   C262      1.0  0.62675  0.76523  0.35712  1.0000 -0.1883904952
C   C263      1.0  0.40811  0.26963  0.64288  1.0000 -0.1883904952
C   C264      1.0  0.59189  0.23477  0.86152  1.0000 -0.1883904952
C   C265      1.0  0.86152  0.23477  0.59189  1.0000 -0.1883904952
C   C266      1.0  0.64288  0.26963  0.40811  1.0000 -0.1883904952
C   C267      1.0  0.35712  0.76523  0.62675  1.0000 -0.1883904952
C   C268      1.0  0.13848  0.73037  0.37325  1.0000 -0.1883904952
C   C269      1.0  0.59189  0.86152  0.23477  1.0000 -0.1883904952
C   C270      1.0  0.40811  0.64288  0.26963  1.0000 -0.1883904952
C   C271      1.0  0.62675  0.35712  0.76523  1.0000 -0.1883904952
C   C272      1.0  0.37325  0.13848  0.73037  1.0000 -0.1883904952
C   C273      1.0  0.23477  0.59189  0.86152  1.0000 -0.1883904952
C   C274      1.0  0.26963  0.40811  0.64288  1.0000 -0.1883904952
C   C275      1.0  0.76523  0.62675  0.35712  1.0000 -0.1883904952
C   C276      1.0  0.73037  0.37325  0.13848  1.0000 -0.1883904952
C   C277      1.0  0.73037  0.35712  0.59189  1.0000 -0.1883904952
C   C278      1.0  0.76523  0.13848  0.40811  1.0000 -0.1883904952
C   C279      1.0  0.26963  0.86152  0.62675  1.0000 -0.1883904952
C   C280      1.0  0.23477  0.64288  0.37325  1.0000 -0.1883904952
C   C281      1.0  0.64288  0.37325  0.23477  1.0000 -0.1883904952
C   C282      1.0  0.86152  0.62675  0.26963  1.0000 -0.1883904952
C   C283      1.0  0.13848  0.40811  0.76523  1.0000 -0.1883904952
C   C284      1.0  0.35712  0.59189  0.73037  1.0000 -0.1883904952
C   C285      1.0  0.62675  0.26963  0.86152  1.0000 -0.1883904952
C   C286      1.0  0.37325  0.23477  0.64288  1.0000 -0.1883904952
C   C287      1.0  0.59189  0.73037  0.35712  1.0000 -0.1883904952
C   C288      1.0  0.40811  0.76523  0.13848  1.0000 -0.1883904952
N   N1        1.0  0.19665  0.74970  0.44695  1.0000 -0.2662075584
N   N2        1.0  0.30275  0.74970  0.55305  1.0000 -0.2638636057
N   N3        1.0  0.69725  0.25030  0.44695  1.0000 -0.2662075584
N   N4        1.0  0.80335  0.25030  0.55305  1.0000 -0.2662075584
N   N5        1.0  0.44695  0.19665  0.74970  1.0000 -0.2662075584
N   N6        1.0  0.55305  0.30275  0.74970  1.0000 -0.2638636057
N   N7        1.0  0.44695  0.69725  0.25030  1.0000 -0.2638636057
N   N8        1.0  0.55305  0.80335  0.25030  1.0000 -0.2638636057
N   N9        1.0  0.74970  0.44695  0.19665  1.0000 -0.2662075584
N   N10       1.0  0.74970  0.55305  0.30275  1.0000 -0.2662075584
N   N11       1.0  0.25030  0.44695  0.69725  1.0000 -0.2662075584
N   N12       1.0  0.25030  0.55305  0.80335  1.0000 -0.2662075584
N   N13       1.0  0.25030  0.69725  0.44695  1.0000 -0.2662075584
N   N14       1.0  0.25030  0.80335  0.55305  1.0000 -0.2638636057
N   N15       1.0  0.74970  0.19665  0.44695  1.0000 -0.2662075584
N   N16       1.0  0.74970  0.30275  0.55305  1.0000 -0.2662075584
N   N17       1.0  0.30275  0.55305  0.74970  1.0000 -0.2662075584
N   N18       1.0  0.19665  0.44695  0.74970  1.0000 -0.2662075584
N   N19       1.0  0.80335  0.55305  0.25030  1.0000 -0.2662075584
N   N20       1.0  0.69725  0.44695  0.25030  1.0000 -0.2638636057
N   N21       1.0  0.44695  0.74970  0.19665  1.0000 -0.2662075584
N   N22       1.0  0.55305  0.74970  0.30275  1.0000 -0.2662075584
N   N23       1.0  0.44695  0.25030  0.69725  1.0000 -0.2638636057
N   N24       1.0  0.55305  0.25030  0.80335  1.0000 -0.2638636057
Cl  Cl1       1.0  0.18990  0.68990  0.50000  1.0000 -0.4087996172
Cl  Cl2       1.0  0.81010  0.31010  0.50000  1.0000 -0.4087996172
Cl  Cl3       1.0  0.50000  0.18990  0.68990  1.0000 -0.4087996172
Cl  Cl4       1.0  0.50000  0.81010  0.31010  1.0000 -0.4087996172
Cl  Cl5       1.0  0.68990  0.50000  0.18990  1.0000 -0.404187529
Cl  Cl6       1.0  0.31010  0.50000  0.81010  1.0000 -0.404187529
Cl  Cl7       1.0  0.31010  0.81010  0.50000  1.0000 -0.4087996172
Cl  Cl8       1.0  0.68990  0.18990  0.50000  1.0000 -0.4087996172
Cl  Cl9       1.0  0.18990  0.50000  0.68990  1.0000 -0.4087996172
Cl  Cl10      1.0  0.81010  0.50000  0.31010  1.0000 -0.404187529
Cl  Cl11      1.0  0.50000  0.68990  0.18990  1.0000 -0.4087996172
Cl  Cl12      1.0  0.50000  0.31010  0.81010  1.0000 -0.4087996172
O   O1        1.0  0.09257  0.95064  0.48621  1.0000 -0.6237270784
O   O2        1.0  0.46443  0.60636  0.51379  1.0000 -0.6237270784
O   O3        1.0  0.53557  0.04936  0.14193  1.0000 -0.6237270784
O   O4        1.0  0.90743  0.39364  0.85807  1.0000 -0.6237270784
O   O5        1.0  0.48621  0.09257  0.95064  1.0000 -0.6237270784
O   O6        1.0  0.51379  0.46443  0.60636  1.0000 -0.6237270784
O   O7        1.0  0.14193  0.53557  0.04936  1.0000 -0.6237270784
O   O8        1.0  0.85807  0.90743  0.39364  1.0000 -0.6237270784
O   O9        1.0  0.95064  0.48621  0.09257  1.0000 -0.6237270784
O   O10       1.0  0.60636  0.51379  0.46443  1.0000 -0.6237270784
O   O11       1.0  0.04936  0.14193  0.53557  1.0000 -0.6237270784
O   O12       1.0  0.39364  0.85807  0.90743  1.0000 -0.6237270784
O   O13       1.0  0.39364  0.53557  0.48621  1.0000 -0.6237270784
O   O14       1.0  0.04936  0.90743  0.51379  1.0000 -0.6259880748
O   O15       1.0  0.60636  0.09257  0.14193  1.0000 -0.6259880748
O   O16       1.0  0.95064  0.46443  0.85807  1.0000 -0.6237270784
O   O17       1.0  0.46443  0.85807  0.95064  1.0000 -0.6237270784
O   O18       1.0  0.09257  0.14193  0.60636  1.0000 -0.6237270784
O   O19       1.0  0.90743  0.51379  0.04936  1.0000 -0.6237270784
O   O20       1.0  0.53557  0.48621  0.39364  1.0000 -0.6259880748
O   O21       1.0  0.14193  0.60636  0.09257  1.0000 -0.6237270784
O   O22       1.0  0.85807  0.95064  0.46443  1.0000 -0.6259880748
O   O23       1.0  0.48621  0.39364  0.53557  1.0000 -0.6237270784
O   O24       1.0  0.51379  0.04936  0.90743  1.0000 -0.6259880748
O   O25       1.0  0.90743  0.04936  0.51379  1.0000 -0.6237270784
O   O26       1.0  0.53557  0.39364  0.48621  1.0000 -0.6237270784
O   O27       1.0  0.46443  0.95064  0.85807  1.0000 -0.6237270784
O   O28       1.0  0.09257  0.60636  0.14193  1.0000 -0.6259880748
O   O29       1.0  0.51379  0.90743  0.04936  1.0000 -0.6237270784
O   O30       1.0  0.48621  0.53557  0.39364  1.0000 -0.6237270784
O   O31       1.0  0.85807  0.46443  0.95064  1.0000 -0.6237270784
O   O32       1.0  0.14193  0.09257  0.60636  1.0000 -0.6237270784
O   O33       1.0  0.04936  0.51379  0.90743  1.0000 -0.6259880748
O   O34       1.0  0.39364  0.48621  0.53557  1.0000 -0.6237270784
O   O35       1.0  0.95064  0.85807  0.46443  1.0000 -0.6259880748
O   O36       1.0  0.60636  0.14193  0.09257  1.0000 -0.6237270784
O   O37       1.0  0.60636  0.46443  0.51379  1.0000 -0.6237270784
O   O38       1.0  0.95064  0.09257  0.48621  1.0000 -0.6237270784
O   O39       1.0  0.39364  0.90743  0.85807  1.0000 -0.6237270784
O   O40       1.0  0.04936  0.53557  0.14193  1.0000 -0.6237270784
O   O41       1.0  0.53557  0.14193  0.04936  1.0000 -0.6237270784
O   O42       1.0  0.90743  0.85807  0.39364  1.0000 -0.6237270784
O   O43       1.0  0.09257  0.48621  0.95064  1.0000 -0.6237270784
O   O44       1.0  0.46443  0.51379  0.60636  1.0000 -0.6237270784
O   O45       1.0  0.85807  0.39364  0.90743  1.0000 -0.6237270784
O   O46       1.0  0.14193  0.04936  0.53557  1.0000 -0.6237270784
O   O47       1.0  0.51379  0.60636  0.46443  1.0000 -0.6237270784
O   O48       1.0  0.48621  0.95064  0.09257  1.0000 -0.6237270784
O   O49       1.0  0.06508  0.00000  0.55052  1.0000 -1.2110661951
O   O50       1.0  0.44948  0.51456  0.44948  1.0000 -1.2188347409
O   O51       1.0  0.55052  0.00000  0.06508  1.0000 -1.2110661951
O   O52       1.0  0.93492  0.48544  0.93492  1.0000 -1.2110661951
O   O53       1.0  0.55052  0.06508  0.00000  1.0000 -1.2110661951
O   O54       1.0  0.44948  0.44948  0.51456  1.0000 -1.2110661951
O   O55       1.0  0.06508  0.55052  0.00000  1.0000 -1.2188347409
O   O56       1.0  0.93492  0.93492  0.48544  1.0000 -1.2110661951
O   O57       1.0  0.00000  0.55052  0.06508  1.0000 -1.2110661951
O   O58       1.0  0.51456  0.44948  0.44948  1.0000 -1.2110661951
O   O59       1.0  0.00000  0.06508  0.55052  1.0000 -1.2110661951
O   O60       1.0  0.48544  0.93492  0.93492  1.0000 -1.2110661951
O   O61       1.0  0.48544  0.55052  0.55052  1.0000 -1.2188347409
O   O62       1.0  0.00000  0.93492  0.44948  1.0000 -1.2188347409
O   O63       1.0  0.51456  0.06508  0.06508  1.0000 -1.2110661951
O   O64       1.0  0.00000  0.44948  0.93492  1.0000 -1.2110661951
O   O65       1.0  0.44948  0.93492  0.00000  1.0000 -1.2188347409
O   O66       1.0  0.06508  0.06508  0.51456  1.0000 -1.2110661951
O   O67       1.0  0.93492  0.44948  0.00000  1.0000 -1.2110661951
O   O68       1.0  0.55052  0.55052  0.48544  1.0000 -1.2188347409
O   O69       1.0  0.06508  0.51456  0.06508  1.0000 -1.2188347409
O   O70       1.0  0.93492  0.00000  0.44948  1.0000 -1.2110661951
O   O71       1.0  0.55052  0.48544  0.55052  1.0000 -1.2110661951
O   O72       1.0  0.44948  0.00000  0.93492  1.0000 -1.2110661951
O   O73       1.0  0.00000  0.00000  0.43426  1.0000 -1.2422624615
O   O74       1.0  0.56574  0.56574  0.56574  1.0000 -1.2514053669
O   O75       1.0  0.43426  0.00000  0.00000  1.0000 -1.2422624615
O   O76       1.0  0.00000  0.43426  0.00000  1.0000 -1.2514053669
O   O77       1.0  0.43426  0.43426  0.43426  1.0000 -1.2422624615
O   O78       1.0  0.00000  0.00000  0.56574  1.0000 -1.2514053669
O   O79       1.0  0.56574  0.00000  0.00000  1.0000 -1.2514053669
O   O80       1.0  0.00000  0.56574  0.00000  1.0000 -1.2422624615
