# DDEC6 charges by PACMAN v1.1 (https://github.com/mtap-research/PACMAN-charge/)
data_2016[Cu][nan]3[ASR]13
_chemical_formula_sum              "Cu36 H216 C192 I24 N48"
_cell_length_a       22.22
_cell_length_b       22.22
_cell_length_c       22.487
_cell_angle_alpha    90
_cell_angle_beta     90
_cell_angle_gamma    120

_symmetry_space_group_name_H-M    "P 1"
_symmetry_Int_Tables_number       1

loop_
  _symmetry_equiv_pos_as_xyz
  'x, y, z'

loop_
  _atom_site_type_symbol
  _atom_site_label
  _atom_site_symmetry_multiplicity
  _atom_site_fract_x
  _atom_site_fract_y
  _atom_site_fract_z
  _atom_site_occupancy
  _atom_site_charge
Cu  Cu1       1.0  0.52290  0.28471  0.53072  1.0000 0.1294103066
Cu  Cu2       1.0  0.71529  0.23819  0.86405  1.0000 0.1294103066
Cu  Cu3       1.0  0.76181  0.47710  0.19739  1.0000 0.1294103066
Cu  Cu4       1.0  0.47710  0.71529  0.03072  1.0000 0.1294103066
Cu  Cu5       1.0  0.28471  0.76181  0.36405  1.0000 0.1294103066
Cu  Cu6       1.0  0.23819  0.52290  0.69739  1.0000 0.1294103066
Cu  Cu7       1.0  0.28471  0.52290  0.80261  1.0000 0.1294103066
Cu  Cu8       1.0  0.23819  0.71529  0.46928  1.0000 0.1294103066
Cu  Cu9       1.0  0.47710  0.76181  0.13595  1.0000 0.1294103066
Cu  Cu10      1.0  0.71529  0.47710  0.30261  1.0000 0.1294103066
Cu  Cu11      1.0  0.76181  0.28471  0.96928  1.0000 0.1294103066
Cu  Cu12      1.0  0.52290  0.23819  0.63595  1.0000 0.1294103066
Cu  Cu13      1.0  0.42842  0.26793  0.60888  1.0000 0.1424056244
Cu  Cu14      1.0  0.73207  0.16049  0.94221  1.0000 0.1424056244
Cu  Cu15      1.0  0.83951  0.57158  0.27555  1.0000 0.1424056244
Cu  Cu16      1.0  0.57158  0.73207  0.10888  1.0000 0.1424056244
Cu  Cu17      1.0  0.26793  0.83951  0.44221  1.0000 0.1424056244
Cu  Cu18      1.0  0.16049  0.42842  0.77555  1.0000 0.1424056244
Cu  Cu19      1.0  0.26793  0.42842  0.72445  1.0000 0.1424056244
Cu  Cu20      1.0  0.16049  0.73207  0.39112  1.0000 0.1424056244
Cu  Cu21      1.0  0.57158  0.83951  0.05779  1.0000 0.1424056244
Cu  Cu22      1.0  0.73207  0.57158  0.22445  1.0000 0.1424056244
Cu  Cu23      1.0  0.83951  0.26793  0.89112  1.0000 0.1424056244
Cu  Cu24      1.0  0.42842  0.16049  0.55779  1.0000 0.1424056244
Cu  Cu25      1.0  0.85862  0.77425  0.39303  1.0000 0.251003021
Cu  Cu26      1.0  0.22575  0.08437  0.72636  1.0000 0.251003021
Cu  Cu27      1.0  0.91563  0.14138  0.05970  1.0000 0.251003021
Cu  Cu28      1.0  0.14138  0.22575  0.89303  1.0000 0.251003021
Cu  Cu29      1.0  0.77425  0.91563  0.22636  1.0000 0.251003021
Cu  Cu30      1.0  0.08437  0.85862  0.55970  1.0000 0.251003021
Cu  Cu31      1.0  0.77425  0.85862  0.94030  1.0000 0.251003021
Cu  Cu32      1.0  0.08437  0.22575  0.60697  1.0000 0.251003021
Cu  Cu33      1.0  0.14138  0.91563  0.27364  1.0000 0.251003021
Cu  Cu34      1.0  0.22575  0.14138  0.44030  1.0000 0.251003021
Cu  Cu35      1.0  0.91563  0.77425  0.10697  1.0000 0.251003021
Cu  Cu36      1.0  0.85862  0.08437  0.77364  1.0000 0.251003021
H   H1        1.0  0.52220  0.27900  0.39530  1.0000 0.106974605
H   H2        1.0  0.72100  0.24320  0.72863  1.0000 0.106974605
H   H3        1.0  0.75680  0.47780  0.06197  1.0000 0.106974605
H   H4        1.0  0.47780  0.72100  0.89530  1.0000 0.106974605
H   H5        1.0  0.27900  0.75680  0.22863  1.0000 0.106974605
H   H6        1.0  0.24320  0.52220  0.56197  1.0000 0.106974605
H   H7        1.0  0.27900  0.52220  0.93803  1.0000 0.106974605
H   H8        1.0  0.24320  0.72100  0.60470  1.0000 0.106974605
H   H9        1.0  0.47780  0.75680  0.27137  1.0000 0.106974605
H   H10       1.0  0.72100  0.47780  0.43803  1.0000 0.106974605
H   H11       1.0  0.75680  0.27900  0.10470  1.0000 0.106974605
H   H12       1.0  0.52220  0.24320  0.77137  1.0000 0.106974605
H   H13       1.0  0.57890  0.26210  0.41840  1.0000 0.106974605
H   H14       1.0  0.73790  0.31680  0.75173  1.0000 0.106974605
H   H15       1.0  0.68320  0.42110  0.08507  1.0000 0.106974605
H   H16       1.0  0.42110  0.73790  0.91840  1.0000 0.106974605
H   H17       1.0  0.26210  0.68320  0.25173  1.0000 0.106974605
H   H18       1.0  0.31680  0.57890  0.58507  1.0000 0.106974605
H   H19       1.0  0.26210  0.57890  0.91493  1.0000 0.106974605
H   H20       1.0  0.31680  0.73790  0.58160  1.0000 0.106974605
H   H21       1.0  0.42110  0.68320  0.24827  1.0000 0.106974605
H   H22       1.0  0.73790  0.42110  0.41493  1.0000 0.106974605
H   H23       1.0  0.68320  0.26210  0.08160  1.0000 0.106974605
H   H24       1.0  0.57890  0.31680  0.74827  1.0000 0.106974605
H   H25       1.0  0.57250  0.42670  0.47740  1.0000 0.106974605
H   H26       1.0  0.57330  0.14580  0.81073  1.0000 0.106974605
H   H27       1.0  0.85420  0.42750  0.14407  1.0000 0.106974605
H   H28       1.0  0.42750  0.57330  0.97740  1.0000 0.106974605
H   H29       1.0  0.42670  0.85420  0.31073  1.0000 0.106974605
H   H30       1.0  0.14580  0.57250  0.64407  1.0000 0.106974605
H   H31       1.0  0.42670  0.57250  0.85593  1.0000 0.106974605
H   H32       1.0  0.14580  0.57330  0.52260  1.0000 0.106974605
H   H33       1.0  0.42750  0.85420  0.18927  1.0000 0.106974605
H   H34       1.0  0.57330  0.42750  0.35593  1.0000 0.106974605
H   H35       1.0  0.85420  0.42670  0.02260  1.0000 0.106974605
H   H36       1.0  0.57250  0.14580  0.68927  1.0000 0.106974605
H   H37       1.0  0.51360  0.37260  0.43570  1.0000 0.106974605
H   H38       1.0  0.62740  0.14100  0.76903  1.0000 0.106974605
H   H39       1.0  0.85900  0.48640  0.10237  1.0000 0.106974605
H   H40       1.0  0.48640  0.62740  0.93570  1.0000 0.106974605
H   H41       1.0  0.37260  0.85900  0.26903  1.0000 0.106974605
H   H42       1.0  0.14100  0.51360  0.60237  1.0000 0.106974605
H   H43       1.0  0.37260  0.51360  0.89763  1.0000 0.106974605
H   H44       1.0  0.14100  0.62740  0.56430  1.0000 0.106974605
H   H45       1.0  0.48640  0.85900  0.23097  1.0000 0.106974605
H   H46       1.0  0.62740  0.48640  0.39763  1.0000 0.106974605
H   H47       1.0  0.85900  0.37260  0.06430  1.0000 0.106974605
H   H48       1.0  0.51360  0.14100  0.73097  1.0000 0.106974605
H   H49       1.0  0.67180  0.34720  0.48490  1.0000 0.106974605
H   H50       1.0  0.65280  0.32460  0.81823  1.0000 0.106974605
H   H51       1.0  0.67540  0.32820  0.15157  1.0000 0.106974605
H   H52       1.0  0.32820  0.65280  0.98490  1.0000 0.106974605
H   H53       1.0  0.34720  0.67540  0.31823  1.0000 0.106974605
H   H54       1.0  0.32460  0.67180  0.65157  1.0000 0.106974605
H   H55       1.0  0.34720  0.67180  0.84843  1.0000 0.106974605
H   H56       1.0  0.32460  0.65280  0.51510  1.0000 0.106974605
H   H57       1.0  0.32820  0.67540  0.18177  1.0000 0.106974605
H   H58       1.0  0.65280  0.32820  0.34843  1.0000 0.106974605
H   H59       1.0  0.67540  0.34720  0.01510  1.0000 0.106974605
H   H60       1.0  0.67180  0.32460  0.68177  1.0000 0.106974605
H   H61       1.0  0.66340  0.40740  0.51290  1.0000 0.1036511207
H   H62       1.0  0.59260  0.25600  0.84623  1.0000 0.1036511207
H   H63       1.0  0.74400  0.33660  0.17957  1.0000 0.1036511207
H   H64       1.0  0.33660  0.59260  0.01290  1.0000 0.1036511207
H   H65       1.0  0.40740  0.74400  0.34623  1.0000 0.1036511207
H   H66       1.0  0.25600  0.66340  0.67957  1.0000 0.1036511207
H   H67       1.0  0.40740  0.66340  0.82043  1.0000 0.1036511207
H   H68       1.0  0.25600  0.59260  0.48710  1.0000 0.1036511207
H   H69       1.0  0.33660  0.74400  0.15377  1.0000 0.1036511207
H   H70       1.0  0.59260  0.33660  0.32043  1.0000 0.1036511207
H   H71       1.0  0.74400  0.40740  0.98710  1.0000 0.1036511207
H   H72       1.0  0.66340  0.25600  0.65377  1.0000 0.1036511207
H   H73       1.0  0.28900  0.22120  0.67030  1.0000 0.0920078943
H   H74       1.0  0.77880  0.06780  0.00363  1.0000 0.0920078943
H   H75       1.0  0.93220  0.71100  0.33697  1.0000 0.0920078943
H   H76       1.0  0.71100  0.77880  0.17030  1.0000 0.0920078943
H   H77       1.0  0.22120  0.93220  0.50363  1.0000 0.0920078943
H   H78       1.0  0.06780  0.28900  0.83697  1.0000 0.0920078943
H   H79       1.0  0.22120  0.28900  0.66303  1.0000 0.0920078943
H   H80       1.0  0.06780  0.77880  0.32970  1.0000 0.0920078943
H   H81       1.0  0.71100  0.93220  0.99637  1.0000 0.0920078943
H   H82       1.0  0.77880  0.71100  0.16303  1.0000 0.0920078943
H   H83       1.0  0.93220  0.22120  0.82970  1.0000 0.0920078943
H   H84       1.0  0.28900  0.06780  0.49637  1.0000 0.0920078943
H   H85       1.0  0.27670  0.24960  0.61030  1.0000 0.106974605
H   H86       1.0  0.75040  0.02710  0.94363  1.0000 0.106974605
H   H87       1.0  0.97290  0.72330  0.27697  1.0000 0.106974605
H   H88       1.0  0.72330  0.75040  0.11030  1.0000 0.106974605
H   H89       1.0  0.24960  0.97290  0.44363  1.0000 0.106974605
H   H90       1.0  0.02710  0.27670  0.77697  1.0000 0.106974605
H   H91       1.0  0.24960  0.27670  0.72303  1.0000 0.106974605
H   H92       1.0  0.02710  0.75040  0.38970  1.0000 0.106974605
H   H93       1.0  0.72330  0.97290  0.05637  1.0000 0.106974605
H   H94       1.0  0.75040  0.72330  0.22303  1.0000 0.106974605
H   H95       1.0  0.97290  0.24960  0.88970  1.0000 0.106974605
H   H96       1.0  0.27670  0.02710  0.55637  1.0000 0.106974605
H   H97       1.0  0.45300  0.36720  0.70320  1.0000 0.1036511207
H   H98       1.0  0.63280  0.08580  0.03653  1.0000 0.1036511207
H   H99       1.0  0.91420  0.54700  0.36987  1.0000 0.1036511207
H   H100      1.0  0.54700  0.63280  0.20320  1.0000 0.1036511207
H   H101      1.0  0.36720  0.91420  0.53653  1.0000 0.1036511207
H   H102      1.0  0.08580  0.45300  0.86987  1.0000 0.1036511207
H   H103      1.0  0.36720  0.45300  0.63013  1.0000 0.1036511207
H   H104      1.0  0.08580  0.63280  0.29680  1.0000 0.1036511207
H   H105      1.0  0.54700  0.91420  0.96347  1.0000 0.1036511207
H   H106      1.0  0.63280  0.54700  0.13013  1.0000 0.1036511207
H   H107      1.0  0.91420  0.36720  0.79680  1.0000 0.1036511207
H   H108      1.0  0.45300  0.08580  0.46347  1.0000 0.1036511207
H   H109      1.0  0.38950  0.30180  0.73180  1.0000 0.106974605
H   H110      1.0  0.69820  0.08770  0.06513  1.0000 0.106974605
H   H111      1.0  0.91230  0.61050  0.39847  1.0000 0.106974605
H   H112      1.0  0.61050  0.69820  0.23180  1.0000 0.106974605
H   H113      1.0  0.30180  0.91230  0.56513  1.0000 0.106974605
H   H114      1.0  0.08770  0.38950  0.89847  1.0000 0.106974605
H   H115      1.0  0.30180  0.38950  0.60153  1.0000 0.106974605
H   H116      1.0  0.08770  0.69820  0.26820  1.0000 0.106974605
H   H117      1.0  0.61050  0.91230  0.93487  1.0000 0.106974605
H   H118      1.0  0.69820  0.61050  0.10153  1.0000 0.106974605
H   H119      1.0  0.91230  0.30180  0.76820  1.0000 0.106974605
H   H120      1.0  0.38950  0.08770  0.43487  1.0000 0.106974605
H   H121      1.0  0.37550  0.35880  0.56490  1.0000 0.106974605
H   H122      1.0  0.64120  0.01670  0.89823  1.0000 0.106974605
H   H123      1.0  0.98330  0.62450  0.23157  1.0000 0.106974605
H   H124      1.0  0.62450  0.64120  0.06490  1.0000 0.106974605
H   H125      1.0  0.35880  0.98330  0.39823  1.0000 0.106974605
H   H126      1.0  0.01670  0.37550  0.73157  1.0000 0.106974605
H   H127      1.0  0.35880  0.37550  0.76843  1.0000 0.106974605
H   H128      1.0  0.01670  0.64120  0.43510  1.0000 0.106974605
H   H129      1.0  0.62450  0.98330  0.10177  1.0000 0.106974605
H   H130      1.0  0.64120  0.62450  0.26843  1.0000 0.106974605
H   H131      1.0  0.98330  0.35880  0.93510  1.0000 0.106974605
H   H132      1.0  0.37550  0.01670  0.60177  1.0000 0.106974605
H   H133      1.0  0.43530  0.40930  0.60790  1.0000 0.106974605
H   H134      1.0  0.59070  0.02600  0.94123  1.0000 0.1036511207
H   H135      1.0  0.97400  0.56470  0.27457  1.0000 0.106974605
H   H136      1.0  0.56470  0.59070  0.10790  1.0000 0.1036511207
H   H137      1.0  0.40930  0.97400  0.44123  1.0000 0.1036511207
H   H138      1.0  0.02600  0.43530  0.77457  1.0000 0.1036511207
H   H139      1.0  0.40930  0.43530  0.72543  1.0000 0.1036511207
H   H140      1.0  0.02600  0.59070  0.39210  1.0000 0.1036511207
H   H141      1.0  0.56470  0.97400  0.05877  1.0000 0.106974605
H   H142      1.0  0.59070  0.56470  0.22543  1.0000 0.106974605
H   H143      1.0  0.97400  0.40930  0.89210  1.0000 0.106974605
H   H144      1.0  0.43530  0.02600  0.55877  1.0000 0.106974605
H   H145      1.0  0.90430  0.97280  0.28710  1.0000 0.118647148
H   H146      1.0  0.02720  0.93150  0.62043  1.0000 0.118647148
H   H147      1.0  0.06850  0.09570  0.95377  1.0000 0.118647148
H   H148      1.0  0.09570  0.02720  0.78710  1.0000 0.118647148
H   H149      1.0  0.97280  0.06850  0.12043  1.0000 0.118647148
H   H150      1.0  0.93150  0.90430  0.45377  1.0000 0.118647148
H   H151      1.0  0.97280  0.90430  0.04623  1.0000 0.118647148
H   H152      1.0  0.93150  0.02720  0.71290  1.0000 0.106974605
H   H153      1.0  0.09570  0.06850  0.37957  1.0000 0.118647148
H   H154      1.0  0.02720  0.09570  0.54623  1.0000 0.118647148
H   H155      1.0  0.06850  0.97280  0.21290  1.0000 0.118647148
H   H156      1.0  0.90430  0.93150  0.87957  1.0000 0.118647148
H   H157      1.0  0.01770  0.03540  0.25000  1.0000 0.118647148
H   H158      1.0  0.96460  0.98230  0.58333  1.0000 0.118647148
H   H159      1.0  0.01770  0.98230  0.91667  1.0000 0.118647148
H   H160      1.0  0.98230  0.96460  0.75000  1.0000 0.118647148
H   H161      1.0  0.03540  0.01770  0.08333  1.0000 0.118647148
H   H162      1.0  0.98230  0.01770  0.41667  1.0000 0.118647148
H   H163      1.0  0.89750  0.79500  0.25000  1.0000 0.1294103066
H   H164      1.0  0.20500  0.10250  0.58333  1.0000 0.1294103066
H   H165      1.0  0.89750  0.10250  0.91667  1.0000 0.1294103066
H   H166      1.0  0.10250  0.20500  0.75000  1.0000 0.1294103066
H   H167      1.0  0.79500  0.89750  0.08333  1.0000 0.1294103066
H   H168      1.0  0.10250  0.89750  0.41667  1.0000 0.1294103066
H   H169      1.0  0.63150  0.82570  0.30000  1.0000 0.106974605
H   H170      1.0  0.17430  0.80580  0.63333  1.0000 0.106974605
H   H171      1.0  0.19420  0.36850  0.96667  1.0000 0.106974605
H   H172      1.0  0.36850  0.17430  0.80000  1.0000 0.106974605
H   H173      1.0  0.82570  0.19420  0.13333  1.0000 0.106974605
H   H174      1.0  0.80580  0.63150  0.46667  1.0000 0.106974605
H   H175      1.0  0.82570  0.63150  0.03333  1.0000 0.106974605
H   H176      1.0  0.80580  0.17430  0.70000  1.0000 0.106974605
H   H177      1.0  0.36850  0.19420  0.36667  1.0000 0.106974605
H   H178      1.0  0.17430  0.36850  0.53333  1.0000 0.106974605
H   H179      1.0  0.19420  0.82570  0.20000  1.0000 0.106974605
H   H180      1.0  0.63150  0.80580  0.86667  1.0000 0.106974605
H   H181      1.0  0.55310  0.74460  0.36950  1.0000 0.106974605
H   H182      1.0  0.25540  0.80850  0.70283  1.0000 0.106974605
H   H183      1.0  0.19150  0.44690  0.03617  1.0000 0.106974605
H   H184      1.0  0.44690  0.25540  0.86950  1.0000 0.106974605
H   H185      1.0  0.74460  0.19150  0.20283  1.0000 0.106974605
H   H186      1.0  0.80850  0.55310  0.53617  1.0000 0.106974605
H   H187      1.0  0.74460  0.55310  0.96383  1.0000 0.106974605
H   H188      1.0  0.80850  0.25540  0.63050  1.0000 0.106974605
H   H189      1.0  0.44690  0.19150  0.29717  1.0000 0.106974605
H   H190      1.0  0.25540  0.44690  0.46383  1.0000 0.106974605
H   H191      1.0  0.19150  0.74460  0.13050  1.0000 0.106974605
H   H192      1.0  0.55310  0.80850  0.79717  1.0000 0.106974605
H   H193      1.0  0.59090  0.68680  0.43060  1.0000 0.106974605
H   H194      1.0  0.31320  0.90410  0.76393  1.0000 0.106974605
H   H195      1.0  0.09590  0.40910  0.09727  1.0000 0.106974605
H   H196      1.0  0.40910  0.31320  0.93060  1.0000 0.106974605
H   H197      1.0  0.68680  0.09590  0.26393  1.0000 0.106974605
H   H198      1.0  0.90410  0.59090  0.59727  1.0000 0.106974605
H   H199      1.0  0.68680  0.59090  0.90273  1.0000 0.106974605
H   H200      1.0  0.90410  0.31320  0.56940  1.0000 0.106974605
H   H201      1.0  0.40910  0.09590  0.23607  1.0000 0.106974605
H   H202      1.0  0.31320  0.40910  0.40273  1.0000 0.106974605
H   H203      1.0  0.09590  0.68680  0.06940  1.0000 0.106974605
H   H204      1.0  0.59090  0.90410  0.73607  1.0000 0.106974605
H   H205      1.0  0.70040  0.69830  0.42280  1.0000 0.1294103066
H   H206      1.0  0.30170  0.00210  0.75613  1.0000 0.1294103066
H   H207      1.0  0.99790  0.29960  0.08947  1.0000 0.1294103066
H   H208      1.0  0.29960  0.30170  0.92280  1.0000 0.1294103066
H   H209      1.0  0.69830  0.99790  0.25613  1.0000 0.1294103066
H   H210      1.0  0.00210  0.70040  0.58947  1.0000 0.1294103066
H   H211      1.0  0.69830  0.70040  0.91053  1.0000 0.1294103066
H   H212      1.0  0.00210  0.30170  0.57720  1.0000 0.1294103066
H   H213      1.0  0.29960  0.99790  0.24387  1.0000 0.1294103066
H   H214      1.0  0.30170  0.29960  0.41053  1.0000 0.1294103066
H   H215      1.0  0.99790  0.69830  0.07720  1.0000 0.1294103066
H   H216      1.0  0.70040  0.00210  0.74387  1.0000 0.1294103066
C   C1        1.0  0.57020  0.29950  0.40810  1.0000 -0.1022452176
C   C2        1.0  0.70050  0.27070  0.74143  1.0000 -0.1022452176
C   C3        1.0  0.72930  0.42980  0.07477  1.0000 -0.1022452176
C   C4        1.0  0.42980  0.70050  0.90810  1.0000 -0.1022452176
C   C5        1.0  0.29950  0.72930  0.24143  1.0000 -0.1022452176
C   C6        1.0  0.27070  0.57020  0.57477  1.0000 -0.1022452176
C   C7        1.0  0.29950  0.57020  0.92523  1.0000 -0.1022452176
C   C8        1.0  0.27070  0.70050  0.59190  1.0000 -0.1022452176
C   C9        1.0  0.42980  0.72930  0.25857  1.0000 -0.1022452176
C   C10       1.0  0.70050  0.42980  0.42523  1.0000 -0.1022452176
C   C11       1.0  0.72930  0.29950  0.09190  1.0000 -0.1022452176
C   C12       1.0  0.57020  0.27070  0.75857  1.0000 -0.1022452176
C   C13       1.0  0.56290  0.39530  0.44420  1.0000 -0.1022452176
C   C14       1.0  0.60470  0.16760  0.77753  1.0000 -0.1022452176
C   C15       1.0  0.83240  0.43710  0.11087  1.0000 -0.1022452176
C   C16       1.0  0.43710  0.60470  0.94420  1.0000 -0.1022452176
C   C17       1.0  0.39530  0.83240  0.27753  1.0000 -0.1022452176
C   C18       1.0  0.16760  0.56290  0.61087  1.0000 -0.1022452176
C   C19       1.0  0.39530  0.56290  0.88913  1.0000 -0.1022452176
C   C20       1.0  0.16760  0.60470  0.55580  1.0000 -0.1022452176
C   C21       1.0  0.43710  0.83240  0.22247  1.0000 -0.1022452176
C   C22       1.0  0.60470  0.43710  0.38913  1.0000 -0.1022452176
C   C23       1.0  0.83240  0.39530  0.05580  1.0000 -0.1022452176
C   C24       1.0  0.56290  0.16760  0.72247  1.0000 -0.1022452176
C   C25       1.0  0.65670  0.38050  0.47700  1.0000 -0.1022452176
C   C26       1.0  0.61950  0.27620  0.81033  1.0000 -0.1022452176
C   C27       1.0  0.72380  0.34330  0.14367  1.0000 -0.1022452176
C   C28       1.0  0.34330  0.61950  0.97700  1.0000 -0.1022452176
C   C29       1.0  0.38050  0.72380  0.31033  1.0000 -0.1022452176
C   C30       1.0  0.27620  0.65670  0.64367  1.0000 -0.1022452176
C   C31       1.0  0.38050  0.65670  0.85633  1.0000 -0.1022452176
C   C32       1.0  0.27620  0.61950  0.52300  1.0000 -0.1022452176
C   C33       1.0  0.34330  0.72380  0.18967  1.0000 -0.1022452176
C   C34       1.0  0.61950  0.34330  0.35633  1.0000 -0.1022452176
C   C35       1.0  0.72380  0.38050  0.02300  1.0000 -0.1022452176
C   C36       1.0  0.65670  0.27620  0.68967  1.0000 -0.1022452176
C   C37       1.0  0.29730  0.26290  0.64960  1.0000 -0.1181221884
C   C38       1.0  0.73710  0.03440  0.98293  1.0000 -0.1181221884
C   C39       1.0  0.96560  0.70270  0.31627  1.0000 -0.1181221884
C   C40       1.0  0.70270  0.73710  0.14960  1.0000 -0.1181221884
C   C41       1.0  0.26290  0.96560  0.48293  1.0000 -0.1181221884
C   C42       1.0  0.03440  0.29730  0.81627  1.0000 -0.1181221884
C   C43       1.0  0.26290  0.29730  0.68373  1.0000 -0.1181221884
C   C44       1.0  0.03440  0.73710  0.35040  1.0000 -0.1181221884
C   C45       1.0  0.70270  0.96560  0.01707  1.0000 -0.1181221884
C   C46       1.0  0.73710  0.70270  0.18373  1.0000 -0.1181221884
C   C47       1.0  0.96560  0.26290  0.85040  1.0000 -0.1181221884
C   C48       1.0  0.29730  0.03440  0.51707  1.0000 -0.1181221884
C   C49       1.0  0.40270  0.34020  0.70440  1.0000 -0.1022452176
C   C50       1.0  0.65980  0.06250  0.03773  1.0000 -0.1022452176
C   C51       1.0  0.93750  0.59730  0.37107  1.0000 -0.1022452176
C   C52       1.0  0.59730  0.65980  0.20440  1.0000 -0.1022452176
C   C53       1.0  0.34020  0.93750  0.53773  1.0000 -0.1022452176
C   C54       1.0  0.06250  0.40270  0.87107  1.0000 -0.1022452176
C   C55       1.0  0.34020  0.40270  0.62893  1.0000 -0.1022452176
C   C56       1.0  0.06250  0.65980  0.29560  1.0000 -0.1022452176
C   C57       1.0  0.59730  0.93750  0.96227  1.0000 -0.1022452176
C   C58       1.0  0.65980  0.59730  0.12893  1.0000 -0.1022452176
C   C59       1.0  0.93750  0.34020  0.79560  1.0000 -0.1022452176
C   C60       1.0  0.40270  0.06250  0.46227  1.0000 -0.1022452176
C   C61       1.0  0.38690  0.37330  0.60600  1.0000 -0.1022452176
C   C62       1.0  0.62670  0.01360  0.93933  1.0000 -0.1022452176
C   C63       1.0  0.98640  0.61310  0.27267  1.0000 -0.1022452176
C   C64       1.0  0.61310  0.62670  0.10600  1.0000 -0.1022452176
C   C65       1.0  0.37330  0.98640  0.43933  1.0000 -0.1022452176
C   C66       1.0  0.01360  0.38690  0.77267  1.0000 -0.1022452176
C   C67       1.0  0.37330  0.38690  0.72733  1.0000 -0.1022452176
C   C68       1.0  0.01360  0.62670  0.39400  1.0000 -0.1022452176
C   C69       1.0  0.61310  0.98640  0.06067  1.0000 -0.1022452176
C   C70       1.0  0.62670  0.61310  0.22733  1.0000 -0.1022452176
C   C71       1.0  0.98640  0.37330  0.89400  1.0000 -0.1022452176
C   C72       1.0  0.38690  0.01360  0.56067  1.0000 -0.1022452176
C   C73       1.0  0.88890  0.87500  0.27360  1.0000 0.0190318813
C   C74       1.0  0.12500  0.01390  0.60693  1.0000 0.0190318813
C   C75       1.0  0.98610  0.11110  0.94027  1.0000 0.0190318813
C   C76       1.0  0.11110  0.12500  0.77360  1.0000 0.0190318813
C   C77       1.0  0.87500  0.98610  0.10693  1.0000 0.0190318813
C   C78       1.0  0.01390  0.88890  0.44027  1.0000 0.0190318813
C   C79       1.0  0.87500  0.88890  0.05973  1.0000 0.0190318813
C   C80       1.0  0.01390  0.12500  0.72640  1.0000 0.0190318813
C   C81       1.0  0.11110  0.98610  0.39307  1.0000 0.0190318813
C   C82       1.0  0.12500  0.11110  0.55973  1.0000 0.0190318813
C   C83       1.0  0.98610  0.87500  0.22640  1.0000 0.0190318813
C   C84       1.0  0.88890  0.01390  0.89307  1.0000 0.0190318813
C   C85       1.0  0.92570  0.94910  0.27250  1.0000 -0.1473496434
C   C86       1.0  0.05090  0.97660  0.60583  1.0000 -0.1473496434
C   C87       1.0  0.02340  0.07430  0.93917  1.0000 -0.1473496434
C   C88       1.0  0.07430  0.05090  0.77250  1.0000 -0.1473496434
C   C89       1.0  0.94910  0.02340  0.10583  1.0000 -0.1473496434
C   C90       1.0  0.97660  0.92570  0.43917  1.0000 -0.1473496434
C   C91       1.0  0.94910  0.92570  0.06083  1.0000 -0.1473496434
C   C92       1.0  0.97660  0.05090  0.72750  1.0000 -0.1473496434
C   C93       1.0  0.07430  0.02340  0.39417  1.0000 -0.1473496434
C   C94       1.0  0.05090  0.07430  0.56083  1.0000 -0.1473496434
C   C95       1.0  0.02340  0.94910  0.22750  1.0000 -0.1473496434
C   C96       1.0  0.92570  0.97660  0.89417  1.0000 -0.1473496434
C   C97       1.0  0.99350  0.98700  0.25000  1.0000 -0.084199966
C   C98       1.0  0.01300  0.00650  0.58333  1.0000 -0.084199966
C   C99       1.0  0.99350  0.00650  0.91667  1.0000 -0.084199966
C   C100      1.0  0.00650  0.01300  0.75000  1.0000 -0.084199966
C   C101      1.0  0.98700  0.99350  0.08333  1.0000 -0.084199966
C   C102      1.0  0.00650  0.99350  0.41667  1.0000 -0.084199966
C   C103      1.0  0.92165  0.84330  0.25000  1.0000 -0.1473496434
C   C104      1.0  0.15670  0.07835  0.58333  1.0000 -0.1473496434
C   C105      1.0  0.92165  0.07835  0.91667  1.0000 -0.1473496434
C   C106      1.0  0.07835  0.15670  0.75000  1.0000 -0.1473496434
C   C107      1.0  0.84330  0.92165  0.08333  1.0000 -0.1473496434
C   C108      1.0  0.07835  0.92165  0.41667  1.0000 -0.1473496434
C   C109      1.0  0.81760  0.83900  0.29970  1.0000 0.29803044
C   C110      1.0  0.16100  0.97860  0.63303  1.0000 0.29803044
C   C111      1.0  0.02140  0.18240  0.96637  1.0000 0.29803044
C   C112      1.0  0.18240  0.16100  0.79970  1.0000 0.29803044
C   C113      1.0  0.83900  0.02140  0.13303  1.0000 0.29803044
C   C114      1.0  0.97860  0.81760  0.46637  1.0000 0.29803044
C   C115      1.0  0.83900  0.81760  0.03363  1.0000 0.29803044
C   C116      1.0  0.97860  0.16100  0.70030  1.0000 0.29803044
C   C117      1.0  0.18240  0.02140  0.36697  1.0000 0.29803044
C   C118      1.0  0.16100  0.18240  0.53363  1.0000 0.29803044
C   C119      1.0  0.02140  0.83900  0.20030  1.0000 0.29803044
C   C120      1.0  0.81760  0.97860  0.86697  1.0000 0.29803044
C   C121      1.0  0.73230  0.77270  0.35620  1.0000 0.118647148
C   C122      1.0  0.22730  0.95960  0.68953  1.0000 0.118647148
C   C123      1.0  0.04040  0.26770  0.02287  1.0000 0.118647148
C   C124      1.0  0.26770  0.22730  0.85620  1.0000 0.118647148
C   C125      1.0  0.77270  0.04040  0.18953  1.0000 0.118647148
C   C126      1.0  0.95960  0.73230  0.52287  1.0000 0.118647148
C   C127      1.0  0.77270  0.73230  0.97713  1.0000 0.118647148
C   C128      1.0  0.95960  0.22730  0.64380  1.0000 0.118647148
C   C129      1.0  0.26770  0.04040  0.31047  1.0000 0.118647148
C   C130      1.0  0.22730  0.26770  0.47713  1.0000 0.118647148
C   C131      1.0  0.04040  0.77270  0.14380  1.0000 0.118647148
C   C132      1.0  0.73230  0.95960  0.81047  1.0000 0.118647148
C   C133      1.0  0.71200  0.80820  0.31940  1.0000 0.118647148
C   C134      1.0  0.19180  0.90380  0.65273  1.0000 0.118647148
C   C135      1.0  0.09620  0.28800  0.98607  1.0000 0.118647148
C   C136      1.0  0.28800  0.19180  0.81940  1.0000 0.118647148
C   C137      1.0  0.80820  0.09620  0.15273  1.0000 0.118647148
C   C138      1.0  0.90380  0.71200  0.48607  1.0000 0.118647148
C   C139      1.0  0.80820  0.71200  0.01393  1.0000 0.118647148
C   C140      1.0  0.90380  0.19180  0.68060  1.0000 0.118647148
C   C141      1.0  0.28800  0.09620  0.34727  1.0000 0.118647148
C   C142      1.0  0.19180  0.28800  0.51393  1.0000 0.118647148
C   C143      1.0  0.09620  0.80820  0.18060  1.0000 0.118647148
C   C144      1.0  0.71200  0.90380  0.84727  1.0000 0.118647148
C   C145      1.0  0.64460  0.80010  0.32410  1.0000 -0.1790446649
C   C146      1.0  0.19990  0.84450  0.65743  1.0000 -0.1790446649
C   C147      1.0  0.15550  0.35540  0.99077  1.0000 -0.1790446649
C   C148      1.0  0.35540  0.19990  0.82410  1.0000 -0.1790446649
C   C149      1.0  0.80010  0.15550  0.15743  1.0000 -0.1790446649
C   C150      1.0  0.84450  0.64460  0.49077  1.0000 -0.1790446649
C   C151      1.0  0.80010  0.64460  0.00923  1.0000 -0.1790446649
C   C152      1.0  0.84450  0.19990  0.67590  1.0000 -0.1790446649
C   C153      1.0  0.35540  0.15550  0.34257  1.0000 -0.1790446649
C   C154      1.0  0.19990  0.35540  0.50923  1.0000 -0.1790446649
C   C155      1.0  0.15550  0.80010  0.17590  1.0000 -0.1790446649
C   C156      1.0  0.64460  0.84450  0.84257  1.0000 -0.1790446649
C   C157      1.0  0.59810  0.75240  0.36600  1.0000 -0.1181221884
C   C158      1.0  0.24760  0.84570  0.69933  1.0000 -0.1181221884
C   C159      1.0  0.15430  0.40190  0.03267  1.0000 -0.1181221884
C   C160      1.0  0.40190  0.24760  0.86600  1.0000 -0.1181221884
C   C161      1.0  0.75240  0.15430  0.19933  1.0000 -0.1181221884
C   C162      1.0  0.84570  0.59810  0.53267  1.0000 -0.1181221884
C   C163      1.0  0.75240  0.59810  0.96733  1.0000 -0.1181221884
C   C164      1.0  0.84570  0.24760  0.63400  1.0000 -0.1181221884
C   C165      1.0  0.40190  0.15430  0.30067  1.0000 -0.1181221884
C   C166      1.0  0.24760  0.40190  0.46733  1.0000 -0.1181221884
C   C167      1.0  0.15430  0.75240  0.13400  1.0000 -0.1181221884
C   C168      1.0  0.59810  0.84570  0.80067  1.0000 -0.1181221884
C   C169      1.0  0.62150  0.71700  0.40220  1.0000 -0.1103233705
C   C170      1.0  0.28300  0.90450  0.73553  1.0000 -0.1103233705
C   C171      1.0  0.09550  0.37850  0.06887  1.0000 -0.1103233705
C   C172      1.0  0.37850  0.28300  0.90220  1.0000 -0.1103233705
C   C173      1.0  0.71700  0.09550  0.23553  1.0000 -0.1103233705
C   C174      1.0  0.90450  0.62150  0.56887  1.0000 -0.1103233705
C   C175      1.0  0.71700  0.62150  0.93113  1.0000 -0.1103233705
C   C176      1.0  0.90450  0.28300  0.59780  1.0000 -0.1103233705
C   C177      1.0  0.37850  0.09550  0.26447  1.0000 -0.1103233705
C   C178      1.0  0.28300  0.37850  0.43113  1.0000 -0.1103233705
C   C179      1.0  0.09550  0.71700  0.09780  1.0000 -0.1103233705
C   C180      1.0  0.62150  0.90450  0.76447  1.0000 -0.1103233705
C   C181      1.0  0.68710  0.72390  0.39890  1.0000 -0.1738475558
C   C182      1.0  0.27610  0.96320  0.73223  1.0000 -0.1738475558
C   C183      1.0  0.03680  0.31290  0.06557  1.0000 -0.1738475558
C   C184      1.0  0.31290  0.27610  0.89890  1.0000 -0.1738475558
C   C185      1.0  0.72390  0.03680  0.23223  1.0000 -0.1738475558
C   C186      1.0  0.96320  0.68710  0.56557  1.0000 -0.1738475558
C   C187      1.0  0.72390  0.68710  0.93443  1.0000 -0.1738475558
C   C188      1.0  0.96320  0.27610  0.60110  1.0000 -0.1738475558
C   C189      1.0  0.31290  0.03680  0.26777  1.0000 -0.1738475558
C   C190      1.0  0.27610  0.31290  0.43443  1.0000 -0.1738475558
C   C191      1.0  0.03680  0.72390  0.10110  1.0000 -0.1738475558
C   C192      1.0  0.68710  0.96320  0.76777  1.0000 -0.1738475558
I   I1        1.0  0.39077  0.23829  0.49576  1.0000 -0.3745315019
I   I2        1.0  0.76171  0.15248  0.82909  1.0000 -0.3761047353
I   I3        1.0  0.84752  0.60923  0.16243  1.0000 -0.3745315019
I   I4        1.0  0.60923  0.76171  0.99576  1.0000 -0.3745315019
I   I5        1.0  0.23829  0.84752  0.32909  1.0000 -0.3745315019
I   I6        1.0  0.15248  0.39077  0.66243  1.0000 -0.3745315019
I   I7        1.0  0.23829  0.39077  0.83757  1.0000 -0.3745315019
I   I8        1.0  0.15248  0.76171  0.50424  1.0000 -0.3761047353
I   I9        1.0  0.60923  0.84752  0.17091  1.0000 -0.3745315019
I   I10       1.0  0.76171  0.60923  0.33757  1.0000 -0.3745315019
I   I11       1.0  0.84752  0.23829  0.00424  1.0000 -0.3761047353
I   I12       1.0  0.39077  0.15248  0.67091  1.0000 -0.3745315019
I   I13       1.0  0.56337  0.37383  0.62163  1.0000 -0.3761047353
I   I14       1.0  0.62617  0.18954  0.95496  1.0000 -0.3761047353
I   I15       1.0  0.81046  0.43663  0.28830  1.0000 -0.3761047353
I   I16       1.0  0.43663  0.62617  0.12163  1.0000 -0.3761047353
I   I17       1.0  0.37383  0.81046  0.45496  1.0000 -0.3761047353
I   I18       1.0  0.18954  0.56337  0.78830  1.0000 -0.3761047353
I   I19       1.0  0.37383  0.56337  0.71170  1.0000 -0.3761047353
I   I20       1.0  0.18954  0.62617  0.37837  1.0000 -0.3761047353
I   I21       1.0  0.43663  0.81046  0.04504  1.0000 -0.3761047353
I   I22       1.0  0.62617  0.43663  0.21170  1.0000 -0.3761047353
I   I23       1.0  0.81046  0.37383  0.87837  1.0000 -0.3761047353
I   I24       1.0  0.56337  0.18954  0.54504  1.0000 -0.3761047353
N   N1        1.0  0.58190  0.34340  0.46010  1.0000 -0.0558558448
N   N2        1.0  0.65660  0.23850  0.79343  1.0000 -0.0558558448
N   N3        1.0  0.76150  0.41810  0.12677  1.0000 -0.0558558448
N   N4        1.0  0.41810  0.65660  0.96010  1.0000 -0.0558558448
N   N5        1.0  0.34340  0.76150  0.29343  1.0000 -0.0558558448
N   N6        1.0  0.23850  0.58190  0.62677  1.0000 -0.0558558448
N   N7        1.0  0.34340  0.58190  0.87323  1.0000 -0.0558558448
N   N8        1.0  0.23850  0.65660  0.53990  1.0000 -0.0558558448
N   N9        1.0  0.41810  0.76150  0.20657  1.0000 -0.0558558448
N   N10       1.0  0.65660  0.41810  0.37323  1.0000 -0.0558558448
N   N11       1.0  0.76150  0.34340  0.03990  1.0000 -0.0558558448
N   N12       1.0  0.58190  0.23850  0.70657  1.0000 -0.0558558448
N   N13       1.0  0.37560  0.31210  0.64360  1.0000 -0.0336297245
N   N14       1.0  0.68790  0.06350  0.97693  1.0000 -0.0336297245
N   N15       1.0  0.93650  0.62440  0.31027  1.0000 -0.0336297245
N   N16       1.0  0.62440  0.68790  0.14360  1.0000 -0.0336297245
N   N17       1.0  0.31210  0.93650  0.47693  1.0000 -0.0336297245
N   N18       1.0  0.06350  0.37560  0.81027  1.0000 -0.0336297245
N   N19       1.0  0.31210  0.37560  0.68973  1.0000 -0.0336297245
N   N20       1.0  0.06350  0.68790  0.35640  1.0000 -0.0336297245
N   N21       1.0  0.62440  0.93650  0.02307  1.0000 -0.0336297245
N   N22       1.0  0.68790  0.62440  0.18973  1.0000 -0.0336297245
N   N23       1.0  0.93650  0.31210  0.85640  1.0000 -0.0336297245
N   N24       1.0  0.37560  0.06350  0.52307  1.0000 -0.0336297245
N   N25       1.0  0.80110  0.79270  0.34330  1.0000 -0.3622674654
N   N26       1.0  0.20730  0.00840  0.67663  1.0000 -0.3622674654
N   N27       1.0  0.99160  0.19890  0.00997  1.0000 -0.3622674654
N   N28       1.0  0.19890  0.20730  0.84330  1.0000 -0.3622674654
N   N29       1.0  0.79270  0.99160  0.17663  1.0000 -0.3622674654
N   N30       1.0  0.00840  0.80110  0.50997  1.0000 -0.3622674654
N   N31       1.0  0.79270  0.80110  0.99003  1.0000 -0.3622674654
N   N32       1.0  0.00840  0.20730  0.65670  1.0000 -0.3622674654
N   N33       1.0  0.19890  0.99160  0.32337  1.0000 -0.3622674654
N   N34       1.0  0.20730  0.19890  0.49003  1.0000 -0.3622674654
N   N35       1.0  0.99160  0.79270  0.15670  1.0000 -0.3622674654
N   N36       1.0  0.80110  0.00840  0.82337  1.0000 -0.3622674654
N   N37       1.0  0.76780  0.85040  0.28340  1.0000 -0.3530396084
N   N38       1.0  0.14960  0.91740  0.61673  1.0000 -0.3530396084
N   N39       1.0  0.08260  0.23220  0.95007  1.0000 -0.3530396084
N   N40       1.0  0.23220  0.14960  0.78340  1.0000 -0.3530396084
N   N41       1.0  0.85040  0.08260  0.11673  1.0000 -0.3530396084
N   N42       1.0  0.91740  0.76780  0.45007  1.0000 -0.3530396084
N   N43       1.0  0.85040  0.76780  0.04993  1.0000 -0.3530396084
N   N44       1.0  0.91740  0.14960  0.71660  1.0000 -0.3530396084
N   N45       1.0  0.23220  0.08260  0.38327  1.0000 -0.3530396084
N   N46       1.0  0.14960  0.23220  0.54993  1.0000 -0.3530396084
N   N47       1.0  0.08260  0.85040  0.21660  1.0000 -0.3530396084
N   N48       1.0  0.76780  0.91740  0.88327  1.0000 -0.3530396084
