# DDEC6 charges by PACMAN v1.1 (https://github.com/mtap-research/PACMAN-charge/)
data_2016[V][bpq]3[ASR]2
_chemical_formula_sum              "V4 H16 C32 O20"
_cell_length_a       6.798
_cell_length_b       13.285
_cell_length_c       16.457
_cell_angle_alpha    90
_cell_angle_beta     90
_cell_angle_gamma    90

_symmetry_space_group_name_H-M    "P 1"
_symmetry_Int_Tables_number       1

loop_
  _symmetry_equiv_pos_as_xyz
  'x, y, z'

loop_
  _atom_site_type_symbol
  _atom_site_label
  _atom_site_symmetry_multiplicity
  _atom_site_fract_x
  _atom_site_fract_y
  _atom_site_fract_z
  _atom_site_occupancy
  _atom_site_charge
V   V1        1.0  0.06409  0.73509  0.00142  1.0000 1.8080956754
V   V2        1.0  0.43591  0.26491  0.50142  1.0000 1.8080956754
V   V3        1.0  0.93591  0.23509  0.49858  1.0000 1.8080956754
V   V4        1.0  0.56409  0.76491  0.99858  1.0000 1.8080956754
H   H1        1.0  0.04930  0.50230  0.83110  1.0000 0.1309077064
H   H2        1.0  0.45070  0.49770  0.33110  1.0000 0.1309077064
H   H3        1.0  0.95070  0.00230  0.66890  1.0000 0.1309077064
H   H4        1.0  0.54930  0.99770  0.16890  1.0000 0.1309077064
H   H5        1.0  0.46440  0.53960  0.82480  1.0000 0.1309077064
H   H6        1.0  0.03560  0.46040  0.32480  1.0000 0.1309077064
H   H7        1.0  0.53560  0.03960  0.67520  1.0000 0.1309077064
H   H8        1.0  0.96440  0.96040  0.17520  1.0000 0.1309077064
H   H9        1.0  0.44440  0.43750  0.71220  1.0000 0.1309077064
H   H10       1.0  0.05560  0.56250  0.21220  1.0000 0.1309077064
H   H11       1.0  0.55560  0.93750  0.78780  1.0000 0.1309077064
H   H12       1.0  0.94440  0.06250  0.28780  1.0000 0.1309077064
H   H13       1.0  0.03090  0.39470  0.72020  1.0000 0.1309077064
H   H14       1.0  0.46910  0.60530  0.22020  1.0000 0.1309077064
H   H15       1.0  0.96910  0.89470  0.77980  1.0000 0.1309077064
H   H16       1.0  0.53090  0.10530  0.27980  1.0000 0.1309077064
C   C1        1.0  0.77470  0.60950  0.90450  1.0000 0.6191341695
C   C2        1.0  0.72530  0.39050  0.40450  1.0000 0.6191341695
C   C3        1.0  0.22530  0.10950  0.59550  1.0000 0.6191341695
C   C4        1.0  0.27470  0.89050  0.09550  1.0000 0.6191341695
C   C5        1.0  0.75920  0.53490  0.83650  1.0000 -0.0234009466
C   C6        1.0  0.74080  0.46510  0.33650  1.0000 -0.0234009466
C   C7        1.0  0.24080  0.03490  0.66350  1.0000 -0.0234009466
C   C8        1.0  0.25920  0.96510  0.16350  1.0000 -0.0234009466
C   C9        1.0  0.92860  0.48970  0.80650  1.0000 -0.1075229622
C   C10       1.0  0.57140  0.51030  0.30650  1.0000 -0.1075229622
C   C11       1.0  0.07140  0.98970  0.69350  1.0000 -0.1075229622
C   C12       1.0  0.42860  0.01030  0.19350  1.0000 -0.1075229622
C   C13       1.0  0.57840  0.51260  0.80240  1.0000 -0.1000790015
C   C14       1.0  0.92160  0.48740  0.30240  1.0000 -0.1000790015
C   C15       1.0  0.42160  0.01260  0.69760  1.0000 -0.1000790015
C   C16       1.0  0.07840  0.98740  0.19760  1.0000 -0.1000790015
C   C17       1.0  0.56620  0.45070  0.73560  1.0000 -0.1075229622
C   C18       1.0  0.93380  0.54930  0.23560  1.0000 -0.1075229622
C   C19       1.0  0.43380  0.95070  0.76440  1.0000 -0.1075229622
C   C20       1.0  0.06620  0.04930  0.26440  1.0000 -0.1075229622
C   C21       1.0  0.91770  0.42550  0.73990  1.0000 -0.1000790015
C   C22       1.0  0.58230  0.57450  0.23990  1.0000 -0.1000790015
C   C23       1.0  0.08230  0.92550  0.76010  1.0000 -0.1000790015
C   C24       1.0  0.41770  0.07450  0.26010  1.0000 -0.1000790015
C   C25       1.0  0.73700  0.40750  0.70260  1.0000 -0.0296822522
C   C26       1.0  0.76300  0.59250  0.20260  1.0000 -0.0296822522
C   C27       1.0  0.26300  0.90750  0.79740  1.0000 -0.0296822522
C   C28       1.0  0.23700  0.09250  0.29740  1.0000 -0.0296822522
C   C29       1.0  0.72580  0.34580  0.62740  1.0000 0.6191341695
C   C30       1.0  0.77420  0.65420  0.12740  1.0000 0.6191341695
C   C31       1.0  0.27420  0.84580  0.87260  1.0000 0.6191341695
C   C32       1.0  0.22580  0.15420  0.37260  1.0000 0.6191341695
O   O1        1.0  0.28370  0.68960  0.00960  1.0000 -0.7486397508
O   O2        1.0  0.21630  0.31040  0.50960  1.0000 -0.7486397508
O   O3        1.0  0.71630  0.18960  0.49040  1.0000 -0.7486397508
O   O4        1.0  0.78370  0.81040  0.99040  1.0000 -0.7486397508
O   O5        1.0  0.88340  0.31380  0.59850  1.0000 -0.5685668174
O   O6        1.0  0.61660  0.68620  0.09850  1.0000 -0.5685668174
O   O7        1.0  0.11660  0.81380  0.90150  1.0000 -0.5685668174
O   O8        1.0  0.38340  0.18620  0.40150  1.0000 -0.5685668174
O   O9        1.0  0.61460  0.64640  0.92940  1.0000 -0.5800624225
O   O10       1.0  0.88540  0.35360  0.42940  1.0000 -0.5800624225
O   O11       1.0  0.38540  0.14640  0.57060  1.0000 -0.5800624225
O   O12       1.0  0.11460  0.85360  0.07060  1.0000 -0.5800624225
O   O13       1.0  0.55660  0.33070  0.59820  1.0000 -0.6022193614
O   O14       1.0  0.94340  0.66930  0.09820  1.0000 -0.6022193614
O   O15       1.0  0.44340  0.83070  0.90180  1.0000 -0.6022193614
O   O16       1.0  0.05660  0.16930  0.40180  1.0000 -0.6022193614
O   O17       1.0  0.94420  0.63200  0.92980  1.0000 -0.6022193614
O   O18       1.0  0.55580  0.36800  0.42980  1.0000 -0.6022193614
O   O19       1.0  0.05580  0.13200  0.57020  1.0000 -0.6022193614
O   O20       1.0  0.44420  0.86800  0.07020  1.0000 -0.6022193614
