# DDEC6 charges by PACMAN v1.1 (https://github.com/mtap-research/PACMAN-charge/)
data_2016[Ni][sql]2[ASR]1
_chemical_formula_sum              "Ni8 H112 C160 N32 O32"
_cell_length_a       21.8157
_cell_length_b       21.8157
_cell_length_c       10.1652
_cell_angle_alpha    90
_cell_angle_beta     90
_cell_angle_gamma    90

_symmetry_space_group_name_H-M    "P 1"
_symmetry_Int_Tables_number       1

loop_
  _symmetry_equiv_pos_as_xyz
  'x, y, z'

loop_
  _atom_site_type_symbol
  _atom_site_label
  _atom_site_symmetry_multiplicity
  _atom_site_fract_x
  _atom_site_fract_y
  _atom_site_fract_z
  _atom_site_occupancy
  _atom_site_charge
Ni  Ni1       1.0  0.89248  0.72695  0.31116  1.0000 0.6992512883
Ni  Ni2       1.0  0.39248  0.22695  0.18884  1.0000 0.6992512883
Ni  Ni3       1.0  0.10752  0.27305  0.31116  1.0000 0.6992512883
Ni  Ni4       1.0  0.60752  0.77305  0.18884  1.0000 0.6992512883
Ni  Ni5       1.0  0.77305  0.39248  0.81116  1.0000 0.6992512883
Ni  Ni6       1.0  0.27305  0.89248  0.68884  1.0000 0.6992512883
Ni  Ni7       1.0  0.22695  0.60752  0.81116  1.0000 0.6992512883
Ni  Ni8       1.0  0.72695  0.10752  0.68884  1.0000 0.6992512883
H   H1        1.0  0.00310  0.77050  0.46760  1.0000 0.1117867253
H   H2        1.0  0.50310  0.27050  0.03240  1.0000 0.1117867253
H   H3        1.0  0.07410  0.84720  0.47480  1.0000 0.1393911085
H   H4        1.0  0.57410  0.34720  0.02520  1.0000 0.1393911085
H   H5        1.0  0.99720  0.92030  0.15710  1.0000 0.1393911085
H   H6        1.0  0.49720  0.42030  0.34290  1.0000 0.1393911085
H   H7        1.0  0.92630  0.84300  0.16140  1.0000 0.1117867253
H   H8        1.0  0.42630  0.34300  0.33860  1.0000 0.1117867253
H   H9        1.0  0.11750  0.94330  0.39000  1.0000 0.1117867253
H   H10       1.0  0.61750  0.44330  0.11000  1.0000 0.1117867253
H   H11       1.0  0.19100  0.98960  0.10660  1.0000 0.1117867253
H   H12       1.0  0.69100  0.48960  0.39340  1.0000 0.1117867253
H   H13       1.0  0.19250  0.12570  0.30320  1.0000 0.1393911085
H   H14       1.0  0.69250  0.62570  0.19680  1.0000 0.1393911085
H   H15       1.0  0.26900  0.19740  0.31020  1.0000 0.1212674646
H   H16       1.0  0.76900  0.69740  0.18980  1.0000 0.1212674646
H   H17       1.0  0.36800  0.10360  0.06540  1.0000 0.1212674646
H   H18       1.0  0.86800  0.60360  0.43460  1.0000 0.1212674646
H   H19       1.0  0.29420  0.02930  0.05040  1.0000 0.146367775
H   H20       1.0  0.79420  0.52930  0.44960  1.0000 0.146367775
H   H21       1.0  0.89910  0.71800  0.76700  1.0000 0.1212674646
H   H22       1.0  0.39910  0.21800  0.73300  1.0000 0.1212674646
H   H23       1.0  0.79270  0.81830  0.00290  1.0000 0.1117867253
H   H24       1.0  0.29270  0.31830  0.49710  1.0000 0.1117867253
H   H25       1.0  0.74470  0.86170  0.82260  1.0000 0.1212674646
H   H26       1.0  0.24470  0.36170  0.67740  1.0000 0.1212674646
H   H27       1.0  0.77530  0.83280  0.61260  1.0000 0.1117867253
H   H28       1.0  0.27530  0.33280  0.88740  1.0000 0.1117867253
H   H29       1.0  0.99690  0.22950  0.46760  1.0000 0.1117867253
H   H30       1.0  0.49690  0.72950  0.03240  1.0000 0.1117867253
H   H31       1.0  0.92590  0.15280  0.47480  1.0000 0.1393911085
H   H32       1.0  0.42590  0.65280  0.02520  1.0000 0.1393911085
H   H33       1.0  0.00280  0.07970  0.15710  1.0000 0.1393911085
H   H34       1.0  0.50280  0.57970  0.34290  1.0000 0.1393911085
H   H35       1.0  0.07370  0.15700  0.16140  1.0000 0.1117867253
H   H36       1.0  0.57370  0.65700  0.33860  1.0000 0.1117867253
H   H37       1.0  0.88250  0.05670  0.39000  1.0000 0.1117867253
H   H38       1.0  0.38250  0.55670  0.11000  1.0000 0.1117867253
H   H39       1.0  0.80900  0.01040  0.10660  1.0000 0.1117867253
H   H40       1.0  0.30900  0.51040  0.39340  1.0000 0.1117867253
H   H41       1.0  0.80750  0.87430  0.30320  1.0000 0.1393911085
H   H42       1.0  0.30750  0.37430  0.19680  1.0000 0.1393911085
H   H43       1.0  0.73100  0.80260  0.31020  1.0000 0.1212674646
H   H44       1.0  0.23100  0.30260  0.18980  1.0000 0.1212674646
H   H45       1.0  0.63200  0.89640  0.06540  1.0000 0.1212674646
H   H46       1.0  0.13200  0.39640  0.43460  1.0000 0.1212674646
H   H47       1.0  0.70580  0.97070  0.05040  1.0000 0.146367775
H   H48       1.0  0.20580  0.47070  0.44960  1.0000 0.146367775
H   H49       1.0  0.10090  0.28200  0.76700  1.0000 0.1212674646
H   H50       1.0  0.60090  0.78200  0.73300  1.0000 0.1212674646
H   H51       1.0  0.20730  0.18170  0.00290  1.0000 0.1117867253
H   H52       1.0  0.70730  0.68170  0.49710  1.0000 0.1117867253
H   H53       1.0  0.25530  0.13830  0.82260  1.0000 0.1212674646
H   H54       1.0  0.75530  0.63830  0.67740  1.0000 0.1212674646
H   H55       1.0  0.22470  0.16720  0.61260  1.0000 0.1117867253
H   H56       1.0  0.72470  0.66720  0.88740  1.0000 0.1117867253
H   H57       1.0  0.72950  0.50310  0.96760  1.0000 0.1117867253
H   H58       1.0  0.22950  0.00310  0.53240  1.0000 0.1117867253
H   H59       1.0  0.65280  0.57410  0.97480  1.0000 0.1393911085
H   H60       1.0  0.15280  0.07410  0.52520  1.0000 0.1393911085
H   H61       1.0  0.57970  0.49720  0.65710  1.0000 0.1393911085
H   H62       1.0  0.07970  0.99720  0.84290  1.0000 0.1393911085
H   H63       1.0  0.65700  0.42630  0.66140  1.0000 0.1117867253
H   H64       1.0  0.15700  0.92630  0.83860  1.0000 0.1117867253
H   H65       1.0  0.55670  0.61750  0.89000  1.0000 0.1117867253
H   H66       1.0  0.05670  0.11750  0.61000  1.0000 0.1117867253
H   H67       1.0  0.51040  0.69100  0.60660  1.0000 0.1117867253
H   H68       1.0  0.01040  0.19100  0.89340  1.0000 0.1117867253
H   H69       1.0  0.37430  0.69250  0.80320  1.0000 0.1393911085
H   H70       1.0  0.87430  0.19250  0.69680  1.0000 0.1393911085
H   H71       1.0  0.30260  0.76900  0.81020  1.0000 0.1212674646
H   H72       1.0  0.80260  0.26900  0.68980  1.0000 0.1212674646
H   H73       1.0  0.39640  0.86800  0.56540  1.0000 0.1212674646
H   H74       1.0  0.89640  0.36800  0.93460  1.0000 0.1212674646
H   H75       1.0  0.47070  0.79420  0.55040  1.0000 0.146367775
H   H76       1.0  0.97070  0.29420  0.94960  1.0000 0.146367775
H   H77       1.0  0.78200  0.39910  0.26700  1.0000 0.1212674646
H   H78       1.0  0.28200  0.89910  0.23300  1.0000 0.1212674646
H   H79       1.0  0.68170  0.29270  0.50290  1.0000 0.1117867253
H   H80       1.0  0.18170  0.79270  0.99710  1.0000 0.1117867253
H   H81       1.0  0.63830  0.24470  0.32260  1.0000 0.1212674646
H   H82       1.0  0.13830  0.74470  0.17740  1.0000 0.1212674646
H   H83       1.0  0.66720  0.27530  0.11260  1.0000 0.1117867253
H   H84       1.0  0.16720  0.77530  0.38740  1.0000 0.1117867253
H   H85       1.0  0.27050  0.49690  0.96760  1.0000 0.1117867253
H   H86       1.0  0.77050  0.99690  0.53240  1.0000 0.1117867253
H   H87       1.0  0.34720  0.42590  0.97480  1.0000 0.1393911085
H   H88       1.0  0.84720  0.92590  0.52520  1.0000 0.1393911085
H   H89       1.0  0.42030  0.50280  0.65710  1.0000 0.1393911085
H   H90       1.0  0.92030  0.00280  0.84290  1.0000 0.1393911085
H   H91       1.0  0.34300  0.57370  0.66140  1.0000 0.1117867253
H   H92       1.0  0.84300  0.07370  0.83860  1.0000 0.1117867253
H   H93       1.0  0.44330  0.38250  0.89000  1.0000 0.1117867253
H   H94       1.0  0.94330  0.88250  0.61000  1.0000 0.1117867253
H   H95       1.0  0.48960  0.30900  0.60660  1.0000 0.1117867253
H   H96       1.0  0.98960  0.80900  0.89340  1.0000 0.1117867253
H   H97       1.0  0.62570  0.30750  0.80320  1.0000 0.1393911085
H   H98       1.0  0.12570  0.80750  0.69680  1.0000 0.1393911085
H   H99       1.0  0.69740  0.23100  0.81020  1.0000 0.1212674646
H   H100      1.0  0.19740  0.73100  0.68980  1.0000 0.1212674646
H   H101      1.0  0.60360  0.13200  0.56540  1.0000 0.1212674646
H   H102      1.0  0.10360  0.63200  0.93460  1.0000 0.1212674646
H   H103      1.0  0.52930  0.20580  0.55040  1.0000 0.146367775
H   H104      1.0  0.02930  0.70580  0.94960  1.0000 0.146367775
H   H105      1.0  0.21800  0.60090  0.26700  1.0000 0.1212674646
H   H106      1.0  0.71800  0.10090  0.23300  1.0000 0.1212674646
H   H107      1.0  0.31830  0.70730  0.50290  1.0000 0.1117867253
H   H108      1.0  0.81830  0.20730  0.99710  1.0000 0.1117867253
H   H109      1.0  0.36170  0.75530  0.32260  1.0000 0.1212674646
H   H110      1.0  0.86170  0.25530  0.17740  1.0000 0.1212674646
H   H111      1.0  0.33280  0.72470  0.11260  1.0000 0.1117867253
H   H112      1.0  0.83280  0.22470  0.38740  1.0000 0.1117867253
C   C1        1.0  0.00175  0.80096  0.40370  1.0000 0.0683607941
C   C2        1.0  0.50175  0.30096  0.09630  1.0000 0.0683607941
C   C3        1.0  0.04487  0.84684  0.40820  1.0000 -0.178337375
C   C4        1.0  0.54487  0.34684  0.09180  1.0000 -0.178337375
C   C5        1.0  0.04465  0.89185  0.31490  1.0000 0.1117867253
C   C6        1.0  0.54465  0.39185  0.18510  1.0000 0.1117867253
C   C7        1.0  0.99940  0.89012  0.22160  1.0000 -0.1615700073
C   C8        1.0  0.49940  0.39012  0.27840  1.0000 -0.1615700073
C   C9        1.0  0.95715  0.84315  0.22440  1.0000 0.0888264046
C   C10       1.0  0.45715  0.34315  0.27560  1.0000 0.0888264046
C   C11       1.0  0.09161  0.94023  0.31760  1.0000 0.0474909448
C   C12       1.0  0.59161  0.44023  0.18240  1.0000 0.0474909448
C   C13       1.0  0.18748  0.02098  0.16810  1.0000 0.0474909448
C   C14       1.0  0.68748  0.52098  0.33190  1.0000 0.0474909448
C   C15       1.0  0.23524  0.06808  0.17700  1.0000 0.1117867253
C   C16       1.0  0.73524  0.56808  0.32300  1.0000 0.1117867253
C   C17       1.0  0.22805  0.11998  0.25410  1.0000 -0.1654088481
C   C18       1.0  0.72805  0.61998  0.24590  1.0000 -0.1654088481
C   C19       1.0  0.27418  0.16301  0.25720  1.0000 0.0959829257
C   C20       1.0  0.77418  0.66301  0.24280  1.0000 0.0959829257
C   C21       1.0  0.33210  0.10821  0.11390  1.0000 0.0805925817
C   C22       1.0  0.83210  0.60821  0.38610  1.0000 0.0805925817
C   C23       1.0  0.28807  0.06302  0.10490  1.0000 -0.178337375
C   C24       1.0  0.78807  0.56302  0.39510  1.0000 -0.178337375
C   C25       1.0  0.86019  0.75604  0.53280  1.0000 0.5281676666
C   C26       1.0  0.36019  0.25604  0.96720  1.0000 0.5281676666
C   C27       1.0  0.84033  0.77357  0.66870  1.0000 -0.0307931046
C   C28       1.0  0.34033  0.27357  0.83130  1.0000 -0.0307931046
C   C29       1.0  0.86818  0.74682  0.77850  1.0000 -0.128237354
C   C30       1.0  0.36818  0.24682  0.72150  1.0000 -0.128237354
C   C31       1.0  0.84995  0.76307  0.90440  1.0000 -0.0307931046
C   C32       1.0  0.34995  0.26307  0.59560  1.0000 -0.0307931046
C   C33       1.0  0.80443  0.80650  0.91870  1.0000 -0.0998094942
C   C34       1.0  0.30443  0.30650  0.58130  1.0000 -0.0998094942
C   C35       1.0  0.77572  0.83298  0.81110  1.0000 -0.1058402828
C   C36       1.0  0.27572  0.33298  0.68890  1.0000 -0.1058402828
C   C37       1.0  0.79426  0.81568  0.68570  1.0000 -0.0998094942
C   C38       1.0  0.29426  0.31568  0.81430  1.0000 -0.0998094942
C   C39       1.0  0.87974  0.73380  0.02120  1.0000 0.545215042
C   C40       1.0  0.37974  0.23380  0.47880  1.0000 0.545215042
C   C41       1.0  0.99825  0.19904  0.40370  1.0000 0.0683607941
C   C42       1.0  0.49825  0.69904  0.09630  1.0000 0.0683607941
C   C43       1.0  0.95513  0.15316  0.40820  1.0000 -0.178337375
C   C44       1.0  0.45513  0.65316  0.09180  1.0000 -0.178337375
C   C45       1.0  0.95535  0.10815  0.31490  1.0000 0.1117867253
C   C46       1.0  0.45535  0.60815  0.18510  1.0000 0.1117867253
C   C47       1.0  0.00060  0.10988  0.22160  1.0000 -0.1615700073
C   C48       1.0  0.50060  0.60988  0.27840  1.0000 -0.1615700073
C   C49       1.0  0.04285  0.15685  0.22440  1.0000 0.0888264046
C   C50       1.0  0.54285  0.65685  0.27560  1.0000 0.0888264046
C   C51       1.0  0.90839  0.05977  0.31760  1.0000 0.0474909448
C   C52       1.0  0.40839  0.55977  0.18240  1.0000 0.0474909448
C   C53       1.0  0.81252  0.97902  0.16810  1.0000 0.0474909448
C   C54       1.0  0.31252  0.47902  0.33190  1.0000 0.0474909448
C   C55       1.0  0.76476  0.93192  0.17700  1.0000 0.1117867253
C   C56       1.0  0.26476  0.43192  0.32300  1.0000 0.1117867253
C   C57       1.0  0.77195  0.88002  0.25410  1.0000 -0.1654088481
C   C58       1.0  0.27195  0.38002  0.24590  1.0000 -0.1654088481
C   C59       1.0  0.72582  0.83699  0.25720  1.0000 0.0959829257
C   C60       1.0  0.22582  0.33699  0.24280  1.0000 0.0959829257
C   C61       1.0  0.66790  0.89179  0.11390  1.0000 0.0805925817
C   C62       1.0  0.16790  0.39179  0.38610  1.0000 0.0805925817
C   C63       1.0  0.71193  0.93698  0.10490  1.0000 -0.178337375
C   C64       1.0  0.21193  0.43698  0.39510  1.0000 -0.178337375
C   C65       1.0  0.13981  0.24396  0.53280  1.0000 0.5281676666
C   C66       1.0  0.63981  0.74396  0.96720  1.0000 0.5281676666
C   C67       1.0  0.15967  0.22643  0.66870  1.0000 -0.0307931046
C   C68       1.0  0.65967  0.72643  0.83130  1.0000 -0.0307931046
C   C69       1.0  0.13182  0.25318  0.77850  1.0000 -0.128237354
C   C70       1.0  0.63182  0.75318  0.72150  1.0000 -0.128237354
C   C71       1.0  0.15005  0.23693  0.90440  1.0000 -0.0307931046
C   C72       1.0  0.65005  0.73693  0.59560  1.0000 -0.0307931046
C   C73       1.0  0.19557  0.19350  0.91870  1.0000 -0.0998094942
C   C74       1.0  0.69557  0.69350  0.58130  1.0000 -0.0998094942
C   C75       1.0  0.22428  0.16702  0.81110  1.0000 -0.1058402828
C   C76       1.0  0.72428  0.66702  0.68890  1.0000 -0.1058402828
C   C77       1.0  0.20574  0.18432  0.68570  1.0000 -0.0998094942
C   C78       1.0  0.70574  0.68432  0.81430  1.0000 -0.0998094942
C   C79       1.0  0.12026  0.26620  0.02120  1.0000 0.545215042
C   C80       1.0  0.62026  0.76620  0.47880  1.0000 0.545215042
C   C81       1.0  0.69904  0.50175  0.90370  1.0000 0.0683607941
C   C82       1.0  0.19904  0.00175  0.59630  1.0000 0.0683607941
C   C83       1.0  0.65316  0.54487  0.90820  1.0000 -0.178337375
C   C84       1.0  0.15316  0.04487  0.59180  1.0000 -0.178337375
C   C85       1.0  0.60815  0.54465  0.81490  1.0000 0.1117867253
C   C86       1.0  0.10815  0.04465  0.68510  1.0000 0.1117867253
C   C87       1.0  0.60988  0.49940  0.72160  1.0000 -0.1615700073
C   C88       1.0  0.10988  0.99940  0.77840  1.0000 -0.1615700073
C   C89       1.0  0.65685  0.45715  0.72440  1.0000 0.0888264046
C   C90       1.0  0.15685  0.95715  0.77560  1.0000 0.0888264046
C   C91       1.0  0.55977  0.59161  0.81760  1.0000 0.0474909448
C   C92       1.0  0.05977  0.09161  0.68240  1.0000 0.0474909448
C   C93       1.0  0.47902  0.68748  0.66810  1.0000 0.0474909448
C   C94       1.0  0.97902  0.18748  0.83190  1.0000 0.0474909448
C   C95       1.0  0.43192  0.73524  0.67700  1.0000 0.1117867253
C   C96       1.0  0.93192  0.23524  0.82300  1.0000 0.1117867253
C   C97       1.0  0.38002  0.72805  0.75410  1.0000 -0.1654088481
C   C98       1.0  0.88002  0.22805  0.74590  1.0000 -0.1654088481
C   C99       1.0  0.33699  0.77418  0.75720  1.0000 0.0959829257
C   C100      1.0  0.83699  0.27418  0.74280  1.0000 0.0959829257
C   C101      1.0  0.39179  0.83210  0.61390  1.0000 0.0805925817
C   C102      1.0  0.89179  0.33210  0.88610  1.0000 0.0805925817
C   C103      1.0  0.43698  0.78807  0.60490  1.0000 -0.178337375
C   C104      1.0  0.93698  0.28807  0.89510  1.0000 -0.178337375
C   C105      1.0  0.74396  0.36019  0.03280  1.0000 0.5281676666
C   C106      1.0  0.24396  0.86019  0.46720  1.0000 0.5281676666
C   C107      1.0  0.72643  0.34033  0.16870  1.0000 -0.0307931046
C   C108      1.0  0.22643  0.84033  0.33130  1.0000 -0.0307931046
C   C109      1.0  0.75318  0.36818  0.27850  1.0000 -0.128237354
C   C110      1.0  0.25318  0.86818  0.22150  1.0000 -0.128237354
C   C111      1.0  0.73693  0.34995  0.40440  1.0000 -0.0307931046
C   C112      1.0  0.23693  0.84995  0.09560  1.0000 -0.0307931046
C   C113      1.0  0.69350  0.30443  0.41870  1.0000 -0.0998094942
C   C114      1.0  0.19350  0.80443  0.08130  1.0000 -0.0998094942
C   C115      1.0  0.66702  0.27572  0.31110  1.0000 -0.1058402828
C   C116      1.0  0.16702  0.77572  0.18890  1.0000 -0.1058402828
C   C117      1.0  0.68432  0.29426  0.18570  1.0000 -0.0998094942
C   C118      1.0  0.18432  0.79426  0.31430  1.0000 -0.0998094942
C   C119      1.0  0.76620  0.37974  0.52120  1.0000 0.545215042
C   C120      1.0  0.26620  0.87974  0.97880  1.0000 0.545215042
C   C121      1.0  0.30096  0.49825  0.90370  1.0000 0.0683607941
C   C122      1.0  0.80096  0.99825  0.59630  1.0000 0.0683607941
C   C123      1.0  0.34684  0.45513  0.90820  1.0000 -0.178337375
C   C124      1.0  0.84684  0.95513  0.59180  1.0000 -0.178337375
C   C125      1.0  0.39185  0.45535  0.81490  1.0000 0.1117867253
C   C126      1.0  0.89185  0.95535  0.68510  1.0000 0.1117867253
C   C127      1.0  0.39012  0.50060  0.72160  1.0000 -0.1615700073
C   C128      1.0  0.89012  0.00060  0.77840  1.0000 -0.1615700073
C   C129      1.0  0.34315  0.54285  0.72440  1.0000 0.0888264046
C   C130      1.0  0.84315  0.04285  0.77560  1.0000 0.0888264046
C   C131      1.0  0.44023  0.40839  0.81760  1.0000 0.0474909448
C   C132      1.0  0.94023  0.90839  0.68240  1.0000 0.0474909448
C   C133      1.0  0.52098  0.31252  0.66810  1.0000 0.0474909448
C   C134      1.0  0.02098  0.81252  0.83190  1.0000 0.0474909448
C   C135      1.0  0.56808  0.26476  0.67700  1.0000 0.1117867253
C   C136      1.0  0.06808  0.76476  0.82300  1.0000 0.1117867253
C   C137      1.0  0.61998  0.27195  0.75410  1.0000 -0.1654088481
C   C138      1.0  0.11998  0.77195  0.74590  1.0000 -0.1654088481
C   C139      1.0  0.66301  0.22582  0.75720  1.0000 0.0959829257
C   C140      1.0  0.16301  0.72582  0.74280  1.0000 0.0959829257
C   C141      1.0  0.60821  0.16790  0.61390  1.0000 0.0805925817
C   C142      1.0  0.10821  0.66790  0.88610  1.0000 0.0805925817
C   C143      1.0  0.56302  0.21193  0.60490  1.0000 -0.178337375
C   C144      1.0  0.06302  0.71193  0.89510  1.0000 -0.178337375
C   C145      1.0  0.25604  0.63981  0.03280  1.0000 0.5281676666
C   C146      1.0  0.75604  0.13981  0.46720  1.0000 0.5281676666
C   C147      1.0  0.27357  0.65967  0.16870  1.0000 -0.0307931046
C   C148      1.0  0.77357  0.15967  0.33130  1.0000 -0.0307931046
C   C149      1.0  0.24682  0.63182  0.27850  1.0000 -0.128237354
C   C150      1.0  0.74682  0.13182  0.22150  1.0000 -0.128237354
C   C151      1.0  0.26307  0.65005  0.40440  1.0000 -0.0307931046
C   C152      1.0  0.76307  0.15005  0.09560  1.0000 -0.0307931046
C   C153      1.0  0.30650  0.69557  0.41870  1.0000 -0.0998094942
C   C154      1.0  0.80650  0.19557  0.08130  1.0000 -0.0998094942
C   C155      1.0  0.33298  0.72428  0.31110  1.0000 -0.1058402828
C   C156      1.0  0.83298  0.22428  0.18890  1.0000 -0.1058402828
C   C157      1.0  0.31568  0.70574  0.18570  1.0000 -0.0998094942
C   C158      1.0  0.81568  0.20574  0.31430  1.0000 -0.0998094942
C   C159      1.0  0.23380  0.62026  0.52120  1.0000 0.545215042
C   C160      1.0  0.73380  0.12026  0.97880  1.0000 0.545215042
N   N1        1.0  0.95812  0.79797  0.31220  1.0000 -0.2196833699
N   N2        1.0  0.45812  0.29797  0.18780  1.0000 -0.2196833699
N   N3        1.0  0.09759  0.97721  0.22520  1.0000 -0.178337375
N   N4        1.0  0.59759  0.47721  0.27480  1.0000 -0.178337375
N   N5        1.0  0.14184  0.02285  0.24330  1.0000 -0.178337375
N   N6        1.0  0.64184  0.52285  0.25670  1.0000 -0.178337375
N   N7        1.0  0.32589  0.15803  0.18810  1.0000 -0.2196833699
N   N8        1.0  0.82589  0.65803  0.31190  1.0000 -0.2196833699
N   N9        1.0  0.04188  0.20203  0.31220  1.0000 -0.2196833699
N   N10       1.0  0.54188  0.70203  0.18780  1.0000 -0.2196833699
N   N11       1.0  0.90241  0.02279  0.22520  1.0000 -0.178337375
N   N12       1.0  0.40241  0.52279  0.27480  1.0000 -0.178337375
N   N13       1.0  0.85816  0.97715  0.24330  1.0000 -0.178337375
N   N14       1.0  0.35816  0.47715  0.25670  1.0000 -0.178337375
N   N15       1.0  0.67411  0.84197  0.18810  1.0000 -0.2196833699
N   N16       1.0  0.17411  0.34197  0.31190  1.0000 -0.2196833699
N   N17       1.0  0.70203  0.45812  0.81220  1.0000 -0.2196833699
N   N18       1.0  0.20203  0.95812  0.68780  1.0000 -0.2196833699
N   N19       1.0  0.52279  0.59759  0.72520  1.0000 -0.178337375
N   N20       1.0  0.02279  0.09759  0.77480  1.0000 -0.178337375
N   N21       1.0  0.47715  0.64184  0.74330  1.0000 -0.178337375
N   N22       1.0  0.97715  0.14184  0.75670  1.0000 -0.178337375
N   N23       1.0  0.34197  0.82589  0.68810  1.0000 -0.2196833699
N   N24       1.0  0.84197  0.32589  0.81190  1.0000 -0.2196833699
N   N25       1.0  0.29797  0.54188  0.81220  1.0000 -0.2196833699
N   N26       1.0  0.79797  0.04188  0.68780  1.0000 -0.2196833699
N   N27       1.0  0.47721  0.40241  0.72520  1.0000 -0.178337375
N   N28       1.0  0.97721  0.90241  0.77480  1.0000 -0.178337375
N   N29       1.0  0.52285  0.35816  0.74330  1.0000 -0.178337375
N   N30       1.0  0.02285  0.85816  0.75670  1.0000 -0.178337375
N   N31       1.0  0.65803  0.17411  0.68810  1.0000 -0.2196833699
N   N32       1.0  0.15803  0.67411  0.81190  1.0000 -0.2196833699
O   O1        1.0  0.90218  0.71642  0.51680  1.0000 -0.5332960918
O   O2        1.0  0.40218  0.21642  0.98320  1.0000 -0.5332960918
O   O3        1.0  0.83533  0.78106  0.43450  1.0000 -0.522506459
O   O4        1.0  0.33533  0.28106  0.06550  1.0000 -0.522506459
O   O5        1.0  0.91780  0.69230  0.00490  1.0000 -0.554383321
O   O6        1.0  0.41780  0.19230  0.49510  1.0000 -0.554383321
O   O7        1.0  0.86352  0.75423  0.13209  1.0000 -0.5601195528
O   O8        1.0  0.36352  0.25423  0.36791  1.0000 -0.5601195528
O   O9        1.0  0.09782  0.28358  0.51680  1.0000 -0.5332960918
O   O10       1.0  0.59782  0.78358  0.98320  1.0000 -0.5332960918
O   O11       1.0  0.16467  0.21894  0.43450  1.0000 -0.522506459
O   O12       1.0  0.66467  0.71894  0.06550  1.0000 -0.522506459
O   O13       1.0  0.08220  0.30770  0.00490  1.0000 -0.554383321
O   O14       1.0  0.58220  0.80770  0.49510  1.0000 -0.554383321
O   O15       1.0  0.13648  0.24577  0.13209  1.0000 -0.5601195528
O   O16       1.0  0.63648  0.74577  0.36791  1.0000 -0.5601195528
O   O17       1.0  0.78358  0.40218  0.01680  1.0000 -0.5332960918
O   O18       1.0  0.28358  0.90218  0.48320  1.0000 -0.5332960918
O   O19       1.0  0.71894  0.33533  0.93450  1.0000 -0.522506459
O   O20       1.0  0.21894  0.83533  0.56550  1.0000 -0.522506459
O   O21       1.0  0.80770  0.41780  0.50490  1.0000 -0.554383321
O   O22       1.0  0.30770  0.91780  0.99510  1.0000 -0.554383321
O   O23       1.0  0.74577  0.36352  0.63209  1.0000 -0.5601195528
O   O24       1.0  0.24577  0.86352  0.86791  1.0000 -0.5601195528
O   O25       1.0  0.21642  0.59782  0.01680  1.0000 -0.5332960918
O   O26       1.0  0.71642  0.09782  0.48320  1.0000 -0.5332960918
O   O27       1.0  0.28106  0.66467  0.93450  1.0000 -0.522506459
O   O28       1.0  0.78106  0.16467  0.56550  1.0000 -0.522506459
O   O29       1.0  0.19230  0.58220  0.50490  1.0000 -0.554383321
O   O30       1.0  0.69230  0.08220  0.99510  1.0000 -0.554383321
O   O31       1.0  0.25423  0.63648  0.63209  1.0000 -0.5601195528
O   O32       1.0  0.75423  0.13648  0.86791  1.0000 -0.5601195528
