# DDEC6 charges by PACMAN v1.1 (https://github.com/mtap-research/PACMAN-charge/)
data_2016[Zn][dia]3[ASR]4
_chemical_formula_sum              "Zn4 H64 C64 S4 N16 O16"
_cell_length_a       9.1337
_cell_length_b       14.4635
_cell_length_c       18.0343
_cell_angle_alpha    93.353
_cell_angle_beta     102.988
_cell_angle_gamma    91.068

_symmetry_space_group_name_H-M    "P 1"
_symmetry_Int_Tables_number       1

loop_
  _symmetry_equiv_pos_as_xyz
  'x, y, z'

loop_
  _atom_site_type_symbol
  _atom_site_label
  _atom_site_symmetry_multiplicity
  _atom_site_fract_x
  _atom_site_fract_y
  _atom_site_fract_z
  _atom_site_occupancy
  _atom_site_charge
Zn  Zn1       1.0  0.16031  0.73439  0.59942  1.0000 0.7644733531
Zn  Zn2       1.0  0.83969  0.26561  0.40058  1.0000 0.7644733531
Zn  Zn3       1.0  0.85378  0.27461  0.92466  1.0000 0.7760413332
Zn  Zn4       1.0  0.14622  0.72539  0.07534  1.0000 0.7760413332
H   H1        1.0  0.46900  0.06760  0.88340  1.0000 0.1302196321
H   H2        1.0  0.53100  0.93240  0.11660  1.0000 0.1302196321
H   H3        1.0  0.29690  0.95030  0.81220  1.0000 0.1302196321
H   H4        1.0  0.70310  0.04970  0.18780  1.0000 0.1302196321
H   H5        1.0  0.69090  0.20250  0.05150  1.0000 0.1302196321
H   H6        1.0  0.30910  0.79750  0.94850  1.0000 0.1302196321
H   H7        1.0  0.75360  0.25900  0.18470  1.0000 0.1372183268
H   H8        1.0  0.24640  0.74100  0.81530  1.0000 0.1372183268
H   H9        1.0  0.99790  0.39920  0.07450  1.0000 0.1118102996
H   H10       1.0  0.00210  0.60080  0.92550  1.0000 0.1118102996
H   H11       1.0  0.09230  0.38880  0.23060  1.0000 0.1118102996
H   H12       1.0  0.90770  0.61120  0.76940  1.0000 0.1118102996
H   H13       1.0  0.95260  0.37670  0.26660  1.0000 0.1118102996
H   H14       1.0  0.04740  0.62330  0.73340  1.0000 0.1118102996
H   H15       1.0  0.85560  0.51320  0.21740  1.0000 0.1005825364
H   H16       1.0  0.14440  0.48680  0.78260  1.0000 0.1005825364
H   H17       1.0  0.98950  0.52440  0.17660  1.0000 0.1005825364
H   H18       1.0  0.01050  0.47560  0.82340  1.0000 0.1005825364
H   H19       1.0  0.02620  0.52740  0.33740  1.0000 0.1005825364
H   H20       1.0  0.97380  0.47260  0.66260  1.0000 0.1005825364
H   H21       1.0  0.16100  0.53640  0.29740  1.0000 0.1005825364
H   H22       1.0  0.83900  0.46360  0.70260  1.0000 0.1005825364
H   H23       1.0  0.93430  0.66480  0.28390  1.0000 0.1118102996
H   H24       1.0  0.06570  0.33520  0.71610  1.0000 0.1118102996
H   H25       1.0  0.08250  0.67530  0.25440  1.0000 0.1198790513
H   H26       1.0  0.91750  0.32470  0.74560  1.0000 0.1198790513
H   H27       1.0  0.27120  0.78720  0.34540  1.0000 0.1372183268
H   H28       1.0  0.72880  0.21280  0.65460  1.0000 0.1372183268
H   H29       1.0  0.32580  0.83030  0.48050  1.0000 0.1372183268
H   H30       1.0  0.67420  0.16970  0.51950  1.0000 0.1372183268
H   H31       1.0  0.01170  0.63830  0.44060  1.0000 0.1118102996
H   H32       1.0  0.98830  0.36170  0.55940  1.0000 0.1118102996
H   H33       1.0  0.08310  0.18770  0.82910  1.0000 0.1372183268
H   H34       1.0  0.91690  0.81230  0.17090  1.0000 0.1372183268
H   H35       1.0  0.34610  0.23880  0.85240  1.0000 0.1302196321
H   H36       1.0  0.65390  0.76120  0.14760  1.0000 0.1302196321
H   H37       1.0  0.16160  0.37190  0.00140  1.0000 0.1118102996
H   H38       1.0  0.83840  0.62810  0.99860  1.0000 0.1118102996
H   H39       1.0  0.52030  0.35240  0.95000  1.0000 0.1118102996
H   H40       1.0  0.47970  0.64760  0.05000  1.0000 0.1118102996
H   H41       1.0  0.47140  0.35360  0.02810  1.0000 0.1118102996
H   H42       1.0  0.52860  0.64640  0.97190  1.0000 0.1118102996
H   H43       1.0  0.41460  0.49470  0.92400  1.0000 0.1005825364
H   H44       1.0  0.58540  0.50530  0.07600  1.0000 0.1005825364
H   H45       1.0  0.34360  0.49420  0.99560  1.0000 0.1005825364
H   H46       1.0  0.65640  0.50580  0.00440  1.0000 0.1005825364
H   H47       1.0  0.89960  0.82740  0.66610  1.0000 0.1372183268
H   H48       1.0  0.10040  0.17260  0.33390  1.0000 0.1372183268
H   H49       1.0  0.63880  0.77440  0.63670  1.0000 0.1372183268
H   H50       1.0  0.36120  0.22560  0.36330  1.0000 0.1372183268
H   H51       1.0  0.86780  0.60290  0.53220  1.0000 0.1118102996
H   H52       1.0  0.13220  0.39710  0.46780  1.0000 0.1118102996
H   H53       1.0  0.48430  0.63760  0.55650  1.0000 0.1198790513
H   H54       1.0  0.51570  0.36240  0.44350  1.0000 0.1198790513
H   H55       1.0  0.53630  0.64310  0.47970  1.0000 0.1118102996
H   H56       1.0  0.46370  0.35690  0.52030  1.0000 0.1118102996
H   H57       1.0  0.59180  0.49900  0.57610  1.0000 0.1005825364
H   H58       1.0  0.40820  0.50100  0.42390  1.0000 0.1005825364
H   H59       1.0  0.65900  0.50550  0.50350  1.0000 0.1005825364
H   H60       1.0  0.34100  0.49450  0.49650  1.0000 0.1005825364
H   H61       1.0  0.52060  0.31520  0.74750  1.0000 0.1302196321
H   H62       1.0  0.47940  0.68480  0.25250  1.0000 0.1302196321
H   H63       1.0  0.31490  0.36580  0.65020  1.0000 0.1198790513
H   H64       1.0  0.68510  0.63420  0.34980  1.0000 0.1198790513
C   C1        1.0  0.71650  0.12960  0.82970  1.0000 0.5686969203
C   C2        1.0  0.28350  0.87040  0.17030  1.0000 0.5686969203
C   C3        1.0  0.59230  0.06020  0.80380  1.0000 -0.132336734
C   C4        1.0  0.40770  0.93980  0.19620  1.0000 -0.132336734
C   C5        1.0  0.47930  0.03940  0.83730  1.0000 -0.1218073996
C   C6        1.0  0.52070  0.96060  0.16270  1.0000 -0.1218073996
C   C7        1.0  0.38060  0.97220  0.79630  1.0000 -0.1218073996
C   C8        1.0  0.61940  0.02780  0.20370  1.0000 -0.1218073996
C   C9        1.0  0.41680  0.94070  0.73060  1.0000 -0.132336734
C   C10       1.0  0.58320  0.05930  0.26940  1.0000 -0.132336734
C   C11       1.0  0.34200  0.86980  0.67220  1.0000 0.5686969203
C   C12       1.0  0.65800  0.13020  0.32780  1.0000 0.5686969203
C   C13       1.0  0.76110  0.24970  0.07270  1.0000 -0.0483791786
C   C14       1.0  0.23890  0.75030  0.92730  1.0000 -0.0483791786
C   C15       1.0  0.79580  0.27990  0.14610  1.0000 -0.0978302616
C   C16       1.0  0.20420  0.72010  0.85390  1.0000 -0.0978302616
C   C17       1.0  0.92910  0.35660  0.08510  1.0000 0.0910704476
C   C18       1.0  0.07090  0.64340  0.91490  1.0000 0.0910704476
C   C19       1.0  0.98560  0.39940  0.22330  1.0000 -0.1130287679
C   C20       1.0  0.01440  0.60060  0.77670  1.0000 -0.1130287679
C   C21       1.0  0.96110  0.50130  0.22100  1.0000 -0.1893275785
C   C22       1.0  0.03890  0.49870  0.77900  1.0000 -0.1893275785
C   C23       1.0  0.05620  0.55040  0.29350  1.0000 -0.1974000665
C   C24       1.0  0.94380  0.44960  0.70650  1.0000 -0.1974000665
C   C25       1.0  0.04020  0.65090  0.29430  1.0000 -0.1218073996
C   C26       1.0  0.95980  0.34910  0.70570  1.0000 -0.1218073996
C   C27       1.0  0.22550  0.76220  0.38130  1.0000 -0.0901103574
C   C28       1.0  0.77450  0.23780  0.61870  1.0000 -0.0901103574
C   C29       1.0  0.25500  0.78520  0.45560  1.0000 -0.0359361353
C   C30       1.0  0.74500  0.21480  0.54440  1.0000 -0.0359361353
C   C31       1.0  0.08450  0.68100  0.43420  1.0000 0.1005825364
C   C32       1.0  0.91550  0.31900  0.56580  1.0000 0.1005825364
C   C33       1.0  0.13120  0.23170  0.86680  1.0000 -0.0359361353
C   C34       1.0  0.86880  0.76830  0.13320  1.0000 -0.0359361353
C   C35       1.0  0.27630  0.25990  0.87930  1.0000 -0.0978302616
C   C36       1.0  0.72370  0.74010  0.12070  1.0000 -0.0978302616
C   C37       1.0  0.17410  0.33270  0.96080  1.0000 0.0910704476
C   C38       1.0  0.82590  0.66730  0.03920  1.0000 0.0910704476
C   C39       1.0  0.44250  0.37150  0.97590  1.0000 -0.1130287679
C   C40       1.0  0.55750  0.62850  0.02410  1.0000 -0.1130287679
C   C41       1.0  0.42990  0.47590  0.97590  1.0000 -0.1974000665
C   C42       1.0  0.57010  0.52410  0.02410  1.0000 -0.1974000665
C   C43       1.0  0.86040  0.77500  0.63520  1.0000 -0.0483791786
C   C44       1.0  0.13960  0.22500  0.36480  1.0000 -0.0483791786
C   C45       1.0  0.71650  0.74640  0.61920  1.0000 -0.0901103574
C   C46       1.0  0.28350  0.25360  0.38080  1.0000 -0.0901103574
C   C47       1.0  0.84400  0.65250  0.56200  1.0000 0.0837075529
C   C48       1.0  0.15600  0.34750  0.43800  1.0000 0.0837075529
C   C49       1.0  0.56360  0.62140  0.53070  1.0000 -0.1218073996
C   C50       1.0  0.43640  0.37860  0.46930  1.0000 -0.1218073996
C   C51       1.0  0.57480  0.52220  0.52560  1.0000 -0.1893275785
C   C52       1.0  0.42520  0.47780  0.47440  1.0000 -0.1893275785
C   C53       1.0  0.70950  0.44120  0.84930  1.0000 0.5516931904
C   C54       1.0  0.29050  0.55880  0.15070  1.0000 0.5516931904
C   C55       1.0  0.57750  0.44840  0.78470  1.0000 -0.132336734
C   C56       1.0  0.42250  0.55160  0.21530  1.0000 -0.132336734
C   C57       1.0  0.49840  0.37700  0.74090  1.0000 -0.132336734
C   C58       1.0  0.50160  0.62300  0.25910  1.0000 -0.132336734
C   C59       1.0  0.38010  0.40620  0.68490  1.0000 -0.132336734
C   C60       1.0  0.61990  0.59380  0.31510  1.0000 -0.132336734
C   C61       1.0  0.37060  0.49860  0.68660  1.0000 -0.132336734
C   C62       1.0  0.62940  0.50140  0.31340  1.0000 -0.132336734
C   C63       1.0  0.26060  0.55580  0.63710  1.0000 0.5516931904
C   C64       1.0  0.73940  0.44420  0.36290  1.0000 0.5516931904
S   S1        1.0  0.57634  0.99578  0.71972  1.0000 0.1671971274
S   S2        1.0  0.42366  0.00422  0.28028  1.0000 0.1671971274
S   S3        1.0  0.50739  0.55187  0.75769  1.0000 0.1118102996
S   S4        1.0  0.49261  0.44813  0.24231  1.0000 0.1118102996
N   N1        1.0  0.84430  0.29850  0.03375  1.0000 -0.2986725924
N   N2        1.0  0.15570  0.70150  0.96625  1.0000 -0.2986725924
N   N3        1.0  0.90470  0.34710  0.15360  1.0000 0.0523812124
N   N4        1.0  0.09530  0.65290  0.84640  1.0000 0.0523812124
N   N5        1.0  0.11640  0.69580  0.36802  1.0000 0.0523812124
N   N6        1.0  0.88360  0.30420  0.63198  1.0000 0.0523812124
N   N7        1.0  0.16810  0.73390  0.48986  1.0000 -0.2854100126
N   N8        1.0  0.83190  0.26610  0.51014  1.0000 -0.2854100126
N   N9        1.0  0.06640  0.27780  0.91820  1.0000 -0.2986725924
N   N10       1.0  0.93360  0.72220  0.08180  1.0000 -0.2986725924
N   N11       1.0  0.30180  0.32480  0.93840  1.0000 0.0523812124
N   N12       1.0  0.69820  0.67520  0.06160  1.0000 0.0523812124
N   N13       1.0  0.94160  0.71630  0.59971  1.0000 -0.2986725924
N   N14       1.0  0.05840  0.28370  0.40029  1.0000 -0.2986725924
N   N15       1.0  0.70580  0.66860  0.57230  1.0000 0.0523812124
N   N16       1.0  0.29420  0.33140  0.42770  1.0000 0.0523812124
O   O1        1.0  0.72890  0.16420  0.89674  1.0000 -0.5428357827
O   O2        1.0  0.27110  0.83580  0.10326  1.0000 -0.5428357827
O   O3        1.0  0.79800  0.14920  0.78740  1.0000 -0.5491563338
O   O4        1.0  0.20200  0.85080  0.21260  1.0000 -0.5491563338
O   O5        1.0  0.21340  0.84010  0.67654  1.0000 -0.5428357827
O   O6        1.0  0.78660  0.15990  0.32346  1.0000 -0.5428357827
O   O7        1.0  0.40500  0.84240  0.62159  1.0000 -0.5675521153
O   O8        1.0  0.59500  0.15760  0.37841  1.0000 -0.5675521153
O   O9        1.0  0.74520  0.35930  0.86000  1.0000 -0.5428357827
O   O10       1.0  0.25480  0.64070  0.14000  1.0000 -0.5428357827
O   O11       1.0  0.76910  0.51010  0.88510  1.0000 -0.5491563338
O   O12       1.0  0.23090  0.48990  0.11490  1.0000 -0.5491563338
O   O13       1.0  0.16330  0.51950  0.58468  1.0000 -0.5491563338
O   O14       1.0  0.83670  0.48050  0.41532  1.0000 -0.5491563338
O   O15       1.0  0.27880  0.64150  0.65498  1.0000 -0.5428357827
O   O16       1.0  0.72120  0.35850  0.34502  1.0000 -0.5428357827
