# DDEC6 charges by PACMAN v1.1 (https://github.com/mtap-research/PACMAN-charge/)
data_2016[Ni][ant]3[ASR]1
_chemical_formula_sum              "Ni12 H56 C120 O48"
_cell_length_a       20.505
_cell_length_b       10.3482
_cell_length_c       29.521
_cell_angle_alpha    90
_cell_angle_beta     113.518
_cell_angle_gamma    90

_symmetry_space_group_name_H-M    "P 1"
_symmetry_Int_Tables_number       1

loop_
  _symmetry_equiv_pos_as_xyz
  'x, y, z'

loop_
  _atom_site_type_symbol
  _atom_site_label
  _atom_site_symmetry_multiplicity
  _atom_site_fract_x
  _atom_site_fract_y
  _atom_site_fract_z
  _atom_site_occupancy
  _atom_site_charge
Ni  Ni1       1.0  0.34066  0.71203  0.16388  1.0000 0.7410522175
Ni  Ni2       1.0  0.65934  0.28797  0.83612  1.0000 0.7410522175
Ni  Ni3       1.0  0.65934  0.71203  0.33612  1.0000 0.7410522175
Ni  Ni4       1.0  0.34066  0.28797  0.66388  1.0000 0.7257040725
Ni  Ni5       1.0  0.84066  0.21203  0.16388  1.0000 0.7410522175
Ni  Ni6       1.0  0.15934  0.78797  0.83612  1.0000 0.7410522175
Ni  Ni7       1.0  0.15934  0.21203  0.33612  1.0000 0.7410522175
Ni  Ni8       1.0  0.84066  0.78797  0.66388  1.0000 0.7410522175
Ni  Ni9       1.0  0.50000  0.78325  0.25000  1.0000 0.4845034168
Ni  Ni10      1.0  0.50000  0.21675  0.75000  1.0000 0.4881162034
Ni  Ni11      1.0  0.00000  0.28325  0.25000  1.0000 0.4881162034
Ni  Ni12      1.0  0.00000  0.71675  0.75000  1.0000 0.4845034168
H   H1        1.0  0.22115  0.03980  0.22556  1.0000 0.1379825571
H   H2        1.0  0.77885  0.96020  0.77444  1.0000 0.1379825571
H   H3        1.0  0.77885  0.03980  0.27444  1.0000 0.1379825571
H   H4        1.0  0.22115  0.96020  0.72556  1.0000 0.1379825571
H   H5        1.0  0.72115  0.53980  0.22556  1.0000 0.1379825571
H   H6        1.0  0.27885  0.46020  0.77444  1.0000 0.1379825571
H   H7        1.0  0.27885  0.53980  0.27444  1.0000 0.1379825571
H   H8        1.0  0.72115  0.46020  0.72556  1.0000 0.1379825571
H   H9        1.0  0.00149  0.12570  0.13521  1.0000 0.1195641628
H   H10       1.0  0.99851  0.87430  0.86479  1.0000 0.1195641628
H   H11       1.0  0.99851  0.12570  0.36479  1.0000 0.1195641628
H   H12       1.0  0.00149  0.87430  0.63521  1.0000 0.1195641628
H   H13       1.0  0.50149  0.62570  0.13521  1.0000 0.1195641628
H   H14       1.0  0.49851  0.37430  0.86479  1.0000 0.1195641628
H   H15       1.0  0.49851  0.62570  0.36479  1.0000 0.1195641628
H   H16       1.0  0.50149  0.37430  0.63521  1.0000 0.1195641628
H   H17       1.0  0.01208  0.01363  0.06483  1.0000 0.1132000522
H   H18       1.0  0.98792  0.98637  0.93517  1.0000 0.1132000522
H   H19       1.0  0.98792  0.01363  0.43517  1.0000 0.1132000522
H   H20       1.0  0.01208  0.98637  0.56483  1.0000 0.1132000522
H   H21       1.0  0.51208  0.51363  0.06483  1.0000 0.1132000522
H   H22       1.0  0.48792  0.48637  0.93517  1.0000 0.1132000522
H   H23       1.0  0.48792  0.51363  0.43517  1.0000 0.1132000522
H   H24       1.0  0.51208  0.48637  0.56483  1.0000 0.1132000522
H   H25       1.0  0.22489  0.99346  0.06743  1.0000 0.1195641628
H   H26       1.0  0.77511  0.00654  0.93257  1.0000 0.1195641628
H   H27       1.0  0.77511  0.99346  0.43257  1.0000 0.1195641628
H   H28       1.0  0.22489  0.00654  0.56743  1.0000 0.1195641628
H   H29       1.0  0.72489  0.49346  0.06743  1.0000 0.1195641628
H   H30       1.0  0.27511  0.50654  0.93257  1.0000 0.1195641628
H   H31       1.0  0.27511  0.49346  0.43257  1.0000 0.1195641628
H   H32       1.0  0.72489  0.50654  0.56743  1.0000 0.1195641628
H   H33       1.0  0.22858  0.90771  0.99027  1.0000 0.1263058917
H   H34       1.0  0.77142  0.09229  0.00973  1.0000 0.1263058917
H   H35       1.0  0.77142  0.90771  0.50973  1.0000 0.1263058917
H   H36       1.0  0.22858  0.09229  0.49027  1.0000 0.1263058917
H   H37       1.0  0.72858  0.40771  0.99027  1.0000 0.1263058917
H   H38       1.0  0.27142  0.59229  0.00973  1.0000 0.1263058917
H   H39       1.0  0.27142  0.40771  0.50973  1.0000 0.1263058917
H   H40       1.0  0.72858  0.59229  0.49027  1.0000 0.1263058917
H   H41       1.0  0.03637  0.69330  0.96147  1.0000 0.1195641628
H   H42       1.0  0.96363  0.30670  0.03853  1.0000 0.1195641628
H   H43       1.0  0.96363  0.69330  0.53853  1.0000 0.1195641628
H   H44       1.0  0.03637  0.30670  0.46147  1.0000 0.1195641628
H   H45       1.0  0.53637  0.19330  0.96147  1.0000 0.1195641628
H   H46       1.0  0.46363  0.80670  0.03853  1.0000 0.1195641628
H   H47       1.0  0.46363  0.19330  0.53853  1.0000 0.1195641628
H   H48       1.0  0.53637  0.80670  0.46147  1.0000 0.1195641628
H   H49       1.0  0.03124  0.77971  0.03864  1.0000 0.1195641628
H   H50       1.0  0.96876  0.22029  0.96136  1.0000 0.1195641628
H   H51       1.0  0.96876  0.77971  0.46136  1.0000 0.1195641628
H   H52       1.0  0.03124  0.22029  0.53864  1.0000 0.1195641628
H   H53       1.0  0.53124  0.27971  0.03864  1.0000 0.1195641628
H   H54       1.0  0.46876  0.72029  0.96136  1.0000 0.1195641628
H   H55       1.0  0.46876  0.27971  0.46136  1.0000 0.1195641628
H   H56       1.0  0.53124  0.72029  0.53864  1.0000 0.1195641628
C   C1        1.0  0.25454  0.91306  0.15886  1.0000 0.5656895922
C   C2        1.0  0.74546  0.08694  0.84114  1.0000 0.5656895922
C   C3        1.0  0.74546  0.91306  0.34114  1.0000 0.5656895922
C   C4        1.0  0.25454  0.08694  0.65886  1.0000 0.5656895922
C   C5        1.0  0.75454  0.41306  0.15886  1.0000 0.5656895922
C   C6        1.0  0.24546  0.58694  0.84114  1.0000 0.5656895922
C   C7        1.0  0.24546  0.41306  0.34114  1.0000 0.5656895922
C   C8        1.0  0.75454  0.58694  0.65886  1.0000 0.5656895922
C   C9        1.0  0.18231  0.96807  0.15002  1.0000 -0.0369957098
C   C10       1.0  0.81769  0.03193  0.84998  1.0000 -0.0369957098
C   C11       1.0  0.81769  0.96807  0.34998  1.0000 -0.0369957098
C   C12       1.0  0.18231  0.03193  0.65002  1.0000 -0.0369957098
C   C13       1.0  0.68231  0.46807  0.15002  1.0000 -0.0369957098
C   C14       1.0  0.31769  0.53193  0.84998  1.0000 -0.0369957098
C   C15       1.0  0.31769  0.46807  0.34998  1.0000 -0.0369957098
C   C16       1.0  0.68231  0.53193  0.65002  1.0000 -0.0369957098
C   C17       1.0  0.17559  0.03128  0.19001  1.0000 -0.0887844642
C   C18       1.0  0.82441  0.96872  0.80999  1.0000 -0.0887844642
C   C19       1.0  0.82441  0.03128  0.30999  1.0000 -0.0887844642
C   C20       1.0  0.17559  0.96872  0.69001  1.0000 -0.0887844642
C   C21       1.0  0.67559  0.53128  0.19001  1.0000 -0.0887844642
C   C22       1.0  0.32441  0.46872  0.80999  1.0000 -0.0887844642
C   C23       1.0  0.32441  0.53128  0.30999  1.0000 -0.0887844642
C   C24       1.0  0.67559  0.46872  0.69001  1.0000 -0.0887844642
C   C25       1.0  0.11068  0.08572  0.18576  1.0000 -0.0291339341
C   C26       1.0  0.88932  0.91428  0.81424  1.0000 -0.0291339341
C   C27       1.0  0.88932  0.08572  0.31424  1.0000 -0.0291339341
C   C28       1.0  0.11068  0.91428  0.68576  1.0000 -0.0291339341
C   C29       1.0  0.61068  0.58572  0.18576  1.0000 -0.0291339341
C   C30       1.0  0.38932  0.41428  0.81424  1.0000 -0.0291339341
C   C31       1.0  0.38932  0.58572  0.31424  1.0000 -0.0291339341
C   C32       1.0  0.61068  0.41428  0.68576  1.0000 -0.0291339341
C   C33       1.0  0.10210  0.15637  0.22710  1.0000 0.6139224828
C   C34       1.0  0.89790  0.84363  0.77290  1.0000 0.6139224828
C   C35       1.0  0.89790  0.15637  0.27290  1.0000 0.6139224828
C   C36       1.0  0.10210  0.84363  0.72710  1.0000 0.6139224828
C   C37       1.0  0.60210  0.65637  0.22710  1.0000 0.6139224828
C   C38       1.0  0.39790  0.34363  0.77290  1.0000 0.6139224828
C   C39       1.0  0.39790  0.65637  0.27290  1.0000 0.6139224828
C   C40       1.0  0.60210  0.34363  0.72710  1.0000 0.6139224828
C   C41       1.0  0.05185  0.07815  0.13985  1.0000 -0.068273149
C   C42       1.0  0.94815  0.92185  0.86015  1.0000 -0.068273149
C   C43       1.0  0.94815  0.07815  0.36015  1.0000 -0.068273149
C   C44       1.0  0.05185  0.92185  0.63985  1.0000 -0.068273149
C   C45       1.0  0.55185  0.57815  0.13985  1.0000 -0.068273149
C   C46       1.0  0.44815  0.42185  0.86015  1.0000 -0.068273149
C   C47       1.0  0.44815  0.57815  0.36015  1.0000 -0.068273149
C   C48       1.0  0.55185  0.42185  0.63985  1.0000 -0.068273149
C   C49       1.0  0.05786  0.01481  0.10031  1.0000 -0.1280385484
C   C50       1.0  0.94214  0.98519  0.89969  1.0000 -0.1280385484
C   C51       1.0  0.94214  0.01481  0.39969  1.0000 -0.1280385484
C   C52       1.0  0.05786  0.98519  0.60031  1.0000 -0.1280385484
C   C53       1.0  0.55786  0.51481  0.10031  1.0000 -0.1280385484
C   C54       1.0  0.44214  0.48519  0.89969  1.0000 -0.1280385484
C   C55       1.0  0.44214  0.51481  0.39969  1.0000 -0.1280385484
C   C56       1.0  0.55786  0.48519  0.60031  1.0000 -0.1280385484
C   C57       1.0  0.12259  0.95718  0.10355  1.0000 0.0692651146
C   C58       1.0  0.87741  0.04282  0.89645  1.0000 0.0692651146
C   C59       1.0  0.87741  0.95718  0.39645  1.0000 0.0692651146
C   C60       1.0  0.12259  0.04282  0.60355  1.0000 0.0692651146
C   C61       1.0  0.62259  0.45718  0.10355  1.0000 0.0692651146
C   C62       1.0  0.37741  0.54282  0.89645  1.0000 0.0692651146
C   C63       1.0  0.37741  0.45718  0.39645  1.0000 0.0692651146
C   C64       1.0  0.62259  0.54282  0.60355  1.0000 0.0692651146
C   C65       1.0  0.12705  0.89711  0.05899  1.0000 0.0844223336
C   C66       1.0  0.87295  0.10289  0.94101  1.0000 0.0844223336
C   C67       1.0  0.87295  0.89711  0.44101  1.0000 0.0850691931
C   C68       1.0  0.12705  0.10289  0.55899  1.0000 0.0844223336
C   C69       1.0  0.62705  0.39711  0.05899  1.0000 0.0850691931
C   C70       1.0  0.37295  0.60289  0.94101  1.0000 0.0844223336
C   C71       1.0  0.37295  0.39711  0.44101  1.0000 0.0844223336
C   C72       1.0  0.62705  0.60289  0.55899  1.0000 0.0844223336
C   C73       1.0  0.18268  0.92782  0.04401  1.0000 -0.1087264395
C   C74       1.0  0.81732  0.07218  0.95599  1.0000 -0.1087264395
C   C75       1.0  0.81732  0.92782  0.45599  1.0000 -0.1087264395
C   C76       1.0  0.18268  0.07218  0.54401  1.0000 -0.1087264395
C   C77       1.0  0.68268  0.42782  0.04401  1.0000 -0.1087264395
C   C78       1.0  0.31732  0.57218  0.95599  1.0000 -0.1087264395
C   C79       1.0  0.31732  0.42782  0.45599  1.0000 -0.1087264395
C   C80       1.0  0.68268  0.57218  0.54401  1.0000 -0.1087264395
C   C81       1.0  0.18417  0.88024  0.99983  1.0000 -0.0765400692
C   C82       1.0  0.81583  0.11976  0.00017  1.0000 -0.0765400692
C   C83       1.0  0.81583  0.88024  0.50017  1.0000 -0.0765400692
C   C84       1.0  0.18417  0.11976  0.49983  1.0000 -0.0765400692
C   C85       1.0  0.68417  0.38024  0.99983  1.0000 -0.0765400692
C   C86       1.0  0.31583  0.61976  0.00017  1.0000 -0.0765400692
C   C87       1.0  0.31583  0.38024  0.50017  1.0000 -0.0765400692
C   C88       1.0  0.68417  0.61976  0.49983  1.0000 -0.0765400692
C   C89       1.0  0.13081  0.79786  0.96854  1.0000 -0.0207134497
C   C90       1.0  0.86919  0.20214  0.03146  1.0000 -0.0207134497
C   C91       1.0  0.86919  0.79786  0.53146  1.0000 -0.0207134497
C   C92       1.0  0.13081  0.20214  0.46854  1.0000 -0.0207134497
C   C93       1.0  0.63081  0.29786  0.96854  1.0000 -0.0207134497
C   C94       1.0  0.36919  0.70214  0.03146  1.0000 -0.0207134497
C   C95       1.0  0.36919  0.29786  0.53146  1.0000 -0.0207134497
C   C96       1.0  0.63081  0.70214  0.46854  1.0000 -0.0207134497
C   C97       1.0  0.12678  0.75016  0.91896  1.0000 0.5578962103
C   C98       1.0  0.87322  0.24984  0.08104  1.0000 0.5578962103
C   C99       1.0  0.87322  0.75016  0.58104  1.0000 0.5578962103
C   C100      1.0  0.12678  0.24984  0.41896  1.0000 0.5578962103
C   C101      1.0  0.62678  0.25016  0.91896  1.0000 0.5578962103
C   C102      1.0  0.37322  0.74984  0.08104  1.0000 0.5578962103
C   C103      1.0  0.37322  0.25016  0.58104  1.0000 0.5578962103
C   C104      1.0  0.62678  0.74984  0.41896  1.0000 0.5578962103
C   C105      1.0  0.07709  0.76155  0.98434  1.0000 -0.0887844642
C   C106      1.0  0.92291  0.23845  0.01566  1.0000 -0.0887844642
C   C107      1.0  0.92291  0.76155  0.51566  1.0000 -0.0887844642
C   C108      1.0  0.07709  0.23845  0.48434  1.0000 -0.0887844642
C   C109      1.0  0.57709  0.26155  0.98434  1.0000 -0.0887844642
C   C110      1.0  0.42291  0.73845  0.01566  1.0000 -0.0887844642
C   C111      1.0  0.42291  0.26155  0.51566  1.0000 -0.0887844642
C   C112      1.0  0.57709  0.73845  0.48434  1.0000 -0.0887844642
C   C113      1.0  0.07440  0.81064  0.02788  1.0000 -0.1280385484
C   C114      1.0  0.92560  0.18936  0.97212  1.0000 -0.1280385484
C   C115      1.0  0.92560  0.81064  0.47212  1.0000 -0.1280385484
C   C116      1.0  0.07440  0.18936  0.52788  1.0000 -0.1280385484
C   C117      1.0  0.57440  0.31064  0.02788  1.0000 -0.1280385484
C   C118      1.0  0.42560  0.68936  0.97212  1.0000 -0.1280385484
C   C119      1.0  0.42560  0.31064  0.47212  1.0000 -0.1280385484
C   C120      1.0  0.57440  0.68936  0.52788  1.0000 -0.1280385484
O   O1        1.0  0.25316  0.78619  0.14970  1.0000 -0.49351103
O   O2        1.0  0.74684  0.21381  0.85030  1.0000 -0.49351103
O   O3        1.0  0.74684  0.78619  0.35030  1.0000 -0.49351103
O   O4        1.0  0.25316  0.21381  0.64970  1.0000 -0.49351103
O   O5        1.0  0.75316  0.28619  0.14970  1.0000 -0.49351103
O   O6        1.0  0.24684  0.71381  0.85030  1.0000 -0.49351103
O   O7        1.0  0.24684  0.28619  0.35030  1.0000 -0.49351103
O   O8        1.0  0.75316  0.71381  0.64970  1.0000 -0.49351103
O   O9        1.0  0.30830  0.98169  0.17542  1.0000 -0.47127138
O   O10       1.0  0.69170  0.01831  0.82458  1.0000 -0.47127138
O   O11       1.0  0.69170  0.98169  0.32458  1.0000 -0.47127138
O   O12       1.0  0.30830  0.01831  0.67542  1.0000 -0.47127138
O   O13       1.0  0.80830  0.48169  0.17542  1.0000 -0.47127138
O   O14       1.0  0.19170  0.51831  0.82458  1.0000 -0.47127138
O   O15       1.0  0.19170  0.48169  0.32458  1.0000 -0.4849022343
O   O16       1.0  0.80830  0.51831  0.67542  1.0000 -0.47127138
O   O17       1.0  0.14873  0.15070  0.27171  1.0000 -0.5140104308
O   O18       1.0  0.85127  0.84930  0.72829  1.0000 -0.5167306874
O   O19       1.0  0.85127  0.15070  0.22829  1.0000 -0.5167306874
O   O20       1.0  0.14873  0.84930  0.77171  1.0000 -0.5140104308
O   O21       1.0  0.64873  0.65070  0.27171  1.0000 -0.5167306874
O   O22       1.0  0.35127  0.34930  0.72829  1.0000 -0.5167306874
O   O23       1.0  0.35127  0.65070  0.22829  1.0000 -0.5167306874
O   O24       1.0  0.64873  0.34930  0.77171  1.0000 -0.5167306874
O   O25       1.0  0.04323  0.22169  0.21313  1.0000 -0.4460140778
O   O26       1.0  0.95677  0.77831  0.78687  1.0000 -0.4435557439
O   O27       1.0  0.95677  0.22169  0.28687  1.0000 -0.4460140778
O   O28       1.0  0.04323  0.77831  0.71313  1.0000 -0.4460140778
O   O29       1.0  0.54323  0.72169  0.21313  1.0000 -0.4435557439
O   O30       1.0  0.45677  0.27831  0.78687  1.0000 -0.4460140778
O   O31       1.0  0.45677  0.72169  0.28687  1.0000 -0.4435557439
O   O32       1.0  0.54323  0.27831  0.71313  1.0000 -0.4460140778
O   O33       1.0  0.08739  0.65968  0.89653  1.0000 -0.49351103
O   O34       1.0  0.91261  0.34032  0.10347  1.0000 -0.49351103
O   O35       1.0  0.91261  0.65968  0.60347  1.0000 -0.49351103
O   O36       1.0  0.08739  0.34032  0.39653  1.0000 -0.49351103
O   O37       1.0  0.58739  0.15968  0.89653  1.0000 -0.49351103
O   O38       1.0  0.41261  0.84032  0.10347  1.0000 -0.49351103
O   O39       1.0  0.41261  0.15968  0.60347  1.0000 -0.49351103
O   O40       1.0  0.58739  0.84032  0.39653  1.0000 -0.49351103
O   O41       1.0  0.16597  0.81659  0.89936  1.0000 -0.5342223062
O   O42       1.0  0.83403  0.18341  0.10064  1.0000 -0.5342223062
O   O43       1.0  0.83403  0.81659  0.60064  1.0000 -0.5342223062
O   O44       1.0  0.16597  0.18341  0.39936  1.0000 -0.5342223062
O   O45       1.0  0.66597  0.31659  0.89936  1.0000 -0.5342223062
O   O46       1.0  0.33403  0.68341  0.10064  1.0000 -0.5342223062
O   O47       1.0  0.33403  0.31659  0.60064  1.0000 -0.5342223062
O   O48       1.0  0.66597  0.68341  0.39936  1.0000 -0.5342223062
