# DDEC6 charges by PACMAN v1.1 (https://github.com/mtap-research/PACMAN-charge/)
data_2016[Cu][ssa]3[ASR]1
_chemical_formula_sum              "Cu12 H60 C132 N6 O48 F12"
_cell_length_a       18.4347
_cell_length_b       18.4347
_cell_length_c       23.832
_cell_angle_alpha    90
_cell_angle_beta     90
_cell_angle_gamma    120

_symmetry_space_group_name_H-M    "P 1"
_symmetry_Int_Tables_number       1

loop_
  _symmetry_equiv_pos_as_xyz
  'x, y, z'

loop_
  _atom_site_type_symbol
  _atom_site_label
  _atom_site_symmetry_multiplicity
  _atom_site_fract_x
  _atom_site_fract_y
  _atom_site_fract_z
  _atom_site_occupancy
  _atom_site_charge
Cu  Cu1       1.0  0.52407  0.04813  0.45448  1.0000 0.8587945391
Cu  Cu2       1.0  0.47593  0.52407  0.95448  1.0000 0.8587945391
Cu  Cu3       1.0  0.95187  0.47593  0.45448  1.0000 0.8587945391
Cu  Cu4       1.0  0.47593  0.95187  0.95448  1.0000 0.8587945391
Cu  Cu5       1.0  0.52407  0.47593  0.45448  1.0000 0.8587945391
Cu  Cu6       1.0  0.04813  0.52407  0.95448  1.0000 0.8587945391
Cu  Cu7       1.0  0.47593  0.95187  0.54552  1.0000 0.8587945391
Cu  Cu8       1.0  0.47593  0.52407  0.54552  1.0000 0.8587945391
Cu  Cu9       1.0  0.04813  0.52407  0.54552  1.0000 0.8587945391
Cu  Cu10      1.0  0.95187  0.47593  0.04552  1.0000 0.8587945391
Cu  Cu11      1.0  0.52407  0.04813  0.04552  1.0000 0.8587945391
Cu  Cu12      1.0  0.52407  0.47593  0.04552  1.0000 0.8587945391
H   H1        1.0  0.47130  0.23565  0.51160  1.0000 0.1379630456
H   H2        1.0  0.23565  0.47130  0.01160  1.0000 0.1379630456
H   H3        1.0  0.76435  0.23565  0.51160  1.0000 0.1379630456
H   H4        1.0  0.52870  0.76435  0.01160  1.0000 0.1379630456
H   H5        1.0  0.76435  0.52870  0.51160  1.0000 0.1379630456
H   H6        1.0  0.23565  0.76435  0.01160  1.0000 0.1379630456
H   H7        1.0  0.23565  0.76435  0.48840  1.0000 0.1379630456
H   H8        1.0  0.52870  0.76435  0.48840  1.0000 0.1379630456
H   H9        1.0  0.23565  0.47130  0.48840  1.0000 0.1379630456
H   H10       1.0  0.76435  0.52870  0.98840  1.0000 0.1379630456
H   H11       1.0  0.76435  0.23565  0.98840  1.0000 0.1379630456
H   H12       1.0  0.47130  0.23565  0.98840  1.0000 0.1379630456
H   H13       1.0  0.36380  0.07500  0.63690  1.0000 0.1379630456
H   H14       1.0  0.28880  0.36380  0.13690  1.0000 0.1379630456
H   H15       1.0  0.92500  0.28880  0.63690  1.0000 0.1379630456
H   H16       1.0  0.63620  0.92500  0.13690  1.0000 0.1379630456
H   H17       1.0  0.71120  0.63620  0.63690  1.0000 0.1379630456
H   H18       1.0  0.07500  0.71120  0.13690  1.0000 0.1379630456
H   H19       1.0  0.28880  0.92500  0.36310  1.0000 0.1379630456
H   H20       1.0  0.63620  0.71120  0.36310  1.0000 0.1379630456
H   H21       1.0  0.07500  0.36380  0.36310  1.0000 0.1379630456
H   H22       1.0  0.92500  0.63620  0.86310  1.0000 0.1379630456
H   H23       1.0  0.71120  0.07500  0.86310  1.0000 0.1379630456
H   H24       1.0  0.36380  0.28880  0.86310  1.0000 0.1379630456
H   H25       1.0  0.63620  0.92500  0.36310  1.0000 0.1379630456
H   H26       1.0  0.71120  0.63620  0.86310  1.0000 0.1379630456
H   H27       1.0  0.07500  0.71120  0.36310  1.0000 0.1379630456
H   H28       1.0  0.36380  0.07500  0.86310  1.0000 0.1379630456
H   H29       1.0  0.28880  0.36380  0.36310  1.0000 0.1379630456
H   H30       1.0  0.92500  0.28880  0.86310  1.0000 0.1379630456
H   H31       1.0  0.71120  0.07500  0.63690  1.0000 0.1379630456
H   H32       1.0  0.36380  0.28880  0.63690  1.0000 0.1379630456
H   H33       1.0  0.92500  0.63620  0.63690  1.0000 0.1379630456
H   H34       1.0  0.07500  0.36380  0.13690  1.0000 0.1379630456
H   H35       1.0  0.28880  0.92500  0.13690  1.0000 0.1379630456
H   H36       1.0  0.63620  0.71120  0.13690  1.0000 0.1379630456
H   H37       1.0  0.19750  0.09875  0.66667  1.0000 0.1487425133
H   H38       1.0  0.09875  0.19750  0.16667  1.0000 0.1487425133
H   H39       1.0  0.90125  0.09875  0.66667  1.0000 0.1487425133
H   H40       1.0  0.80250  0.90125  0.16667  1.0000 0.1487425133
H   H41       1.0  0.90125  0.80250  0.66667  1.0000 0.1487425133
H   H42       1.0  0.09875  0.90125  0.16667  1.0000 0.1487425133
H   H43       1.0  0.09875  0.90125  0.33333  1.0000 0.1487425133
H   H44       1.0  0.80250  0.90125  0.33333  1.0000 0.1487425133
H   H45       1.0  0.09875  0.19750  0.33333  1.0000 0.1487425133
H   H46       1.0  0.90125  0.80250  0.83333  1.0000 0.1487425133
H   H47       1.0  0.90125  0.09875  0.83333  1.0000 0.1487425133
H   H48       1.0  0.19750  0.09875  0.83333  1.0000 0.1487425133
H   H49       1.0  0.46760  0.23380  0.78130  1.0000 0.287655576
H   H50       1.0  0.23380  0.46760  0.28130  1.0000 0.287655576
H   H51       1.0  0.76620  0.23380  0.78130  1.0000 0.287655576
H   H52       1.0  0.53240  0.76620  0.28130  1.0000 0.287655576
H   H53       1.0  0.76620  0.53240  0.78130  1.0000 0.287655576
H   H54       1.0  0.23380  0.76620  0.28130  1.0000 0.287655576
H   H55       1.0  0.23380  0.76620  0.21870  1.0000 0.287655576
H   H56       1.0  0.53240  0.76620  0.21870  1.0000 0.287655576
H   H57       1.0  0.23380  0.46760  0.21870  1.0000 0.287655576
H   H58       1.0  0.76620  0.53240  0.71870  1.0000 0.287655576
H   H59       1.0  0.76620  0.23380  0.71870  1.0000 0.287655576
H   H60       1.0  0.46760  0.23380  0.71870  1.0000 0.287655576
C   C1        1.0  0.44920  0.09050  0.54260  1.0000 0.5795348648
C   C2        1.0  0.35870  0.44920  0.04260  1.0000 0.5795348648
C   C3        1.0  0.90950  0.35870  0.54260  1.0000 0.5795348648
C   C4        1.0  0.55080  0.90950  0.04260  1.0000 0.5795348648
C   C5        1.0  0.64130  0.55080  0.54260  1.0000 0.5795348648
C   C6        1.0  0.09050  0.64130  0.04260  1.0000 0.5795348648
C   C7        1.0  0.35870  0.90950  0.45740  1.0000 0.5795348648
C   C8        1.0  0.55080  0.64130  0.45740  1.0000 0.5795348648
C   C9        1.0  0.09050  0.44920  0.45740  1.0000 0.5795348648
C   C10       1.0  0.90950  0.55080  0.95740  1.0000 0.5795348648
C   C11       1.0  0.64130  0.09050  0.95740  1.0000 0.5795348648
C   C12       1.0  0.44920  0.35870  0.95740  1.0000 0.5795348648
C   C13       1.0  0.55080  0.90950  0.45740  1.0000 0.5795348648
C   C14       1.0  0.64130  0.55080  0.95740  1.0000 0.5795348648
C   C15       1.0  0.09050  0.64130  0.45740  1.0000 0.5795348648
C   C16       1.0  0.44920  0.09050  0.95740  1.0000 0.5795348648
C   C17       1.0  0.35870  0.44920  0.45740  1.0000 0.5795348648
C   C18       1.0  0.90950  0.35870  0.95740  1.0000 0.5795348648
C   C19       1.0  0.64130  0.09050  0.54260  1.0000 0.5795348648
C   C20       1.0  0.44920  0.35870  0.54260  1.0000 0.5795348648
C   C21       1.0  0.90950  0.55080  0.54260  1.0000 0.5795348648
C   C22       1.0  0.09050  0.44920  0.04260  1.0000 0.5795348648
C   C23       1.0  0.35870  0.90950  0.04260  1.0000 0.5795348648
C   C24       1.0  0.55080  0.64130  0.04260  1.0000 0.5795348648
C   C25       1.0  0.42200  0.14610  0.56990  1.0000 -0.0224043871
C   C26       1.0  0.27590  0.42200  0.06990  1.0000 -0.0224043871
C   C27       1.0  0.85390  0.27590  0.56990  1.0000 -0.0224043871
C   C28       1.0  0.57800  0.85390  0.06990  1.0000 -0.0224043871
C   C29       1.0  0.72410  0.57800  0.56990  1.0000 -0.0224043871
C   C30       1.0  0.14610  0.72410  0.06990  1.0000 -0.0224043871
C   C31       1.0  0.27590  0.85390  0.43010  1.0000 -0.0224043871
C   C32       1.0  0.57800  0.72410  0.43010  1.0000 -0.0224043871
C   C33       1.0  0.14610  0.42200  0.43010  1.0000 -0.0224043871
C   C34       1.0  0.85390  0.57800  0.93010  1.0000 -0.0224043871
C   C35       1.0  0.72410  0.14610  0.93010  1.0000 -0.0224043871
C   C36       1.0  0.42200  0.27590  0.93010  1.0000 -0.0224043871
C   C37       1.0  0.57800  0.85390  0.43010  1.0000 -0.0224043871
C   C38       1.0  0.72410  0.57800  0.93010  1.0000 -0.0224043871
C   C39       1.0  0.14610  0.72410  0.43010  1.0000 -0.0224043871
C   C40       1.0  0.42200  0.14610  0.93010  1.0000 -0.0224043871
C   C41       1.0  0.27590  0.42200  0.43010  1.0000 -0.0224043871
C   C42       1.0  0.85390  0.27590  0.93010  1.0000 -0.0224043871
C   C43       1.0  0.72410  0.14610  0.56990  1.0000 -0.0224043871
C   C44       1.0  0.42200  0.27590  0.56990  1.0000 -0.0224043871
C   C45       1.0  0.85390  0.57800  0.56990  1.0000 -0.0224043871
C   C46       1.0  0.14610  0.42200  0.06990  1.0000 -0.0224043871
C   C47       1.0  0.27590  0.85390  0.06990  1.0000 -0.0224043871
C   C48       1.0  0.57800  0.72410  0.06990  1.0000 -0.0224043871
C   C49       1.0  0.44260  0.22130  0.54560  1.0000 -0.1115478158
C   C50       1.0  0.22130  0.44260  0.04560  1.0000 -0.1115478158
C   C51       1.0  0.77870  0.22130  0.54560  1.0000 -0.1115478158
C   C52       1.0  0.55740  0.77870  0.04560  1.0000 -0.1115478158
C   C53       1.0  0.77870  0.55740  0.54560  1.0000 -0.1115478158
C   C54       1.0  0.22130  0.77870  0.04560  1.0000 -0.1115478158
C   C55       1.0  0.22130  0.77870  0.45440  1.0000 -0.1115478158
C   C56       1.0  0.55740  0.77870  0.45440  1.0000 -0.1115478158
C   C57       1.0  0.22130  0.44260  0.45440  1.0000 -0.1115478158
C   C58       1.0  0.77870  0.55740  0.95440  1.0000 -0.1115478158
C   C59       1.0  0.77870  0.22130  0.95440  1.0000 -0.1115478158
C   C60       1.0  0.44260  0.22130  0.95440  1.0000 -0.1115478158
C   C61       1.0  0.37860  0.12590  0.61974  1.0000 -0.1457917552
C   C62       1.0  0.25270  0.37860  0.11974  1.0000 -0.1457917552
C   C63       1.0  0.87410  0.25270  0.61974  1.0000 -0.1457917552
C   C64       1.0  0.62140  0.87410  0.11974  1.0000 -0.1457917552
C   C65       1.0  0.74730  0.62140  0.61974  1.0000 -0.1457917552
C   C66       1.0  0.12590  0.74730  0.11974  1.0000 -0.1457917552
C   C67       1.0  0.25270  0.87410  0.38026  1.0000 -0.1457917552
C   C68       1.0  0.62140  0.74730  0.38026  1.0000 -0.1457917552
C   C69       1.0  0.12590  0.37860  0.38026  1.0000 -0.1457917552
C   C70       1.0  0.87410  0.62140  0.88026  1.0000 -0.1457917552
C   C71       1.0  0.74730  0.12590  0.88026  1.0000 -0.1457917552
C   C72       1.0  0.37860  0.25270  0.88026  1.0000 -0.1457917552
C   C73       1.0  0.62140  0.87410  0.38026  1.0000 -0.1457917552
C   C74       1.0  0.74730  0.62140  0.88026  1.0000 -0.1457917552
C   C75       1.0  0.12590  0.74730  0.38026  1.0000 -0.1457917552
C   C76       1.0  0.37860  0.12590  0.88026  1.0000 -0.1457917552
C   C77       1.0  0.25270  0.37860  0.38026  1.0000 -0.1457917552
C   C78       1.0  0.87410  0.25270  0.88026  1.0000 -0.1457917552
C   C79       1.0  0.74730  0.12590  0.61974  1.0000 -0.1457917552
C   C80       1.0  0.37860  0.25270  0.61974  1.0000 -0.1457917552
C   C81       1.0  0.87410  0.62140  0.61974  1.0000 -0.1457917552
C   C82       1.0  0.12590  0.37860  0.11974  1.0000 -0.1457917552
C   C83       1.0  0.25270  0.87410  0.11974  1.0000 -0.1457917552
C   C84       1.0  0.62140  0.74730  0.11974  1.0000 -0.1457917552
C   C85       1.0  0.35690  0.17845  0.64420  1.0000 0.0577673532
C   C86       1.0  0.17845  0.35690  0.14420  1.0000 0.0577673532
C   C87       1.0  0.82155  0.17845  0.64420  1.0000 0.0577673532
C   C88       1.0  0.64310  0.82155  0.14420  1.0000 0.0577673532
C   C89       1.0  0.82155  0.64310  0.64420  1.0000 0.0577673532
C   C90       1.0  0.17845  0.82155  0.14420  1.0000 0.0577673532
C   C91       1.0  0.17845  0.82155  0.35580  1.0000 0.0577673532
C   C92       1.0  0.64310  0.82155  0.35580  1.0000 0.0577673532
C   C93       1.0  0.17845  0.35690  0.35580  1.0000 0.0577673532
C   C94       1.0  0.82155  0.64310  0.85580  1.0000 0.0577673532
C   C95       1.0  0.82155  0.17845  0.85580  1.0000 0.0577673532
C   C96       1.0  0.35690  0.17845  0.85580  1.0000 0.0577673532
C   C97       1.0  0.30950  0.15475  0.69970  1.0000 0.0291575512
C   C98       1.0  0.15475  0.30950  0.19970  1.0000 0.0291575512
C   C99       1.0  0.84525  0.15475  0.69970  1.0000 0.0291575512
C   C100      1.0  0.69050  0.84525  0.19970  1.0000 0.0291575512
C   C101      1.0  0.84525  0.69050  0.69970  1.0000 0.0291575512
C   C102      1.0  0.15475  0.84525  0.19970  1.0000 0.0291575512
C   C103      1.0  0.15475  0.84525  0.30030  1.0000 0.0291575512
C   C104      1.0  0.69050  0.84525  0.30030  1.0000 0.0291575512
C   C105      1.0  0.15475  0.30950  0.30030  1.0000 0.0291575512
C   C106      1.0  0.84525  0.69050  0.80030  1.0000 0.0291575512
C   C107      1.0  0.84525  0.15475  0.80030  1.0000 0.0291575512
C   C108      1.0  0.30950  0.15475  0.80030  1.0000 0.0291575512
C   C109      1.0  0.35390  0.17695  0.75000  1.0000 0.1487425133
C   C110      1.0  0.17695  0.35390  0.25000  1.0000 0.1487425133
C   C111      1.0  0.82305  0.17695  0.75000  1.0000 0.1487425133
C   C112      1.0  0.64610  0.82305  0.25000  1.0000 0.1487425133
C   C113      1.0  0.82305  0.64610  0.75000  1.0000 0.1487425133
C   C114      1.0  0.17695  0.82305  0.25000  1.0000 0.1487425133
C   C115      1.0  0.22560  0.11280  0.70080  1.0000 -0.3077086743
C   C116      1.0  0.11280  0.22560  0.20080  1.0000 -0.3077086743
C   C117      1.0  0.88720  0.11280  0.70080  1.0000 -0.3077086743
C   C118      1.0  0.77440  0.88720  0.20080  1.0000 -0.3042282473
C   C119      1.0  0.88720  0.77440  0.70080  1.0000 -0.3042282473
C   C120      1.0  0.11280  0.88720  0.20080  1.0000 -0.3077086743
C   C121      1.0  0.11280  0.88720  0.29920  1.0000 -0.3077086743
C   C122      1.0  0.77440  0.88720  0.29920  1.0000 -0.3042282473
C   C123      1.0  0.11280  0.22560  0.29920  1.0000 -0.3077086743
C   C124      1.0  0.88720  0.77440  0.79920  1.0000 -0.3042282473
C   C125      1.0  0.88720  0.11280  0.79920  1.0000 -0.3077086743
C   C126      1.0  0.22560  0.11280  0.79920  1.0000 -0.3077086743
C   C127      1.0  0.17730  0.08865  0.75000  1.0000 0.3584972162
C   C128      1.0  0.08865  0.17730  0.25000  1.0000 0.3584972162
C   C129      1.0  0.91135  0.08865  0.75000  1.0000 0.3584972162
C   C130      1.0  0.82270  0.91135  0.25000  1.0000 0.3584972162
C   C131      1.0  0.91135  0.82270  0.75000  1.0000 0.3584972162
C   C132      1.0  0.08865  0.91135  0.25000  1.0000 0.3584972162
N   N1        1.0  0.44070  0.22035  0.75000  1.0000 -0.5485483916
N   N2        1.0  0.22035  0.44070  0.25000  1.0000 -0.5485483916
N   N3        1.0  0.77965  0.22035  0.75000  1.0000 -0.5485483916
N   N4        1.0  0.55930  0.77965  0.25000  1.0000 -0.5485483916
N   N5        1.0  0.77965  0.55930  0.75000  1.0000 -0.5485483916
N   N6        1.0  0.22035  0.77965  0.25000  1.0000 -0.5485483916
O   O1        1.0  0.48090  0.11054  0.49455  1.0000 -0.5129855211
O   O2        1.0  0.37036  0.48090  0.99455  1.0000 -0.5129855211
O   O3        1.0  0.88946  0.37036  0.49455  1.0000 -0.5129855211
O   O4        1.0  0.51910  0.88946  0.99455  1.0000 -0.5129855211
O   O5        1.0  0.62964  0.51910  0.49455  1.0000 -0.5129855211
O   O6        1.0  0.11054  0.62964  0.99455  1.0000 -0.5129855211
O   O7        1.0  0.37036  0.88946  0.50545  1.0000 -0.5129855211
O   O8        1.0  0.51910  0.62964  0.50545  1.0000 -0.5129855211
O   O9        1.0  0.11054  0.48090  0.50545  1.0000 -0.5129855211
O   O10       1.0  0.88946  0.51910  0.00545  1.0000 -0.5129855211
O   O11       1.0  0.62964  0.11054  0.00545  1.0000 -0.5129855211
O   O12       1.0  0.48090  0.37036  0.00545  1.0000 -0.5129855211
O   O13       1.0  0.51910  0.88946  0.50545  1.0000 -0.5129855211
O   O14       1.0  0.62964  0.51910  0.00545  1.0000 -0.5129855211
O   O15       1.0  0.11054  0.62964  0.50545  1.0000 -0.5129855211
O   O16       1.0  0.48090  0.11054  0.00545  1.0000 -0.5129855211
O   O17       1.0  0.37036  0.48090  0.50545  1.0000 -0.5129855211
O   O18       1.0  0.88946  0.37036  0.00545  1.0000 -0.5129855211
O   O19       1.0  0.62964  0.11054  0.49455  1.0000 -0.5129855211
O   O20       1.0  0.48090  0.37036  0.49455  1.0000 -0.5129855211
O   O21       1.0  0.88946  0.51910  0.49455  1.0000 -0.5129855211
O   O22       1.0  0.11054  0.48090  0.99455  1.0000 -0.5129855211
O   O23       1.0  0.37036  0.88946  0.99455  1.0000 -0.5129855211
O   O24       1.0  0.51910  0.62964  0.99455  1.0000 -0.5129855211
O   O25       1.0  0.43790  0.02820  0.57159  1.0000 -0.5285279463
O   O26       1.0  0.40970  0.43790  0.07159  1.0000 -0.5285279463
O   O27       1.0  0.97180  0.40970  0.57159  1.0000 -0.5285279463
O   O28       1.0  0.56210  0.97180  0.07159  1.0000 -0.5285279463
O   O29       1.0  0.59030  0.56210  0.57159  1.0000 -0.5285279463
O   O30       1.0  0.02820  0.59030  0.07159  1.0000 -0.5285279463
O   O31       1.0  0.40970  0.97180  0.42841  1.0000 -0.5285279463
O   O32       1.0  0.56210  0.59030  0.42841  1.0000 -0.5285279463
O   O33       1.0  0.02820  0.43790  0.42841  1.0000 -0.5285279463
O   O34       1.0  0.97180  0.56210  0.92841  1.0000 -0.5285279463
O   O35       1.0  0.59030  0.02820  0.92841  1.0000 -0.5285279463
O   O36       1.0  0.43790  0.40970  0.92841  1.0000 -0.5285279463
O   O37       1.0  0.56210  0.97180  0.42841  1.0000 -0.5285279463
O   O38       1.0  0.59030  0.56210  0.92841  1.0000 -0.5285279463
O   O39       1.0  0.02820  0.59030  0.42841  1.0000 -0.5285279463
O   O40       1.0  0.43790  0.02820  0.92841  1.0000 -0.5285279463
O   O41       1.0  0.40970  0.43790  0.42841  1.0000 -0.5285279463
O   O42       1.0  0.97180  0.40970  0.92841  1.0000 -0.5285279463
O   O43       1.0  0.59030  0.02820  0.57159  1.0000 -0.5285279463
O   O44       1.0  0.43790  0.40970  0.57159  1.0000 -0.5285279463
O   O45       1.0  0.97180  0.56210  0.57159  1.0000 -0.5285279463
O   O46       1.0  0.02820  0.43790  0.07159  1.0000 -0.5285279463
O   O47       1.0  0.40970  0.97180  0.07159  1.0000 -0.5285279463
O   O48       1.0  0.56210  0.59030  0.07159  1.0000 -0.5285279463
F   F1        1.0  0.10190  0.00600  0.75000  1.0000 -0.0925919237
F   F2        1.0  0.09590  0.10190  0.25000  1.0000 -0.0990637896
F   F3        1.0  0.99400  0.09590  0.75000  1.0000 -0.0925919237
F   F4        1.0  0.89810  0.99400  0.25000  1.0000 -0.0990637896
F   F5        1.0  0.90410  0.89810  0.75000  1.0000 -0.0990637896
F   F6        1.0  0.00600  0.90410  0.25000  1.0000 -0.0990637896
F   F7        1.0  0.09590  0.99400  0.25000  1.0000 -0.0990637896
F   F8        1.0  0.89810  0.90410  0.25000  1.0000 -0.0990637896
F   F9        1.0  0.00600  0.10190  0.25000  1.0000 -0.0990637896
F   F10       1.0  0.99400  0.89810  0.75000  1.0000 -0.0990637896
F   F11       1.0  0.90410  0.00600  0.75000  1.0000 -0.0925919237
F   F12       1.0  0.10190  0.09590  0.75000  1.0000 -0.0925919237
