# DDEC6 charges by PACMAN v1.1 (https://github.com/mtap-research/PACMAN-charge/)
data_2016[Zn][nan]3[ASR]16
_chemical_formula_sum              "Zn10 H24 C52 N28 O32"
_cell_length_a       11.3605
_cell_length_b       18.312
_cell_length_c       12.4463
_cell_angle_alpha    90
_cell_angle_beta     108.491
_cell_angle_gamma    90

_symmetry_space_group_name_H-M    "P 1"
_symmetry_Int_Tables_number       1

loop_
  _symmetry_equiv_pos_as_xyz
  'x, y, z'

loop_
  _atom_site_type_symbol
  _atom_site_label
  _atom_site_symmetry_multiplicity
  _atom_site_fract_x
  _atom_site_fract_y
  _atom_site_fract_z
  _atom_site_occupancy
  _atom_site_charge
Zn  Zn1       1.0  0.73371  0.52180  0.09094  1.0000 0.7674980385
Zn  Zn2       1.0  0.26629  0.02180  0.40906  1.0000 0.7674980385
Zn  Zn3       1.0  0.26629  0.47820  0.90906  1.0000 0.7674980385
Zn  Zn4       1.0  0.73371  0.97820  0.59094  1.0000 0.7674980385
Zn  Zn5       1.0  0.00000  0.50000  0.00000  1.0000 0.7126618249
Zn  Zn6       1.0  0.00000  0.00000  0.50000  1.0000 0.7126618249
Zn  Zn7       1.0  0.91724  0.67243  0.55936  1.0000 0.7642765117
Zn  Zn8       1.0  0.08276  0.17243  0.94064  1.0000 0.7642765117
Zn  Zn9       1.0  0.08276  0.32757  0.44064  1.0000 0.7642765117
Zn  Zn10      1.0  0.91724  0.82757  0.05936  1.0000 0.7642765117
H   H1        1.0  0.16800  0.58670  0.69310  1.0000 0.121203549
H   H2        1.0  0.83200  0.08670  0.80690  1.0000 0.121203549
H   H3        1.0  0.83200  0.41330  0.30690  1.0000 0.121203549
H   H4        1.0  0.16800  0.91330  0.19310  1.0000 0.121203549
H   H5        1.0  0.87110  0.61010  0.77960  1.0000 0.1301279252
H   H6        1.0  0.12890  0.11010  0.72040  1.0000 0.1301279252
H   H7        1.0  0.12890  0.38990  0.22040  1.0000 0.1301279252
H   H8        1.0  0.87110  0.88990  0.27960  1.0000 0.1301279252
H   H9        1.0  0.05210  0.67740  0.03040  1.0000 0.121203549
H   H10       1.0  0.94790  0.17740  0.46960  1.0000 0.121203549
H   H11       1.0  0.94790  0.32260  0.96960  1.0000 0.121203549
H   H12       1.0  0.05210  0.82260  0.53040  1.0000 0.121203549
H   H13       1.0  0.74910  0.70170  0.10870  1.0000 0.1403803587
H   H14       1.0  0.25090  0.20170  0.39130  1.0000 0.1403803587
H   H15       1.0  0.25090  0.29830  0.89130  1.0000 0.1403803587
H   H16       1.0  0.74910  0.79830  0.60870  1.0000 0.1403803587
H   H17       1.0  0.54470  0.61560  0.53630  1.0000 0.1403803587
H   H18       1.0  0.45530  0.11560  0.96370  1.0000 0.1403803587
H   H19       1.0  0.45530  0.38440  0.46370  1.0000 0.1403803587
H   H20       1.0  0.54470  0.88440  0.03630  1.0000 0.1403803587
H   H21       1.0  0.23560  0.53560  0.31180  1.0000 0.1301279252
H   H22       1.0  0.76440  0.03560  0.18820  1.0000 0.1301279252
H   H23       1.0  0.76440  0.46440  0.68820  1.0000 0.1301279252
H   H24       1.0  0.23560  0.96440  0.81180  1.0000 0.1301279252
C   C1        1.0  0.11070  0.58350  0.73220  1.0000 0.174168877
C   C2        1.0  0.88930  0.08350  0.76780  1.0000 0.174168877
C   C3        1.0  0.88930  0.41650  0.26780  1.0000 0.174168877
C   C4        1.0  0.11070  0.91650  0.23220  1.0000 0.174168877
C   C5        1.0  0.94970  0.59610  0.77940  1.0000 0.1537393553
C   C6        1.0  0.05030  0.09610  0.72060  1.0000 0.1537393553
C   C7        1.0  0.05030  0.40390  0.22060  1.0000 0.1537393553
C   C8        1.0  0.94970  0.90390  0.27940  1.0000 0.1537393553
C   C9        1.0  0.97930  0.66750  0.04680  1.0000 0.1403803587
C   C10       1.0  0.02070  0.16750  0.45320  1.0000 0.1403803587
C   C11       1.0  0.02070  0.33250  0.95320  1.0000 0.1403803587
C   C12       1.0  0.97930  0.83250  0.54680  1.0000 0.1403803587
C   C13       1.0  0.81440  0.68110  0.08940  1.0000 0.181064449
C   C14       1.0  0.18560  0.18110  0.41060  1.0000 0.181064449
C   C15       1.0  0.18560  0.31890  0.91060  1.0000 0.181064449
C   C16       1.0  0.81440  0.81890  0.58940  1.0000 0.181064449
C   C17       1.0  0.68780  0.63630  0.40850  1.0000 0.5669042689
C   C18       1.0  0.31220  0.13630  0.09150  1.0000 0.5669042689
C   C19       1.0  0.31220  0.36370  0.59150  1.0000 0.5669042689
C   C20       1.0  0.68780  0.86370  0.90850  1.0000 0.5669042689
C   C21       1.0  0.55890  0.60490  0.37800  1.0000 -0.0276640619
C   C22       1.0  0.44110  0.10490  0.12200  1.0000 -0.0276640619
C   C23       1.0  0.44110  0.39510  0.62200  1.0000 -0.0276640619
C   C24       1.0  0.55890  0.89510  0.87800  1.0000 -0.0276640619
C   C25       1.0  0.50250  0.60060  0.46270  1.0000 -0.1585262607
C   C26       1.0  0.49750  0.10060  0.03730  1.0000 -0.1585262607
C   C27       1.0  0.49750  0.39940  0.53730  1.0000 -0.1585262607
C   C28       1.0  0.50250  0.89940  0.96270  1.0000 -0.1585262607
C   C29       1.0  0.38340  0.57390  0.43540  1.0000 0.0518828293
C   C30       1.0  0.61660  0.07390  0.06460  1.0000 0.0518828293
C   C31       1.0  0.61660  0.42610  0.56460  1.0000 0.0518828293
C   C32       1.0  0.38340  0.92610  0.93540  1.0000 0.0518828293
C   C33       1.0  0.31670  0.55220  0.32820  1.0000 -0.1585262607
C   C34       1.0  0.68330  0.05220  0.17180  1.0000 -0.1585262607
C   C35       1.0  0.68330  0.44780  0.67180  1.0000 -0.1585262607
C   C36       1.0  0.31670  0.94780  0.82820  1.0000 -0.1585262607
C   C37       1.0  0.37420  0.55580  0.24360  1.0000 -0.0276640619
C   C38       1.0  0.62580  0.05580  0.25640  1.0000 -0.0276640619
C   C39       1.0  0.62580  0.44420  0.75640  1.0000 -0.0276640619
C   C40       1.0  0.37420  0.94420  0.74360  1.0000 -0.0276640619
C   C41       1.0  0.49600  0.58040  0.26860  1.0000 -0.0095246867
C   C42       1.0  0.50400  0.08040  0.23140  1.0000 -0.0095246867
C   C43       1.0  0.50400  0.41960  0.73140  1.0000 -0.0095246867
C   C44       1.0  0.49600  0.91960  0.76860  1.0000 -0.0095246867
C   C45       1.0  0.56280  0.57820  0.18000  1.0000 0.5815166531
C   C46       1.0  0.43720  0.07820  0.32000  1.0000 0.5815166531
C   C47       1.0  0.43720  0.42180  0.82000  1.0000 0.5815166531
C   C48       1.0  0.56280  0.92180  0.68000  1.0000 0.5815166531
C   C49       1.0  0.29770  0.52990  0.12550  1.0000 0.5815166531
C   C50       1.0  0.70230  0.02990  0.37450  1.0000 0.5815166531
C   C51       1.0  0.70230  0.47010  0.87450  1.0000 0.5815166531
C   C52       1.0  0.29770  0.97010  0.62550  1.0000 0.5815166531
N   N1        1.0  0.12950  0.54621  0.82630  1.0000 -0.181431928
N   N2        1.0  0.87050  0.04621  0.67370  1.0000 -0.181431928
N   N3        1.0  0.87050  0.45379  0.17370  1.0000 -0.181431928
N   N4        1.0  0.12950  0.95379  0.32630  1.0000 -0.181431928
N   N5        1.0  0.02470  0.55424  0.85740  1.0000 -0.181431928
N   N6        1.0  0.97530  0.05424  0.64260  1.0000 -0.181431928
N   N7        1.0  0.97530  0.44576  0.14260  1.0000 -0.181431928
N   N8        1.0  0.02470  0.94576  0.35740  1.0000 -0.181431928
N   N9        1.0  0.99970  0.61647  0.69890  1.0000 -0.3307921256
N   N10       1.0  0.00030  0.11647  0.80110  1.0000 -0.3307921256
N   N11       1.0  0.00030  0.38353  0.30110  1.0000 -0.3307921256
N   N12       1.0  0.99970  0.88353  0.19890  1.0000 -0.3307921256
N   N13       1.0  0.93460  0.60172  0.04770  1.0000 -0.181431928
N   N14       1.0  0.06540  0.10172  0.45230  1.0000 -0.181431928
N   N15       1.0  0.06540  0.39828  0.95230  1.0000 -0.181431928
N   N16       1.0  0.93460  0.89828  0.54770  1.0000 -0.181431928
N   N17       1.0  0.82740  0.61062  0.07520  1.0000 -0.181431928
N   N18       1.0  0.17260  0.11062  0.42480  1.0000 -0.181431928
N   N19       1.0  0.17260  0.38938  0.92480  1.0000 -0.181431928
N   N20       1.0  0.82740  0.88938  0.57520  1.0000 -0.181431928
N   N21       1.0  0.90790  0.71942  0.07230  1.0000 -0.3419380265
N   N22       1.0  0.09210  0.21942  0.42770  1.0000 -0.3419380265
N   N23       1.0  0.09210  0.28058  0.92770  1.0000 -0.3419380265
N   N24       1.0  0.90790  0.78058  0.57230  1.0000 -0.3419380265
N   N25       1.0  0.32600  0.56910  0.52540  1.0000 0.4921843333
N   N26       1.0  0.67400  0.06910  0.97460  1.0000 0.4921843333
N   N27       1.0  0.67400  0.43090  0.47460  1.0000 0.4921843333
N   N28       1.0  0.32600  0.93090  0.02540  1.0000 0.4921843333
O   O1        1.0  0.63170  0.52316  0.18970  1.0000 -0.5213107047
O   O2        1.0  0.36830  0.02316  0.31030  1.0000 -0.5213107047
O   O3        1.0  0.36830  0.47684  0.81030  1.0000 -0.5213107047
O   O4        1.0  0.63170  0.97684  0.68970  1.0000 -0.5213107047
O   O5        1.0  0.54600  0.62660  0.10690  1.0000 -0.5213107047
O   O6        1.0  0.45400  0.12660  0.39310  1.0000 -0.5213107047
O   O7        1.0  0.45400  0.37340  0.89310  1.0000 -0.5213107047
O   O8        1.0  0.54600  0.87340  0.60690  1.0000 -0.5213107047
O   O9        1.0  0.35890  0.51297  0.06010  1.0000 -0.4888372945
O   O10       1.0  0.64110  0.01297  0.43990  1.0000 -0.4888372945
O   O11       1.0  0.64110  0.48703  0.93990  1.0000 -0.4888372945
O   O12       1.0  0.35890  0.98703  0.56010  1.0000 -0.4888372945
O   O13       1.0  0.18360  0.52771  0.10280  1.0000 -0.5744360464
O   O14       1.0  0.81640  0.02771  0.39720  1.0000 -0.5744360464
O   O15       1.0  0.81640  0.47229  0.89720  1.0000 -0.5744360464
O   O16       1.0  0.18360  0.97229  0.60280  1.0000 -0.5744360464
O   O17       1.0  0.22480  0.54040  0.50270  1.0000 -0.3307921256
O   O18       1.0  0.77520  0.04040  0.99730  1.0000 -0.3307921256
O   O19       1.0  0.77520  0.45960  0.49730  1.0000 -0.3307921256
O   O20       1.0  0.22480  0.95960  0.00270  1.0000 -0.3307921256
O   O21       1.0  0.38030  0.59300  0.61750  1.0000 -0.293173224
O   O22       1.0  0.61970  0.09300  0.88250  1.0000 -0.293173224
O   O23       1.0  0.61970  0.40700  0.38250  1.0000 -0.293173224
O   O24       1.0  0.38030  0.90700  0.11750  1.0000 -0.293173224
O   O25       1.0  0.74960  0.63534  0.51440  1.0000 -0.5633529055
O   O26       1.0  0.25040  0.13534  0.98560  1.0000 -0.5633529055
O   O27       1.0  0.25040  0.36466  0.48560  1.0000 -0.5633529055
O   O28       1.0  0.74960  0.86466  0.01440  1.0000 -0.5633529055
O   O29       1.0  0.72640  0.66170  0.33520  1.0000 -0.5213107047
O   O30       1.0  0.27360  0.16170  0.16480  1.0000 -0.5213107047
O   O31       1.0  0.27360  0.33830  0.66480  1.0000 -0.5213107047
O   O32       1.0  0.72640  0.83830  0.83520  1.0000 -0.5213107047
