# DDEC6 charges by PACMAN v1.1 (https://github.com/mtap-research/PACMAN-charge/)
data_2016[Cu][nts]3[ASR]1
_chemical_formula_sum              "Cu24 H144 C264 N48 O120"
_cell_length_a       30.8891
_cell_length_b       30.8891
_cell_length_c       30.8891
_cell_angle_alpha    120.909
_cell_angle_beta     120.909
_cell_angle_gamma    88.4327

_symmetry_space_group_name_H-M    "P 1"
_symmetry_Int_Tables_number       1

loop_
  _symmetry_equiv_pos_as_xyz
  'x, y, z'

loop_
  _atom_site_type_symbol
  _atom_site_label
  _atom_site_symmetry_multiplicity
  _atom_site_fract_x
  _atom_site_fract_y
  _atom_site_fract_z
  _atom_site_occupancy
  _atom_site_charge
Cu  Cu1       1.0  0.83819  0.57384  0.41203  1.0000 0.8527275123
Cu  Cu2       1.0  0.57384  0.16181  0.73565  1.0000 0.8527275123
Cu  Cu3       1.0  0.16181  0.42616  0.58797  1.0000 0.8527275123
Cu  Cu4       1.0  0.42616  0.83819  0.26435  1.0000 0.8527275123
Cu  Cu5       1.0  0.75309  0.55574  0.30883  1.0000 0.8592631367
Cu  Cu6       1.0  0.55574  0.24691  0.80265  1.0000 0.8592631367
Cu  Cu7       1.0  0.24691  0.44426  0.69117  1.0000 0.8592631367
Cu  Cu8       1.0  0.44426  0.75309  0.19735  1.0000 0.8592631367
Cu  Cu9       1.0  0.47194  0.72552  0.94170  1.0000 0.8527275123
Cu  Cu10      1.0  0.72552  0.78382  0.25358  1.0000 0.8527275123
Cu  Cu11      1.0  0.78382  0.53024  0.05830  1.0000 0.8527275123
Cu  Cu12      1.0  0.53024  0.47194  0.74642  1.0000 0.8527275123
Cu  Cu13      1.0  0.52806  0.27448  0.05830  1.0000 0.8527275123
Cu  Cu14      1.0  0.27448  0.21618  0.74642  1.0000 0.8527275123
Cu  Cu15      1.0  0.21618  0.46976  0.94170  1.0000 0.8527275123
Cu  Cu16      1.0  0.46976  0.52806  0.25358  1.0000 0.8527275123
Cu  Cu17      1.0  0.46176  0.80083  0.92293  1.0000 0.8592631367
Cu  Cu18      1.0  0.80083  0.87790  0.33907  1.0000 0.8592631367
Cu  Cu19      1.0  0.87790  0.53883  0.07707  1.0000 0.8592631367
Cu  Cu20      1.0  0.53883  0.46176  0.66093  1.0000 0.8592631367
Cu  Cu21      1.0  0.53824  0.19917  0.07707  1.0000 0.8592631367
Cu  Cu22      1.0  0.19917  0.12210  0.66093  1.0000 0.8592631367
Cu  Cu23      1.0  0.12210  0.46117  0.92293  1.0000 0.8592631367
Cu  Cu24      1.0  0.46117  0.53824  0.33907  1.0000 0.8592631367
H   H1        1.0  0.96620  0.87080  0.58320  1.0000 0.2854274632
H   H2        1.0  0.87080  0.28760  0.90460  1.0000 0.2854274632
H   H3        1.0  0.28760  0.38300  0.41680  1.0000 0.2854274632
H   H4        1.0  0.38300  0.96620  0.09540  1.0000 0.2854274632
H   H5        1.0  0.03380  0.12920  0.41680  1.0000 0.2854274632
H   H6        1.0  0.12920  0.71240  0.09540  1.0000 0.2854274632
H   H7        1.0  0.71240  0.61700  0.58320  1.0000 0.2854274632
H   H8        1.0  0.61700  0.03380  0.90460  1.0000 0.2854274632
H   H9        1.0  0.04420  0.88930  0.65650  1.0000 0.2790667687
H   H10       1.0  0.88930  0.23280  0.84510  1.0000 0.2790667687
H   H11       1.0  0.23280  0.38770  0.34350  1.0000 0.2790667687
H   H12       1.0  0.38770  0.04420  0.15490  1.0000 0.2790667687
H   H13       1.0  0.95580  0.11070  0.34350  1.0000 0.2790667687
H   H14       1.0  0.11070  0.76720  0.15490  1.0000 0.2790667687
H   H15       1.0  0.76720  0.61230  0.65650  1.0000 0.2790667687
H   H16       1.0  0.61230  0.95580  0.84510  1.0000 0.2790667687
H   H17       1.0  0.31750  0.00340  0.85010  1.0000 0.2790667687
H   H18       1.0  0.00340  0.15330  0.68590  1.0000 0.2790667687
H   H19       1.0  0.15330  0.46740  0.14990  1.0000 0.2790667687
H   H20       1.0  0.46740  0.31750  0.31410  1.0000 0.2790667687
H   H21       1.0  0.68250  0.99660  0.14990  1.0000 0.2790667687
H   H22       1.0  0.99660  0.84670  0.31410  1.0000 0.2790667687
H   H23       1.0  0.84670  0.53260  0.85010  1.0000 0.2790667687
H   H24       1.0  0.53260  0.68250  0.68590  1.0000 0.2790667687
H   H25       1.0  0.26490  0.93510  0.81140  1.0000 0.2790667687
H   H26       1.0  0.93510  0.12370  0.67020  1.0000 0.2790667687
H   H27       1.0  0.12370  0.45350  0.18860  1.0000 0.2790667687
H   H28       1.0  0.45350  0.26490  0.32980  1.0000 0.2790667687
H   H29       1.0  0.73510  0.06490  0.18860  1.0000 0.2790667687
H   H30       1.0  0.06490  0.87630  0.32980  1.0000 0.2790667687
H   H31       1.0  0.87630  0.54650  0.81140  1.0000 0.2790667687
H   H32       1.0  0.54650  0.73510  0.67020  1.0000 0.2790667687
H   H33       1.0  0.12620  0.72320  0.64600  1.0000 0.2790667687
H   H34       1.0  0.72320  0.07720  0.59700  1.0000 0.2790667687
H   H35       1.0  0.07720  0.48020  0.35400  1.0000 0.2790667687
H   H36       1.0  0.48020  0.12620  0.40300  1.0000 0.2790667687
H   H37       1.0  0.87380  0.27680  0.35400  1.0000 0.2790667687
H   H38       1.0  0.27680  0.92280  0.40300  1.0000 0.2790667687
H   H39       1.0  0.92280  0.51980  0.64600  1.0000 0.2790667687
H   H40       1.0  0.51980  0.87380  0.59700  1.0000 0.2790667687
H   H41       1.0  0.15940  0.66370  0.64890  1.0000 0.2854274632
H   H42       1.0  0.66370  0.01480  0.50430  1.0000 0.2790667687
H   H43       1.0  0.01480  0.51050  0.35110  1.0000 0.2790667687
H   H44       1.0  0.51050  0.15940  0.49570  1.0000 0.2854274632
H   H45       1.0  0.84060  0.33630  0.35110  1.0000 0.2790667687
H   H46       1.0  0.33630  0.98520  0.49570  1.0000 0.2790667687
H   H47       1.0  0.98520  0.48950  0.64890  1.0000 0.2854274632
H   H48       1.0  0.48950  0.84060  0.50430  1.0000 0.2854274632
H   H49       1.0  0.78060  0.71220  0.34900  1.0000 0.1405152245
H   H50       1.0  0.71220  0.36320  0.93160  1.0000 0.1405152245
H   H51       1.0  0.36320  0.43160  0.65100  1.0000 0.1405152245
H   H52       1.0  0.43160  0.78060  0.06840  1.0000 0.1405152245
H   H53       1.0  0.21940  0.28780  0.65100  1.0000 0.1405152245
H   H54       1.0  0.28780  0.63680  0.06840  1.0000 0.1405152245
H   H55       1.0  0.63680  0.56840  0.34900  1.0000 0.1405152245
H   H56       1.0  0.56840  0.21940  0.93160  1.0000 0.1405152245
H   H57       1.0  0.89740  0.85490  0.48230  1.0000 0.1405152245
H   H58       1.0  0.85490  0.37260  0.95750  1.0000 0.1405152245
H   H59       1.0  0.37260  0.41510  0.51770  1.0000 0.1405152245
H   H60       1.0  0.41510  0.89740  0.04250  1.0000 0.1405152245
H   H61       1.0  0.10260  0.14510  0.51770  1.0000 0.1405152245
H   H62       1.0  0.14510  0.62740  0.04250  1.0000 0.1405152245
H   H63       1.0  0.62740  0.58490  0.48230  1.0000 0.1405152245
H   H64       1.0  0.58490  0.10260  0.95750  1.0000 0.1405152245
H   H65       1.0  0.90670  0.73880  0.50930  1.0000 0.1405152245
H   H66       1.0  0.73880  0.22950  0.83210  1.0000 0.1405152245
H   H67       1.0  0.22950  0.39740  0.49070  1.0000 0.1405152245
H   H68       1.0  0.39740  0.90670  0.16790  1.0000 0.1405152245
H   H69       1.0  0.09330  0.26120  0.49070  1.0000 0.1405152245
H   H70       1.0  0.26120  0.77050  0.16790  1.0000 0.1405152245
H   H71       1.0  0.77050  0.60260  0.50930  1.0000 0.1405152245
H   H72       1.0  0.60260  0.09330  0.83210  1.0000 0.1405152245
H   H73       1.0  0.37220  0.19540  0.88840  1.0000 0.1405152245
H   H74       1.0  0.19540  0.30700  0.82320  1.0000 0.1405152245
H   H75       1.0  0.30700  0.48380  0.11160  1.0000 0.1405152245
H   H76       1.0  0.48380  0.37220  0.17680  1.0000 0.1405152245
H   H77       1.0  0.62780  0.80460  0.11160  1.0000 0.1405152245
H   H78       1.0  0.80460  0.69300  0.17680  1.0000 0.1405152245
H   H79       1.0  0.69300  0.51620  0.88840  1.0000 0.1405152245
H   H80       1.0  0.51620  0.62780  0.82320  1.0000 0.1405152245
H   H81       1.0  0.38150  0.08740  0.92650  1.0000 0.1405152245
H   H82       1.0  0.08740  0.16090  0.70590  1.0000 0.1405152245
H   H83       1.0  0.16090  0.45500  0.07350  1.0000 0.1405152245
H   H84       1.0  0.45500  0.38150  0.29410  1.0000 0.1405152245
H   H85       1.0  0.61850  0.91260  0.07350  1.0000 0.1405152245
H   H86       1.0  0.91260  0.83910  0.29410  1.0000 0.1405152245
H   H87       1.0  0.83910  0.54500  0.92650  1.0000 0.1405152245
H   H88       1.0  0.54500  0.61850  0.70590  1.0000 0.1405152245
H   H89       1.0  0.25310  0.05610  0.76580  1.0000 0.1461826399
H   H90       1.0  0.05610  0.29030  0.80300  1.0000 0.1461826399
H   H91       1.0  0.29030  0.48730  0.23420  1.0000 0.1461826399
H   H92       1.0  0.48730  0.25310  0.19700  1.0000 0.1461826399
H   H93       1.0  0.74690  0.94390  0.23420  1.0000 0.1461826399
H   H94       1.0  0.94390  0.70970  0.19700  1.0000 0.1461826399
H   H95       1.0  0.70970  0.51270  0.76580  1.0000 0.1461826399
H   H96       1.0  0.51270  0.74690  0.80300  1.0000 0.1461826399
H   H97       1.0  0.32210  0.60580  0.78030  1.0000 0.1405152245
H   H98       1.0  0.60580  0.82550  0.28370  1.0000 0.1405152245
H   H99       1.0  0.82550  0.54180  0.21970  1.0000 0.1405152245
H   H100      1.0  0.54180  0.32210  0.71630  1.0000 0.1405152245
H   H101      1.0  0.67790  0.39420  0.21970  1.0000 0.1405152245
H   H102      1.0  0.39420  0.17450  0.71630  1.0000 0.1405152245
H   H103      1.0  0.17450  0.45820  0.78030  1.0000 0.1405152245
H   H104      1.0  0.45820  0.67790  0.28370  1.0000 0.1405152245
H   H105      1.0  0.17740  0.58930  0.64430  1.0000 0.1405152245
H   H106      1.0  0.58930  0.94500  0.41190  1.0000 0.1405152245
H   H107      1.0  0.94500  0.53310  0.35570  1.0000 0.1405152245
H   H108      1.0  0.53310  0.17740  0.58810  1.0000 0.1405152245
H   H109      1.0  0.82260  0.41070  0.35570  1.0000 0.1405152245
H   H110      1.0  0.41070  0.05500  0.58810  1.0000 0.1405152245
H   H111      1.0  0.05500  0.46690  0.64430  1.0000 0.1405152245
H   H112      1.0  0.46690  0.82260  0.41190  1.0000 0.1405152245
H   H113      1.0  0.29550  0.73180  0.77430  1.0000 0.1405152245
H   H114      1.0  0.73180  0.95750  0.43630  1.0000 0.1405152245
H   H115      1.0  0.95750  0.52120  0.22570  1.0000 0.1405152245
H   H116      1.0  0.52120  0.29550  0.56370  1.0000 0.1405152245
H   H117      1.0  0.70450  0.26820  0.22570  1.0000 0.1405152245
H   H118      1.0  0.26820  0.04250  0.56370  1.0000 0.1405152245
H   H119      1.0  0.04250  0.47880  0.77430  1.0000 0.1405152245
H   H120      1.0  0.47880  0.70450  0.43630  1.0000 0.1405152245
H   H121      1.0  0.13640  0.92890  0.71450  1.0000 0.1405152245
H   H122      1.0  0.92890  0.21440  0.79250  1.0000 0.1405152245
H   H123      1.0  0.21440  0.42190  0.28550  1.0000 0.1405152245
H   H124      1.0  0.42190  0.13640  0.20750  1.0000 0.1405152245
H   H125      1.0  0.86360  0.07110  0.28550  1.0000 0.1405152245
H   H126      1.0  0.07110  0.78560  0.20750  1.0000 0.1405152245
H   H127      1.0  0.78560  0.57810  0.71450  1.0000 0.1405152245
H   H128      1.0  0.57810  0.86360  0.79250  1.0000 0.1405152245
H   H129      1.0  0.23020  0.84700  0.76000  1.0000 0.1405152245
H   H130      1.0  0.84700  0.08700  0.61680  1.0000 0.1405152245
H   H131      1.0  0.08700  0.47020  0.24000  1.0000 0.1405152245
H   H132      1.0  0.47020  0.23020  0.38320  1.0000 0.1405152245
H   H133      1.0  0.76980  0.15300  0.24000  1.0000 0.1405152245
H   H134      1.0  0.15300  0.91300  0.38320  1.0000 0.1405152245
H   H135      1.0  0.91300  0.52980  0.76000  1.0000 0.1405152245
H   H136      1.0  0.52980  0.76980  0.61680  1.0000 0.1405152245
H   H137      1.0  0.07180  0.77250  0.63290  1.0000 0.1405152245
H   H138      1.0  0.77250  0.13960  0.70070  1.0000 0.1405152245
H   H139      1.0  0.13960  0.43890  0.36710  1.0000 0.1405152245
H   H140      1.0  0.43890  0.07180  0.29930  1.0000 0.1405152245
H   H141      1.0  0.92820  0.22750  0.36710  1.0000 0.1405152245
H   H142      1.0  0.22750  0.86040  0.29930  1.0000 0.1405152245
H   H143      1.0  0.86040  0.56110  0.63290  1.0000 0.1405152245
H   H144      1.0  0.56110  0.92820  0.70070  1.0000 0.1405152245
C   C1        1.0  0.82276  0.66051  0.40087  1.0000 0.5797148046
C   C2        1.0  0.66051  0.25964  0.83775  1.0000 0.5797148046
C   C3        1.0  0.25964  0.42189  0.59913  1.0000 0.5797148046
C   C4        1.0  0.42189  0.82276  0.16225  1.0000 0.5797148046
C   C5        1.0  0.17724  0.33949  0.59913  1.0000 0.5797148046
C   C6        1.0  0.33949  0.74036  0.16225  1.0000 0.5797148046
C   C7        1.0  0.74036  0.57811  0.40087  1.0000 0.5797148046
C   C8        1.0  0.57811  0.17724  0.83775  1.0000 0.5797148046
C   C9        1.0  0.80762  0.80487  0.36947  1.0000 0.5797148046
C   C10       1.0  0.80487  0.43540  0.99725  1.0000 0.5797148046
C   C11       1.0  0.43540  0.43815  0.63053  1.0000 0.5797148046
C   C12       1.0  0.43815  0.80762  0.00275  1.0000 0.5797148046
C   C13       1.0  0.19238  0.19513  0.63053  1.0000 0.5797148046
C   C14       1.0  0.19513  0.56460  0.00275  1.0000 0.5797148046
C   C15       1.0  0.56460  0.56185  0.36947  1.0000 0.5797148046
C   C16       1.0  0.56185  0.19238  0.99725  1.0000 0.5797148046
C   C17       1.0  0.84185  0.71681  0.42500  1.0000 -0.0079763544
C   C18       1.0  0.71681  0.29181  0.87496  1.0000 -0.0079763544
C   C19       1.0  0.29181  0.41685  0.57500  1.0000 -0.0079763544
C   C20       1.0  0.41685  0.84185  0.12504  1.0000 -0.0079763544
C   C21       1.0  0.15815  0.28319  0.57500  1.0000 -0.0079763544
C   C22       1.0  0.28319  0.70819  0.12504  1.0000 -0.0079763544
C   C23       1.0  0.70819  0.58315  0.42500  1.0000 -0.0079763544
C   C24       1.0  0.58315  0.15815  0.87496  1.0000 -0.0079763544
C   C25       1.0  0.81383  0.73488  0.38835  1.0000 -0.1083463526
C   C26       1.0  0.73488  0.34653  0.92105  1.0000 -0.1083463526
C   C27       1.0  0.34653  0.42548  0.61165  1.0000 -0.1083463526
C   C28       1.0  0.42548  0.81383  0.07895  1.0000 -0.1083463526
C   C29       1.0  0.18617  0.26512  0.61165  1.0000 -0.1083463526
C   C30       1.0  0.26512  0.65347  0.07895  1.0000 -0.1083463526
C   C31       1.0  0.65347  0.57452  0.38835  1.0000 -0.1083463526
C   C32       1.0  0.57452  0.18617  0.92105  1.0000 -0.1083463526
C   C33       1.0  0.83556  0.78680  0.41054  1.0000 -0.0079763544
C   C34       1.0  0.78680  0.37626  0.95124  1.0000 -0.0079763544
C   C35       1.0  0.37626  0.42502  0.58946  1.0000 -0.0079763544
C   C36       1.0  0.42502  0.83556  0.04876  1.0000 -0.0079763544
C   C37       1.0  0.16444  0.21320  0.58946  1.0000 -0.0079763544
C   C38       1.0  0.21320  0.62374  0.04876  1.0000 -0.0079763544
C   C39       1.0  0.62374  0.57498  0.41054  1.0000 -0.0079763544
C   C40       1.0  0.57498  0.16444  0.95124  1.0000 -0.0079763544
C   C41       1.0  0.88304  0.81970  0.46774  1.0000 -0.1940818293
C   C42       1.0  0.81970  0.35196  0.93666  1.0000 -0.1940818293
C   C43       1.0  0.35196  0.41530  0.53226  1.0000 -0.1940818293
C   C44       1.0  0.41530  0.88304  0.06334  1.0000 -0.1940818293
C   C45       1.0  0.11696  0.18030  0.53226  1.0000 -0.1940818293
C   C46       1.0  0.18030  0.64804  0.06334  1.0000 -0.1940818293
C   C47       1.0  0.64804  0.58470  0.46774  1.0000 -0.1940818293
C   C48       1.0  0.58470  0.11696  0.93666  1.0000 -0.1940818293
C   C49       1.0  0.91083  0.80199  0.50524  1.0000 0.2362858343
C   C50       1.0  0.80199  0.29675  0.89116  1.0000 0.2362858343
C   C51       1.0  0.29675  0.40559  0.49476  1.0000 0.2362858343
C   C52       1.0  0.40559  0.91083  0.10884  1.0000 0.2362858343
C   C53       1.0  0.08917  0.19801  0.49476  1.0000 0.2362858343
C   C54       1.0  0.19801  0.70325  0.10884  1.0000 0.2273021172
C   C55       1.0  0.70325  0.59441  0.50524  1.0000 0.2362858343
C   C56       1.0  0.59441  0.08917  0.89116  1.0000 0.2362858343
C   C57       1.0  0.88919  0.75079  0.48382  1.0000 -0.1697541928
C   C58       1.0  0.75079  0.26697  0.86160  1.0000 -0.1697541928
C   C59       1.0  0.26697  0.40537  0.51618  1.0000 -0.1697541928
C   C60       1.0  0.40537  0.88919  0.13840  1.0000 -0.1697541928
C   C61       1.0  0.11081  0.24921  0.51618  1.0000 -0.1697541928
C   C62       1.0  0.24921  0.73303  0.13840  1.0000 -0.1697541928
C   C63       1.0  0.73303  0.59463  0.48382  1.0000 -0.1697541928
C   C64       1.0  0.59463  0.11081  0.86160  1.0000 -0.1697541928
C   C65       1.0  0.28074  0.14383  0.77743  1.0000 0.5797148046
C   C66       1.0  0.14383  0.36640  0.86309  1.0000 0.5797148046
C   C67       1.0  0.36640  0.50331  0.22257  1.0000 0.5797148046
C   C68       1.0  0.50331  0.28074  0.13691  1.0000 0.5797148046
C   C69       1.0  0.71926  0.85617  0.22257  1.0000 0.5797148046
C   C70       1.0  0.85617  0.63360  0.13691  1.0000 0.5797148046
C   C71       1.0  0.63360  0.49669  0.77743  1.0000 0.5797148046
C   C72       1.0  0.49669  0.71926  0.86309  1.0000 0.5797148046
C   C73       1.0  0.44037  0.18069  0.97378  1.0000 0.5797148046
C   C74       1.0  0.18069  0.20691  0.74032  1.0000 0.5797148046
C   C75       1.0  0.20691  0.46659  0.02622  1.0000 0.5797148046
C   C76       1.0  0.46659  0.44037  0.25968  1.0000 0.5797148046
C   C77       1.0  0.55963  0.81931  0.02622  1.0000 0.5797148046
C   C78       1.0  0.81931  0.79309  0.25968  1.0000 0.5797148046
C   C79       1.0  0.79309  0.53341  0.97378  1.0000 0.5797148046
C   C80       1.0  0.53341  0.55963  0.74032  1.0000 0.5797148046
C   C81       1.0  0.30897  0.12874  0.82177  1.0000 -0.0079763544
C   C82       1.0  0.12874  0.30697  0.81977  1.0000 -0.0079763544
C   C83       1.0  0.30697  0.48720  0.17823  1.0000 -0.0079763544
C   C84       1.0  0.48720  0.30897  0.18023  1.0000 -0.0079763544
C   C85       1.0  0.69103  0.87126  0.17823  1.0000 -0.0079763544
C   C86       1.0  0.87126  0.69303  0.18023  1.0000 -0.0079763544
C   C87       1.0  0.69303  0.51280  0.82177  1.0000 -0.0079763544
C   C88       1.0  0.51280  0.69103  0.81977  1.0000 -0.0079763544
C   C89       1.0  0.35733  0.16157  0.87658  1.0000 -0.1083463526
C   C90       1.0  0.16157  0.28499  0.80424  1.0000 -0.1083463526
C   C91       1.0  0.28499  0.48075  0.12342  1.0000 -0.1083463526
C   C92       1.0  0.48075  0.35733  0.19576  1.0000 -0.1083463526
C   C93       1.0  0.64267  0.83843  0.12342  1.0000 -0.1083463526
C   C94       1.0  0.83843  0.71501  0.19576  1.0000 -0.1083463526
C   C95       1.0  0.71501  0.51925  0.87658  1.0000 -0.1083463526
C   C96       1.0  0.51925  0.64267  0.80424  1.0000 -0.1083463526
C   C97       1.0  0.38507  0.14592  0.91535  1.0000 -0.0079763544
C   C98       1.0  0.14592  0.23057  0.76085  1.0000 -0.0079763544
C   C99       1.0  0.23057  0.46972  0.08465  1.0000 -0.0079763544
C   C100      1.0  0.46972  0.38507  0.23915  1.0000 -0.0079763544
C   C101      1.0  0.61493  0.85408  0.08465  1.0000 -0.0079763544
C   C102      1.0  0.85408  0.76943  0.23915  1.0000 -0.0079763544
C   C103      1.0  0.76943  0.53028  0.91535  1.0000 -0.0079763544
C   C104      1.0  0.53028  0.61493  0.76085  1.0000 -0.0079763544
C   C105      1.0  0.36282  0.09774  0.89948  1.0000 -0.1940818293
C   C106      1.0  0.09774  0.19826  0.73492  1.0000 -0.1940818293
C   C107      1.0  0.19826  0.46334  0.10052  1.0000 -0.1940818293
C   C108      1.0  0.46334  0.36282  0.26508  1.0000 -0.1940818293
C   C109      1.0  0.63718  0.90226  0.10052  1.0000 -0.1940818293
C   C110      1.0  0.90226  0.80174  0.26508  1.0000 -0.1953940444
C   C111      1.0  0.80174  0.53666  0.89948  1.0000 -0.1940818293
C   C112      1.0  0.53666  0.63718  0.73492  1.0000 -0.1940818293
C   C113      1.0  0.31399  0.06456  0.84483  1.0000 0.2273021172
C   C114      1.0  0.06456  0.21973  0.75057  1.0000 0.2273021172
C   C115      1.0  0.21973  0.46916  0.15517  1.0000 0.2273021172
C   C116      1.0  0.46916  0.31399  0.24943  1.0000 0.2273021172
C   C117      1.0  0.68601  0.93544  0.15517  1.0000 0.2273021172
C   C118      1.0  0.93544  0.78027  0.24943  1.0000 0.2273021172
C   C119      1.0  0.78027  0.53084  0.84483  1.0000 0.2273021172
C   C120      1.0  0.53084  0.68601  0.75057  1.0000 0.2273021172
C   C121      1.0  0.28662  0.07949  0.80453  1.0000 -0.1697541928
C   C122      1.0  0.07949  0.27496  0.79287  1.0000 -0.1697541928
C   C123      1.0  0.27496  0.48209  0.19547  1.0000 -0.1697541928
C   C124      1.0  0.48209  0.28662  0.20713  1.0000 -0.1697541928
C   C125      1.0  0.71338  0.92051  0.19547  1.0000 -0.1697541928
C   C126      1.0  0.92051  0.72504  0.20713  1.0000 -0.1697541928
C   C127      1.0  0.72504  0.51791  0.80453  1.0000 -0.1697541928
C   C128      1.0  0.51791  0.71338  0.79287  1.0000 -0.1697541928
C   C129      1.0  0.37269  0.70634  0.83879  1.0000 0.5797148046
C   C130      1.0  0.70634  0.86755  0.33365  1.0000 0.5797148046
C   C131      1.0  0.86755  0.53390  0.16121  1.0000 0.5797148046
C   C132      1.0  0.53390  0.37269  0.66635  1.0000 0.5797148046
C   C133      1.0  0.62731  0.29366  0.16121  1.0000 0.5797148046
C   C134      1.0  0.29366  0.13245  0.66635  1.0000 0.5797148046
C   C135      1.0  0.13245  0.46610  0.83879  1.0000 0.5797148046
C   C136      1.0  0.46610  0.62731  0.33365  1.0000 0.5797148046
C   C137      1.0  0.22969  0.53086  0.68067  1.0000 0.5797148046
C   C138      1.0  0.53086  0.85019  0.30117  1.0000 0.5797148046
C   C139      1.0  0.85019  0.54902  0.31933  1.0000 0.5797148046
C   C140      1.0  0.54902  0.22969  0.69883  1.0000 0.5797148046
C   C141      1.0  0.77031  0.46914  0.31933  1.0000 0.5797148046
C   C142      1.0  0.46914  0.14981  0.69883  1.0000 0.5797148046
C   C143      1.0  0.14981  0.45098  0.68067  1.0000 0.5797148046
C   C144      1.0  0.45098  0.77031  0.30117  1.0000 0.5797148046
C   C145      1.0  0.31690  0.67357  0.78461  1.0000 -0.0191566277
C   C146      1.0  0.67357  0.88896  0.35667  1.0000 -0.0191566277
C   C147      1.0  0.88896  0.53229  0.21539  1.0000 -0.0191566277
C   C148      1.0  0.53229  0.31690  0.64333  1.0000 -0.0191566277
C   C149      1.0  0.68310  0.32643  0.21539  1.0000 -0.0191566277
C   C150      1.0  0.32643  0.11104  0.64333  1.0000 -0.0191566277
C   C151      1.0  0.11104  0.46771  0.78461  1.0000 -0.0191566277
C   C152      1.0  0.46771  0.68310  0.35667  1.0000 -0.0191566277
C   C153      1.0  0.29890  0.62032  0.76048  1.0000 -0.1083463526
C   C154      1.0  0.62032  0.85984  0.32142  1.0000 -0.1083463526
C   C155      1.0  0.85984  0.53842  0.23952  1.0000 -0.1083463526
C   C156      1.0  0.53842  0.29890  0.67858  1.0000 -0.1083463526
C   C157      1.0  0.70110  0.37968  0.23952  1.0000 -0.1083463526
C   C158      1.0  0.37968  0.14016  0.67858  1.0000 -0.1083463526
C   C159      1.0  0.14016  0.46158  0.76048  1.0000 -0.1083463526
C   C160      1.0  0.46158  0.70110  0.32142  1.0000 -0.1083463526
C   C161      1.0  0.24815  0.58878  0.70853  1.0000 -0.0079763544
C   C162      1.0  0.58878  0.88025  0.34063  1.0000 -0.0079763544
C   C163      1.0  0.88025  0.53962  0.29147  1.0000 -0.0079763544
C   C164      1.0  0.53962  0.24815  0.65937  1.0000 -0.0079763544
C   C165      1.0  0.75185  0.41122  0.29147  1.0000 -0.0079763544
C   C166      1.0  0.41122  0.11975  0.65937  1.0000 -0.0079763544
C   C167      1.0  0.11975  0.46038  0.70853  1.0000 -0.0079763544
C   C168      1.0  0.46038  0.75185  0.34063  1.0000 -0.0079763544
C   C169      1.0  0.21251  0.61086  0.68085  1.0000 -0.2149743192
C   C170      1.0  0.61086  0.93001  0.39835  1.0000 -0.2155977689
C   C171      1.0  0.93001  0.53166  0.31915  1.0000 -0.2155977689
C   C172      1.0  0.53166  0.21251  0.60165  1.0000 -0.2149743192
C   C173      1.0  0.78749  0.38914  0.31915  1.0000 -0.2155977689
C   C174      1.0  0.38914  0.06999  0.60165  1.0000 -0.2149743192
C   C175      1.0  0.06999  0.46834  0.68085  1.0000 -0.2149743192
C   C176      1.0  0.46834  0.78749  0.39835  1.0000 -0.2155977689
C   C177      1.0  0.23023  0.66513  0.70870  1.0000 0.2362858343
C   C178      1.0  0.66513  0.95643  0.43490  1.0000 0.2362858343
C   C179      1.0  0.95643  0.52153  0.29130  1.0000 0.2362858343
C   C180      1.0  0.52153  0.23023  0.56510  1.0000 0.2362858343
C   C181      1.0  0.76977  0.33487  0.29130  1.0000 0.2362858343
C   C182      1.0  0.33487  0.04357  0.56510  1.0000 0.2362858343
C   C183      1.0  0.04357  0.47847  0.70870  1.0000 0.2362858343
C   C184      1.0  0.47847  0.76977  0.43490  1.0000 0.2362858343
C   C185      1.0  0.28300  0.69572  0.75848  1.0000 -0.1627789788
C   C186      1.0  0.69572  0.93724  0.41272  1.0000 -0.1627789788
C   C187      1.0  0.93724  0.52452  0.24152  1.0000 -0.1627789788
C   C188      1.0  0.52452  0.28300  0.58728  1.0000 -0.1627789788
C   C189      1.0  0.71700  0.30428  0.24152  1.0000 -0.1627789788
C   C190      1.0  0.30428  0.06276  0.58728  1.0000 -0.1627789788
C   C191      1.0  0.06276  0.47548  0.75848  1.0000 -0.1627789788
C   C192      1.0  0.47548  0.71700  0.41272  1.0000 -0.1627789788
C   C193      1.0  0.00140  0.81890  0.58470  1.0000 0.5910539872
C   C194      1.0  0.81890  0.23420  0.81750  1.0000 0.5910539872
C   C195      1.0  0.23420  0.41670  0.41530  1.0000 0.5910539872
C   C196      1.0  0.41670  0.00140  0.18250  1.0000 0.5910539872
C   C197      1.0  0.99860  0.18110  0.41530  1.0000 0.5910539872
C   C198      1.0  0.18110  0.76580  0.18250  1.0000 0.5910539872
C   C199      1.0  0.76580  0.58330  0.58470  1.0000 0.5910539872
C   C200      1.0  0.58330  0.99860  0.81750  1.0000 0.5910539872
C   C201      1.0  0.24236  0.98446  0.79090  1.0000 0.6020239837
C   C202      1.0  0.98446  0.19356  0.74210  1.0000 0.6020239837
C   C203      1.0  0.19356  0.45146  0.20910  1.0000 0.6020239837
C   C204      1.0  0.45146  0.24236  0.25790  1.0000 0.6020239837
C   C205      1.0  0.75764  0.01554  0.20910  1.0000 0.6020239837
C   C206      1.0  0.01554  0.80644  0.25790  1.0000 0.6020239837
C   C207      1.0  0.80644  0.54854  0.79090  1.0000 0.6020239837
C   C208      1.0  0.54854  0.75764  0.74210  1.0000 0.6020239837
C   C209      1.0  0.19930  0.73830  0.70580  1.0000 0.6020239837
C   C210      1.0  0.73830  0.03250  0.53900  1.0000 0.6020239837
C   C211      1.0  0.03250  0.49350  0.29420  1.0000 0.6020239837
C   C212      1.0  0.49350  0.19930  0.46100  1.0000 0.6020239837
C   C213      1.0  0.80070  0.26170  0.29420  1.0000 0.6020239837
C   C214      1.0  0.26170  0.96750  0.46100  1.0000 0.6020239837
C   C215      1.0  0.96750  0.50650  0.70580  1.0000 0.6020239837
C   C216      1.0  0.50650  0.80070  0.53900  1.0000 0.6020239837
C   C217      1.0  0.09688  0.85148  0.66740  1.0000 0.2790667687
C   C218      1.0  0.85148  0.18408  0.75460  1.0000 0.2790667687
C   C219      1.0  0.18408  0.42948  0.33260  1.0000 0.2790667687
C   C220      1.0  0.42948  0.09688  0.24540  1.0000 0.2790667687
C   C221      1.0  0.90312  0.14852  0.33260  1.0000 0.2790667687
C   C222      1.0  0.14852  0.81592  0.24540  1.0000 0.2790667687
C   C223      1.0  0.81592  0.57052  0.66740  1.0000 0.2790667687
C   C224      1.0  0.57052  0.90312  0.75460  1.0000 0.2790667687
C   C225      1.0  0.14042  0.89602  0.70820  1.0000 -0.2910655789
C   C226      1.0  0.89602  0.18782  0.75560  1.0000 -0.2910655789
C   C227      1.0  0.18782  0.43222  0.29180  1.0000 -0.2910655789
C   C228      1.0  0.43222  0.14042  0.24440  1.0000 -0.2910655789
C   C229      1.0  0.85958  0.10398  0.29180  1.0000 -0.2910655789
C   C230      1.0  0.10398  0.81218  0.24440  1.0000 -0.2910655789
C   C231      1.0  0.81218  0.56778  0.70820  1.0000 -0.2910655789
C   C232      1.0  0.56778  0.85958  0.75560  1.0000 -0.2910655789
C   C233      1.0  0.18995  0.89245  0.73990  1.0000 0.2458282265
C   C234      1.0  0.89245  0.15255  0.70250  1.0000 0.2458282265
C   C235      1.0  0.15255  0.45005  0.26010  1.0000 0.2458282265
C   C236      1.0  0.45005  0.18995  0.29750  1.0000 0.2458282265
C   C237      1.0  0.81005  0.10755  0.26010  1.0000 0.2458282265
C   C238      1.0  0.10755  0.84745  0.29750  1.0000 0.2458282265
C   C239      1.0  0.84745  0.54995  0.73990  1.0000 0.2458282265
C   C240      1.0  0.54995  0.81005  0.70250  1.0000 0.2458282265
C   C241      1.0  0.19592  0.84722  0.73370  1.0000 -0.2658717834
C   C242      1.0  0.84722  0.11352  0.65130  1.0000 -0.2647132479
C   C243      1.0  0.11352  0.46222  0.26630  1.0000 -0.2658717834
C   C244      1.0  0.46222  0.19592  0.34870  1.0000 -0.2658717834
C   C245      1.0  0.80408  0.15278  0.26630  1.0000 -0.2658717834
C   C246      1.0  0.15278  0.88648  0.34870  1.0000 -0.2658717834
C   C247      1.0  0.88648  0.53778  0.73370  1.0000 -0.2647132479
C   C248      1.0  0.53778  0.80408  0.65130  1.0000 -0.2658717834
C   C249      1.0  0.15440  0.80190  0.69110  1.0000 0.2645373478
C   C250      1.0  0.80190  0.11080  0.64750  1.0000 0.2645373478
C   C251      1.0  0.11080  0.46330  0.30890  1.0000 0.2645373478
C   C252      1.0  0.46330  0.15440  0.35250  1.0000 0.2645373478
C   C253      1.0  0.84560  0.19810  0.30890  1.0000 0.2645373478
C   C254      1.0  0.19810  0.88920  0.35250  1.0000 0.2645373478
C   C255      1.0  0.88920  0.53670  0.69110  1.0000 0.2645373478
C   C256      1.0  0.53670  0.84560  0.64750  1.0000 0.2645373478
C   C257      1.0  0.10205  0.80295  0.65890  1.0000 -0.2910655789
C   C258      1.0  0.80295  0.14405  0.70090  1.0000 -0.2910655789
C   C259      1.0  0.14405  0.44315  0.34110  1.0000 -0.2910655789
C   C260      1.0  0.44315  0.10205  0.29910  1.0000 -0.2910655789
C   C261      1.0  0.89795  0.19705  0.34110  1.0000 -0.2910655789
C   C262      1.0  0.19705  0.85595  0.29910  1.0000 -0.2910655789
C   C263      1.0  0.85595  0.55685  0.65890  1.0000 -0.2910655789
C   C264      1.0  0.55685  0.89795  0.70090  1.0000 -0.2910655789
N   N1        1.0  0.96112  0.83629  0.56189  1.0000 -0.4387950652
N   N2        1.0  0.83629  0.27440  0.87517  1.0000 -0.4387950652
N   N3        1.0  0.27440  0.39923  0.43811  1.0000 -0.4387950652
N   N4        1.0  0.39923  0.96112  0.12483  1.0000 -0.4387950652
N   N5        1.0  0.03888  0.16371  0.43811  1.0000 -0.4387950652
N   N6        1.0  0.16371  0.72560  0.12483  1.0000 -0.4387950652
N   N7        1.0  0.72560  0.60077  0.56189  1.0000 -0.4387950652
N   N8        1.0  0.60077  0.03888  0.87517  1.0000 -0.4387950652
N   N9        1.0  0.04632  0.85709  0.63783  1.0000 -0.4300946118
N   N10       1.0  0.85709  0.21926  0.81077  1.0000 -0.4300946118
N   N11       1.0  0.21926  0.40849  0.36217  1.0000 -0.4300946118
N   N12       1.0  0.40849  0.04632  0.18923  1.0000 -0.4300946118
N   N13       1.0  0.95368  0.14291  0.36217  1.0000 -0.4300946118
N   N14       1.0  0.14291  0.78074  0.18923  1.0000 -0.4246790611
N   N15       1.0  0.78074  0.59151  0.63783  1.0000 -0.4300946118
N   N16       1.0  0.59151  0.95368  0.81077  1.0000 -0.4300946118
N   N17       1.0  0.29410  0.01518  0.83092  1.0000 -0.4387950652
N   N18       1.0  0.01518  0.18426  0.72108  1.0000 -0.4387950652
N   N19       1.0  0.18426  0.46318  0.16908  1.0000 -0.4387950652
N   N20       1.0  0.46318  0.29410  0.27892  1.0000 -0.4387950652
N   N21       1.0  0.70590  0.98482  0.16908  1.0000 -0.4387950652
N   N22       1.0  0.98482  0.81574  0.27892  1.0000 -0.4387950652
N   N23       1.0  0.81574  0.53682  0.83092  1.0000 -0.4387950652
N   N24       1.0  0.53682  0.70590  0.72108  1.0000 -0.4387950652
N   N25       1.0  0.23658  0.93758  0.78460  1.0000 -0.4300946118
N   N26       1.0  0.93758  0.15298  0.70100  1.0000 -0.4300946118
N   N27       1.0  0.15298  0.45198  0.21540  1.0000 -0.4300946118
N   N28       1.0  0.45198  0.23658  0.29900  1.0000 -0.4300946118
N   N29       1.0  0.76342  0.06242  0.21540  1.0000 -0.4300946118
N   N30       1.0  0.06242  0.84702  0.29900  1.0000 -0.4300946118
N   N31       1.0  0.84702  0.54802  0.78460  1.0000 -0.4300946118
N   N32       1.0  0.54802  0.76342  0.70100  1.0000 -0.4300946118
N   N33       1.0  0.15627  0.74987  0.67680  1.0000 -0.4300946118
N   N34       1.0  0.74987  0.07307  0.59360  1.0000 -0.4300946118
N   N35       1.0  0.07307  0.47947  0.32320  1.0000 -0.4300946118
N   N36       1.0  0.47947  0.15627  0.40640  1.0000 -0.4387950652
N   N37       1.0  0.84373  0.25013  0.32320  1.0000 -0.4300946118
N   N38       1.0  0.25013  0.92693  0.40640  1.0000 -0.4300946118
N   N39       1.0  0.92693  0.52053  0.67680  1.0000 -0.4300946118
N   N40       1.0  0.52053  0.84373  0.59360  1.0000 -0.4300946118
N   N41       1.0  0.19111  0.68631  0.68260  1.0000 -0.4387950652
N   N42       1.0  0.68631  0.00371  0.49520  1.0000 -0.4387950652
N   N43       1.0  0.00371  0.50851  0.31740  1.0000 -0.4387950652
N   N44       1.0  0.50851  0.19111  0.50480  1.0000 -0.4474664234
N   N45       1.0  0.80889  0.31369  0.31740  1.0000 -0.4387950652
N   N46       1.0  0.31369  0.99629  0.50480  1.0000 -0.4387950652
N   N47       1.0  0.99629  0.49149  0.68260  1.0000 -0.4387950652
N   N48       1.0  0.49149  0.80889  0.49520  1.0000 -0.4387950652
O   O1        1.0  0.85104  0.64634  0.43476  1.0000 -0.5186530618
O   O2        1.0  0.64634  0.21158  0.79530  1.0000 -0.5186530618
O   O3        1.0  0.21158  0.41628  0.56524  1.0000 -0.5186530618
O   O4        1.0  0.41628  0.85104  0.20470  1.0000 -0.5186530618
O   O5        1.0  0.14896  0.35366  0.56524  1.0000 -0.5186530618
O   O6        1.0  0.35366  0.78842  0.20470  1.0000 -0.5186530618
O   O7        1.0  0.78842  0.58372  0.43476  1.0000 -0.5186530618
O   O8        1.0  0.58372  0.14896  0.79530  1.0000 -0.5186530618
O   O9        1.0  0.77851  0.63141  0.34832  1.0000 -0.5186530618
O   O10       1.0  0.63141  0.28309  0.85290  1.0000 -0.5186530618
O   O11       1.0  0.28309  0.43019  0.65168  1.0000 -0.5186530618
O   O12       1.0  0.43019  0.77851  0.14710  1.0000 -0.5186530618
O   O13       1.0  0.22149  0.36859  0.65168  1.0000 -0.5186530618
O   O14       1.0  0.36859  0.71691  0.14710  1.0000 -0.5186530618
O   O15       1.0  0.71691  0.56981  0.34832  1.0000 -0.5186530618
O   O16       1.0  0.56981  0.22149  0.85290  1.0000 -0.5186530618
O   O17       1.0  0.76365  0.77344  0.31969  1.0000 -0.5098768361
O   O18       1.0  0.77344  0.45375  0.00979  1.0000 -0.5098768361
O   O19       1.0  0.45375  0.44396  0.68031  1.0000 -0.5098768361
O   O20       1.0  0.44396  0.76365  0.99021  1.0000 -0.5098768361
O   O21       1.0  0.23635  0.22656  0.68031  1.0000 -0.5098768361
O   O22       1.0  0.22656  0.54625  0.99021  1.0000 -0.5098768361
O   O23       1.0  0.54625  0.55604  0.31969  1.0000 -0.5098768361
O   O24       1.0  0.55604  0.23635  0.00979  1.0000 -0.5098768361
O   O25       1.0  0.83064  0.85039  0.38899  1.0000 -0.5304437928
O   O26       1.0  0.85039  0.46140  0.01975  1.0000 -0.5304437928
O   O27       1.0  0.46140  0.44165  0.61101  1.0000 -0.5304437928
O   O28       1.0  0.44165  0.83064  0.98025  1.0000 -0.5304437928
O   O29       1.0  0.16936  0.14961  0.61101  1.0000 -0.5304437928
O   O30       1.0  0.14961  0.53860  0.98025  1.0000 -0.5304437928
O   O31       1.0  0.53860  0.55835  0.38899  1.0000 -0.5304437928
O   O32       1.0  0.55835  0.16936  0.01975  1.0000 -0.5304437928
O   O33       1.0  0.24000  0.10870  0.72414  1.0000 -0.5186530618
O   O34       1.0  0.10870  0.38456  0.86870  1.0000 -0.5186530618
O   O35       1.0  0.38456  0.51586  0.27586  1.0000 -0.5186530618
O   O36       1.0  0.51586  0.24000  0.13130  1.0000 -0.5186530618
O   O37       1.0  0.76000  0.89130  0.27586  1.0000 -0.5186530618
O   O38       1.0  0.89130  0.61544  0.13130  1.0000 -0.5186530618
O   O39       1.0  0.61544  0.48414  0.72414  1.0000 -0.5186530618
O   O40       1.0  0.48414  0.76000  0.86870  1.0000 -0.5186530618
O   O41       1.0  0.29977  0.19083  0.79858  1.0000 -0.5098768361
O   O42       1.0  0.19083  0.39225  0.89106  1.0000 -0.5098768361
O   O43       1.0  0.39225  0.50119  0.20142  1.0000 -0.5098768361
O   O44       1.0  0.50119  0.29977  0.10894  1.0000 -0.5098768361
O   O45       1.0  0.70023  0.80917  0.20142  1.0000 -0.5098768361
O   O46       1.0  0.80917  0.60775  0.10894  1.0000 -0.5098768361
O   O47       1.0  0.60775  0.49881  0.79858  1.0000 -0.5098768361
O   O48       1.0  0.49881  0.70023  0.89106  1.0000 -0.5098768361
O   O49       1.0  0.45699  0.22395  0.98528  1.0000 -0.5098768361
O   O50       1.0  0.22395  0.23867  0.76696  1.0000 -0.5098768361
O   O51       1.0  0.23867  0.47171  0.01472  1.0000 -0.5098768361
O   O52       1.0  0.47171  0.45699  0.23304  1.0000 -0.5098768361
O   O53       1.0  0.54301  0.77605  0.01472  1.0000 -0.5098768361
O   O54       1.0  0.77605  0.76133  0.23304  1.0000 -0.5098768361
O   O55       1.0  0.76133  0.52829  0.98528  1.0000 -0.5098768361
O   O56       1.0  0.52829  0.54301  0.76696  1.0000 -0.5098768361
O   O57       1.0  0.46385  0.16286  0.00527  1.0000 -0.5186530618
O   O58       1.0  0.16286  0.15759  0.69901  1.0000 -0.5186530618
O   O59       1.0  0.15759  0.45858  0.99473  1.0000 -0.5186530618
O   O60       1.0  0.45858  0.46385  0.30099  1.0000 -0.5186530618
O   O61       1.0  0.53615  0.83714  0.99473  1.0000 -0.5186530618
O   O62       1.0  0.83714  0.84241  0.30099  1.0000 -0.5186530618
O   O63       1.0  0.84241  0.54142  0.00527  1.0000 -0.5186530618
O   O64       1.0  0.54142  0.53615  0.69901  1.0000 -0.5186530618
O   O65       1.0  0.38820  0.75285  0.85467  1.0000 -0.5186530618
O   O66       1.0  0.75285  0.89818  0.36465  1.0000 -0.5186530618
O   O67       1.0  0.89818  0.53353  0.14533  1.0000 -0.5186530618
O   O68       1.0  0.53353  0.38820  0.63535  1.0000 -0.5186530618
O   O69       1.0  0.61180  0.24715  0.14533  1.0000 -0.5186530618
O   O70       1.0  0.24715  0.10182  0.63535  1.0000 -0.5186530618
O   O71       1.0  0.10182  0.46647  0.85467  1.0000 -0.5186530618
O   O72       1.0  0.46647  0.61180  0.36465  1.0000 -0.5186530618
O   O73       1.0  0.39970  0.68654  0.86598  1.0000 -0.5186530618
O   O74       1.0  0.68654  0.82056  0.28684  1.0000 -0.5186530618
O   O75       1.0  0.82056  0.53372  0.13402  1.0000 -0.5186530618
O   O76       1.0  0.53372  0.39970  0.71316  1.0000 -0.5186530618
O   O77       1.0  0.60030  0.31346  0.13402  1.0000 -0.5186530618
O   O78       1.0  0.31346  0.17944  0.71316  1.0000 -0.5186530618
O   O79       1.0  0.17944  0.46628  0.86598  1.0000 -0.5186530618
O   O80       1.0  0.46628  0.60030  0.28684  1.0000 -0.5186530618
O   O81       1.0  0.25939  0.51714  0.71453  1.0000 -0.5186530618
O   O82       1.0  0.51714  0.80261  0.25775  1.0000 -0.5186530618
O   O83       1.0  0.80261  0.54486  0.28547  1.0000 -0.5186530618
O   O84       1.0  0.54486  0.25939  0.74225  1.0000 -0.5186530618
O   O85       1.0  0.74061  0.48286  0.28547  1.0000 -0.5186530618
O   O86       1.0  0.48286  0.19739  0.74225  1.0000 -0.5186530618
O   O87       1.0  0.19739  0.45514  0.71453  1.0000 -0.5186530618
O   O88       1.0  0.45514  0.74061  0.25775  1.0000 -0.5186530618
O   O89       1.0  0.18686  0.50237  0.62797  1.0000 -0.5098768361
O   O90       1.0  0.50237  0.87440  0.31551  1.0000 -0.5098768361
O   O91       1.0  0.87440  0.55889  0.37203  1.0000 -0.5098768361
O   O92       1.0  0.55889  0.18686  0.68449  1.0000 -0.5098768361
O   O93       1.0  0.81314  0.49763  0.37203  1.0000 -0.5098768361
O   O94       1.0  0.49763  0.12560  0.68449  1.0000 -0.5098768361
O   O95       1.0  0.12560  0.44111  0.62797  1.0000 -0.5098768361
O   O96       1.0  0.44111  0.81314  0.31551  1.0000 -0.5098768361
O   O97       1.0  0.99847  0.77120  0.55827  1.0000 -0.5186530618
O   O98       1.0  0.77120  0.21293  0.77273  1.0000 -0.5186530618
O   O99       1.0  0.21293  0.44020  0.44173  1.0000 -0.5186530618
O   O100      1.0  0.44020  0.99847  0.22727  1.0000 -0.5186530618
O   O101      1.0  0.00153  0.22880  0.44173  1.0000 -0.5186530618
O   O102      1.0  0.22880  0.78707  0.22727  1.0000 -0.5186530618
O   O103      1.0  0.78707  0.55980  0.55827  1.0000 -0.5186530618
O   O104      1.0  0.55980  0.00153  0.77273  1.0000 -0.5186530618
O   O105      1.0  0.20550  0.99426  0.75910  1.0000 -0.5098768361
O   O106      1.0  0.99426  0.23516  0.78876  1.0000 -0.5098768361
O   O107      1.0  0.23516  0.44640  0.24090  1.0000 -0.5098768361
O   O108      1.0  0.44640  0.20550  0.21124  1.0000 -0.5098768361
O   O109      1.0  0.79450  0.00574  0.24090  1.0000 -0.5098768361
O   O110      1.0  0.00574  0.76484  0.21124  1.0000 -0.5098768361
O   O111      1.0  0.76484  0.55360  0.75910  1.0000 -0.5098768361
O   O112      1.0  0.55360  0.79450  0.78876  1.0000 -0.5098768361
O   O113      1.0  0.24437  0.77277  0.74600  1.0000 -0.5304437928
O   O114      1.0  0.77277  0.02677  0.52840  1.0000 -0.5304437928
O   O115      1.0  0.02677  0.49837  0.25400  1.0000 -0.5304437928
O   O116      1.0  0.49837  0.24437  0.47160  1.0000 -0.5304437928
O   O117      1.0  0.75563  0.22723  0.25400  1.0000 -0.5304437928
O   O118      1.0  0.22723  0.97323  0.47160  1.0000 -0.5304437928
O   O119      1.0  0.97323  0.50163  0.74600  1.0000 -0.5304437928
O   O120      1.0  0.50163  0.75563  0.52840  1.0000 -0.5304437928
