# DDEC6 charges by PACMAN v1.1 (https://github.com/mtap-research/PACMAN-charge/)
data_2016[Cu][nbo]3[ASR]7
_chemical_formula_sum              "Cu3 H54 C90 N6 O12 F18"
_cell_length_a       21.5669
_cell_length_b       21.5669
_cell_length_c       7.7969
_cell_angle_alpha    90
_cell_angle_beta     90
_cell_angle_gamma    120

_symmetry_space_group_name_H-M    "P 1"
_symmetry_Int_Tables_number       1

loop_
  _symmetry_equiv_pos_as_xyz
  'x, y, z'

loop_
  _atom_site_type_symbol
  _atom_site_label
  _atom_site_symmetry_multiplicity
  _atom_site_fract_x
  _atom_site_fract_y
  _atom_site_fract_z
  _atom_site_occupancy
  _atom_site_charge
Cu  Cu1       1.0  0.50000  0.00000  0.00000  1.0000 0.7895357388
Cu  Cu2       1.0  0.00000  0.50000  0.00000  1.0000 0.7895357388
Cu  Cu3       1.0  0.50000  0.50000  0.00000  1.0000 0.7895357388
H   H1        1.0  0.48040  0.47080  0.63240  1.0000 0.1117123797
H   H2        1.0  0.52920  0.00960  0.63240  1.0000 0.1117123797
H   H3        1.0  0.99040  0.51960  0.63240  1.0000 0.1117123797
H   H4        1.0  0.51960  0.52920  0.36760  1.0000 0.1117123797
H   H5        1.0  0.47080  0.99040  0.36760  1.0000 0.1117123797
H   H6        1.0  0.00960  0.48040  0.36760  1.0000 0.1117123797
H   H7        1.0  0.47730  0.39260  0.43190  1.0000 0.1379399526
H   H8        1.0  0.60740  0.08470  0.43190  1.0000 0.1379399526
H   H9        1.0  0.91530  0.52270  0.43190  1.0000 0.1379399526
H   H10       1.0  0.52270  0.60740  0.56810  1.0000 0.1379399526
H   H11       1.0  0.39260  0.91530  0.56810  1.0000 0.1379399526
H   H12       1.0  0.08470  0.47730  0.56810  1.0000 0.1379399526
H   H13       1.0  0.51190  0.36610  0.99770  1.0000 0.1117123797
H   H14       1.0  0.63390  0.14580  0.99770  1.0000 0.1117123797
H   H15       1.0  0.85420  0.48810  0.99770  1.0000 0.1117123797
H   H16       1.0  0.48810  0.63390  0.00230  1.0000 0.1117123797
H   H17       1.0  0.36610  0.85420  0.00230  1.0000 0.1117123797
H   H18       1.0  0.14580  0.51190  0.00230  1.0000 0.1117123797
H   H19       1.0  0.51160  0.28600  0.80610  1.0000 0.1379399526
H   H20       1.0  0.71400  0.22560  0.80610  1.0000 0.1379399526
H   H21       1.0  0.77440  0.48840  0.80610  1.0000 0.1379399526
H   H22       1.0  0.48840  0.71400  0.19390  1.0000 0.1379399526
H   H23       1.0  0.28600  0.77440  0.19390  1.0000 0.1379399526
H   H24       1.0  0.22560  0.51160  0.19390  1.0000 0.1379399526
H   H25       1.0  0.41780  0.28210  0.31070  1.0000 0.1203775715
H   H26       1.0  0.71790  0.13570  0.31070  1.0000 0.1203775715
H   H27       1.0  0.86430  0.58220  0.31070  1.0000 0.1203775715
H   H28       1.0  0.58220  0.71790  0.68930  1.0000 0.1203775715
H   H29       1.0  0.28210  0.86430  0.68930  1.0000 0.1203775715
H   H30       1.0  0.13570  0.41780  0.68930  1.0000 0.1203775715
H   H31       1.0  0.40590  0.19750  0.11560  1.0000 0.1203775715
H   H32       1.0  0.80250  0.20840  0.11560  1.0000 0.1203775715
H   H33       1.0  0.79160  0.59410  0.11560  1.0000 0.1203775715
H   H34       1.0  0.59410  0.80250  0.88440  1.0000 0.1203775715
H   H35       1.0  0.19750  0.79160  0.88440  1.0000 0.1203775715
H   H36       1.0  0.20840  0.40590  0.88440  1.0000 0.1203775715
H   H37       1.0  0.55860  0.17780  0.36550  1.0000 0.1117123797
H   H38       1.0  0.82220  0.38080  0.36550  1.0000 0.1117123797
H   H39       1.0  0.61920  0.44140  0.36550  1.0000 0.1117123797
H   H40       1.0  0.44140  0.82220  0.63450  1.0000 0.1117123797
H   H41       1.0  0.17780  0.61920  0.63450  1.0000 0.1117123797
H   H42       1.0  0.38080  0.55860  0.63450  1.0000 0.1117123797
H   H43       1.0  0.56680  0.25920  0.56670  1.0000 0.1117123797
H   H44       1.0  0.74080  0.30760  0.56670  1.0000 0.1117123797
H   H45       1.0  0.69240  0.43320  0.56670  1.0000 0.1117123797
H   H46       1.0  0.43320  0.74080  0.43330  1.0000 0.1117123797
H   H47       1.0  0.25920  0.69240  0.43330  1.0000 0.1117123797
H   H48       1.0  0.30760  0.56680  0.43330  1.0000 0.1117123797
H   H49       1.0  0.42620  0.14750  0.90760  1.0000 0.1293139386
H   H50       1.0  0.85250  0.27870  0.90760  1.0000 0.1293139386
H   H51       1.0  0.72130  0.57380  0.90760  1.0000 0.1293139386
H   H52       1.0  0.57380  0.85250  0.09240  1.0000 0.1293139386
H   H53       1.0  0.14750  0.72130  0.09240  1.0000 0.1293139386
H   H54       1.0  0.27870  0.42620  0.09240  1.0000 0.1293139386
C   C1        1.0  0.48600  0.43260  0.66760  1.0000 0.0942372757
C   C2        1.0  0.56740  0.05340  0.66760  1.0000 0.0942372757
C   C3        1.0  0.94660  0.51400  0.66760  1.0000 0.0942372757
C   C4        1.0  0.51400  0.56740  0.33240  1.0000 0.0942372757
C   C5        1.0  0.43260  0.94660  0.33240  1.0000 0.0942372757
C   C6        1.0  0.05340  0.48600  0.33240  1.0000 0.0942372757
C   C7        1.0  0.48430  0.38610  0.54660  1.0000 -0.1786931825
C   C8        1.0  0.61390  0.09820  0.54660  1.0000 -0.1786931825
C   C9        1.0  0.90180  0.51570  0.54660  1.0000 -0.1786931825
C   C10       1.0  0.51570  0.61390  0.45340  1.0000 -0.1786931825
C   C11       1.0  0.38610  0.90180  0.45340  1.0000 -0.1786931825
C   C12       1.0  0.09820  0.48430  0.45340  1.0000 -0.1786931825
C   C13       1.0  0.49310  0.32880  0.59520  1.0000 0.1203775715
C   C14       1.0  0.67120  0.16430  0.59520  1.0000 0.1203775715
C   C15       1.0  0.83570  0.50690  0.59520  1.0000 0.1203775715
C   C16       1.0  0.50690  0.67120  0.40480  1.0000 0.1203775715
C   C17       1.0  0.32880  0.83570  0.40480  1.0000 0.1203775715
C   C18       1.0  0.16430  0.49310  0.40480  1.0000 0.1203775715
C   C19       1.0  0.50470  0.37120  0.88220  1.0000 0.0942372757
C   C20       1.0  0.62880  0.13350  0.88220  1.0000 0.0942372757
C   C21       1.0  0.86650  0.49530  0.88220  1.0000 0.0942372757
C   C22       1.0  0.49530  0.62880  0.11780  1.0000 0.0942372757
C   C23       1.0  0.37120  0.86650  0.11780  1.0000 0.0942372757
C   C24       1.0  0.13350  0.50470  0.11780  1.0000 0.0942372757
C   C25       1.0  0.50430  0.32270  0.76800  1.0000 -0.1903156263
C   C26       1.0  0.67730  0.18160  0.76800  1.0000 -0.1903156263
C   C27       1.0  0.81840  0.49570  0.76800  1.0000 -0.1903156263
C   C28       1.0  0.49570  0.67730  0.23200  1.0000 -0.1903156263
C   C29       1.0  0.32270  0.81840  0.23200  1.0000 -0.1903156263
C   C30       1.0  0.18160  0.50430  0.23200  1.0000 -0.1903156263
C   C31       1.0  0.49040  0.27750  0.46450  1.0000 0.0681457746
C   C32       1.0  0.72250  0.21290  0.46450  1.0000 0.0681457746
C   C33       1.0  0.78710  0.50960  0.46450  1.0000 0.0681457746
C   C34       1.0  0.50960  0.72250  0.53550  1.0000 0.0681457746
C   C35       1.0  0.27750  0.78710  0.53550  1.0000 0.0681457746
C   C36       1.0  0.21290  0.49040  0.53550  1.0000 0.0681457746
C   C37       1.0  0.44470  0.25960  0.32440  1.0000 -0.1312608194
C   C38       1.0  0.74040  0.18510  0.32440  1.0000 -0.1312608194
C   C39       1.0  0.81490  0.55530  0.32440  1.0000 -0.1312608194
C   C40       1.0  0.55530  0.74040  0.67560  1.0000 -0.1312608194
C   C41       1.0  0.25960  0.81490  0.67560  1.0000 -0.1312608194
C   C42       1.0  0.18510  0.44470  0.67560  1.0000 -0.1312608194
C   C43       1.0  0.43830  0.20970  0.20560  1.0000 -0.119471885
C   C44       1.0  0.79030  0.22860  0.20560  1.0000 -0.119471885
C   C45       1.0  0.77140  0.56170  0.20560  1.0000 -0.119471885
C   C46       1.0  0.56170  0.79030  0.79440  1.0000 -0.119471885
C   C47       1.0  0.20970  0.77140  0.79440  1.0000 -0.119471885
C   C48       1.0  0.22860  0.43830  0.79440  1.0000 -0.119471885
C   C49       1.0  0.48050  0.17700  0.21980  1.0000 0.0002659448
C   C50       1.0  0.82300  0.30350  0.21980  1.0000 0.0002659448
C   C51       1.0  0.69650  0.51950  0.21980  1.0000 0.0002659448
C   C52       1.0  0.51950  0.82300  0.78020  1.0000 0.0002659448
C   C53       1.0  0.17700  0.69650  0.78020  1.0000 0.0002659448
C   C54       1.0  0.30350  0.48050  0.78020  1.0000 0.0002659448
C   C55       1.0  0.52920  0.19770  0.35630  1.0000 -0.10071498
C   C56       1.0  0.80230  0.33150  0.35630  1.0000 -0.10071498
C   C57       1.0  0.66850  0.47080  0.35630  1.0000 -0.10071498
C   C58       1.0  0.47080  0.80230  0.64370  1.0000 -0.10071498
C   C59       1.0  0.19770  0.66850  0.64370  1.0000 -0.10071498
C   C60       1.0  0.33150  0.52920  0.64370  1.0000 -0.10071498
C   C61       1.0  0.53430  0.24660  0.47690  1.0000 -0.1548492086
C   C62       1.0  0.75340  0.28770  0.47690  1.0000 -0.1548492086
C   C63       1.0  0.71230  0.46570  0.47690  1.0000 -0.1548492086
C   C64       1.0  0.46570  0.75340  0.52310  1.0000 -0.1553875279
C   C65       1.0  0.24660  0.71230  0.52310  1.0000 -0.1553875279
C   C66       1.0  0.28770  0.53430  0.52310  1.0000 -0.1553875279
C   C67       1.0  0.47410  0.12180  0.09690  1.0000 0.4016826529
C   C68       1.0  0.87820  0.35230  0.09690  1.0000 0.4016826529
C   C69       1.0  0.64770  0.52590  0.09690  1.0000 0.4016826529
C   C70       1.0  0.52590  0.87820  0.90310  1.0000 0.4016826529
C   C71       1.0  0.12180  0.64770  0.90310  1.0000 0.4016826529
C   C72       1.0  0.35230  0.47410  0.90310  1.0000 0.4016826529
C   C73       1.0  0.43650  0.11200  0.93910  1.0000 -0.4263295752
C   C74       1.0  0.88800  0.32450  0.93910  1.0000 -0.4263295752
C   C75       1.0  0.67550  0.56350  0.93910  1.0000 -0.4263295752
C   C76       1.0  0.56350  0.88800  0.06090  1.0000 -0.4263295752
C   C77       1.0  0.11200  0.67550  0.06090  1.0000 -0.4263295752
C   C78       1.0  0.32450  0.43650  0.06090  1.0000 -0.4263295752
C   C79       1.0  0.41450  0.05500  0.83060  1.0000 0.2104357409
C   C80       1.0  0.94500  0.35950  0.83060  1.0000 0.2104357409
C   C81       1.0  0.64050  0.58550  0.83060  1.0000 0.2104357409
C   C82       1.0  0.58550  0.94500  0.16940  1.0000 0.2104357409
C   C83       1.0  0.05500  0.64050  0.16940  1.0000 0.2104357409
C   C84       1.0  0.35950  0.41450  0.16940  1.0000 0.2104357409
C   C85       1.0  0.37380  0.05500  0.67110  1.0000 0.6117045857
C   C86       1.0  0.94500  0.31880  0.67110  1.0000 0.6117045857
C   C87       1.0  0.68120  0.62620  0.67110  1.0000 0.6117045857
C   C88       1.0  0.62620  0.94500  0.32890  1.0000 0.6117045857
C   C89       1.0  0.05500  0.68120  0.32890  1.0000 0.6117045857
C   C90       1.0  0.31880  0.37380  0.32890  1.0000 0.6117045857
N   N1        1.0  0.49523  0.42559  0.83560  1.0000 -0.2243169767
N   N2        1.0  0.57441  0.06964  0.83560  1.0000 -0.2243169767
N   N3        1.0  0.93036  0.50477  0.83560  1.0000 -0.2243169767
N   N4        1.0  0.50477  0.57441  0.16440  1.0000 -0.2243169767
N   N5        1.0  0.42559  0.93036  0.16440  1.0000 -0.2243169767
N   N6        1.0  0.06964  0.49523  0.16440  1.0000 -0.2243169767
O   O1        1.0  0.42226  0.00073  0.83780  1.0000 -0.4604068619
O   O2        1.0  0.99927  0.42153  0.83780  1.0000 -0.4604068619
O   O3        1.0  0.57847  0.57774  0.83780  1.0000 -0.4604068619
O   O4        1.0  0.57774  0.99927  0.16220  1.0000 -0.4604068619
O   O5        1.0  0.00073  0.57847  0.16220  1.0000 -0.4604068619
O   O6        1.0  0.42153  0.42226  0.16220  1.0000 -0.4604068619
O   O7        1.0  0.50349  0.08603  0.14060  1.0000 -0.4920507543
O   O8        1.0  0.91397  0.41746  0.14060  1.0000 -0.4920507543
O   O9        1.0  0.58254  0.49651  0.14060  1.0000 -0.4920507543
O   O10       1.0  0.49651  0.91397  0.85940  1.0000 -0.4920507543
O   O11       1.0  0.08603  0.58254  0.85940  1.0000 -0.4920507543
O   O12       1.0  0.41746  0.50349  0.85940  1.0000 -0.4920507543
F   F1        1.0  0.40670  0.05394  0.52840  1.0000 -0.200702734
F   F2        1.0  0.94606  0.35276  0.52840  1.0000 -0.200702734
F   F3        1.0  0.64724  0.59330  0.52840  1.0000 -0.200702734
F   F4        1.0  0.59330  0.94606  0.47160  1.0000 -0.200702734
F   F5        1.0  0.05394  0.64724  0.47160  1.0000 -0.200702734
F   F6        1.0  0.35276  0.40670  0.47160  1.0000 -0.200702734
F   F7        1.0  0.30760  0.99540  0.66980  1.0000 -0.2085686994
F   F8        1.0  0.00460  0.31220  0.66980  1.0000 -0.2085686994
F   F9        1.0  0.68780  0.69240  0.66980  1.0000 -0.2085686994
F   F10       1.0  0.69240  0.00460  0.33020  1.0000 -0.2085686994
F   F11       1.0  0.99540  0.68780  0.33020  1.0000 -0.2085686994
F   F12       1.0  0.31220  0.30760  0.33020  1.0000 -0.2085686994
F   F13       1.0  0.36250  0.11042  0.65770  1.0000 -0.200702734
F   F14       1.0  0.88958  0.25208  0.65770  1.0000 -0.200702734
F   F15       1.0  0.74792  0.63750  0.65770  1.0000 -0.200702734
F   F16       1.0  0.63750  0.88958  0.34230  1.0000 -0.200702734
F   F17       1.0  0.11042  0.74792  0.34230  1.0000 -0.200702734
F   F18       1.0  0.25208  0.36250  0.34230  1.0000 -0.200702734
