# DDEC6 charges by PACMAN v1.1 (https://github.com/mtap-research/PACMAN-charge/)
data_2016[ZnCu][idp]3[ASR]1
_chemical_formula_sum              "Zn16 Cu6 H120 C252 N12 O88"
_cell_length_a       29.2329
_cell_length_b       29.2329
_cell_length_c       29.2329
_cell_angle_alpha    109.471
_cell_angle_beta     109.471
_cell_angle_gamma    109.471

_symmetry_space_group_name_H-M    "P 1"
_symmetry_Int_Tables_number       1

loop_
  _symmetry_equiv_pos_as_xyz
  'x, y, z'

loop_
  _atom_site_type_symbol
  _atom_site_label
  _atom_site_symmetry_multiplicity
  _atom_site_fract_x
  _atom_site_fract_y
  _atom_site_fract_z
  _atom_site_occupancy
  _atom_site_charge
Zn  Zn1       1.0  0.57023  0.52765  0.49450  1.0000 0.9455123793
Zn  Zn2       1.0  0.03315  0.07573  0.50550  1.0000 0.9455123793
Zn  Zn3       1.0  0.42977  0.92427  0.95742  1.0000 0.9455123793
Zn  Zn4       1.0  0.49450  0.57023  0.52765  1.0000 0.9442217174
Zn  Zn5       1.0  0.96685  0.47235  0.04258  1.0000 0.9442217174
Zn  Zn6       1.0  0.50550  0.03315  0.07573  1.0000 0.9455123793
Zn  Zn7       1.0  0.04258  0.96685  0.47235  1.0000 0.9442217174
Zn  Zn8       1.0  0.95742  0.42977  0.92427  1.0000 0.9455123793
Zn  Zn9       1.0  0.52765  0.49450  0.57023  1.0000 0.9455123793
Zn  Zn10      1.0  0.07573  0.50550  0.03315  1.0000 0.9455123793
Zn  Zn11      1.0  0.92427  0.95742  0.42977  1.0000 0.9442217174
Zn  Zn12      1.0  0.47235  0.04258  0.96685  1.0000 0.9455123793
Zn  Zn13      1.0  0.44132  0.44132  0.44132  1.0000 0.9442217174
Zn  Zn14      1.0  0.00000  0.00000  0.55868  1.0000 0.9442217174
Zn  Zn15      1.0  0.55868  0.00000  0.00000  1.0000 0.9455123793
Zn  Zn16      1.0  0.00000  0.55868  0.00000  1.0000 0.9442217174
Cu  Cu1       1.0  0.50000  0.46119  0.96119  1.0000 0.8539761356
Cu  Cu2       1.0  0.50000  0.53881  0.03881  1.0000 0.8539761356
Cu  Cu3       1.0  0.96119  0.50000  0.46119  1.0000 0.8539761356
Cu  Cu4       1.0  0.03881  0.50000  0.53881  1.0000 0.8539761356
Cu  Cu5       1.0  0.46119  0.96119  0.50000  1.0000 0.8539761356
Cu  Cu6       1.0  0.53881  0.03881  0.50000  1.0000 0.8539761356
H   H1        1.0  0.57960  0.44350  0.35510  1.0000 0.1241117331
H   H2        1.0  0.08840  0.22450  0.64490  1.0000 0.1315918267
H   H3        1.0  0.42040  0.77550  0.86390  1.0000 0.1241117331
H   H4        1.0  0.35510  0.57960  0.44350  1.0000 0.1241117331
H   H5        1.0  0.91160  0.55650  0.13610  1.0000 0.1241117331
H   H6        1.0  0.64490  0.08840  0.22450  1.0000 0.1241117331
H   H7        1.0  0.13610  0.91160  0.55650  1.0000 0.1241117331
H   H8        1.0  0.86390  0.42040  0.77550  1.0000 0.1241117331
H   H9        1.0  0.44350  0.35510  0.57960  1.0000 0.1241117331
H   H10       1.0  0.22450  0.64490  0.08840  1.0000 0.1241117331
H   H11       1.0  0.77550  0.86390  0.42040  1.0000 0.1241117331
H   H12       1.0  0.55650  0.13610  0.91160  1.0000 0.1241117331
H   H13       1.0  0.58050  0.40050  0.27300  1.0000 0.1363973811
H   H14       1.0  0.12750  0.30750  0.72700  1.0000 0.1363973811
H   H15       1.0  0.41950  0.69250  0.82000  1.0000 0.1363973811
H   H16       1.0  0.27300  0.58050  0.40050  1.0000 0.1363973811
H   H17       1.0  0.87250  0.59950  0.18000  1.0000 0.1363973811
H   H18       1.0  0.72700  0.12750  0.30750  1.0000 0.1363973811
H   H19       1.0  0.18000  0.87250  0.59950  1.0000 0.1363973811
H   H20       1.0  0.82000  0.41950  0.69250  1.0000 0.1363973811
H   H21       1.0  0.40050  0.27300  0.58050  1.0000 0.1363973811
H   H22       1.0  0.30750  0.72700  0.12750  1.0000 0.1363973811
H   H23       1.0  0.69250  0.82000  0.41950  1.0000 0.1363973811
H   H24       1.0  0.59950  0.18000  0.87250  1.0000 0.1363973811
H   H25       1.0  0.41440  0.30670  0.19510  1.0000 0.1363973811
H   H26       1.0  0.11160  0.21930  0.80490  1.0000 0.1363973811
H   H27       1.0  0.58560  0.78070  0.89230  1.0000 0.1363973811
H   H28       1.0  0.19510  0.41440  0.30670  1.0000 0.1363973811
H   H29       1.0  0.88840  0.69330  0.10770  1.0000 0.1363973811
H   H30       1.0  0.80490  0.11160  0.21930  1.0000 0.1363973811
H   H31       1.0  0.10770  0.88840  0.69330  1.0000 0.1363973811
H   H32       1.0  0.89230  0.58560  0.78070  1.0000 0.1363973811
H   H33       1.0  0.30670  0.19510  0.41440  1.0000 0.1363973811
H   H34       1.0  0.21930  0.80490  0.11160  1.0000 0.1363973811
H   H35       1.0  0.78070  0.89230  0.58560  1.0000 0.1363973811
H   H36       1.0  0.69330  0.10770  0.88840  1.0000 0.1363973811
H   H37       1.0  0.41440  0.35140  0.27780  1.0000 0.1241117331
H   H38       1.0  0.07360  0.13660  0.72220  1.0000 0.1241117331
H   H39       1.0  0.58560  0.86340  0.93700  1.0000 0.1241117331
H   H40       1.0  0.27780  0.41440  0.35140  1.0000 0.1241117331
H   H41       1.0  0.92640  0.64860  0.06300  1.0000 0.1241117331
H   H42       1.0  0.72220  0.07360  0.13660  1.0000 0.1241117331
H   H43       1.0  0.06300  0.92640  0.64860  1.0000 0.1241117331
H   H44       1.0  0.93700  0.58560  0.86340  1.0000 0.1241117331
H   H45       1.0  0.35140  0.27780  0.41440  1.0000 0.1241117331
H   H46       1.0  0.13660  0.72220  0.07360  1.0000 0.1241117331
H   H47       1.0  0.86340  0.93700  0.58560  1.0000 0.1241117331
H   H48       1.0  0.64860  0.06300  0.92640  1.0000 0.1241117331
H   H49       1.0  0.49810  0.42610  0.19880  1.0000 0.1315918267
H   H50       1.0  0.22730  0.29930  0.80120  1.0000 0.1315918267
H   H51       1.0  0.50190  0.70070  0.92800  1.0000 0.1315918267
H   H52       1.0  0.19880  0.49810  0.42610  1.0000 0.1315918267
H   H53       1.0  0.77270  0.57390  0.07200  1.0000 0.1315918267
H   H54       1.0  0.80120  0.22730  0.29930  1.0000 0.1315918267
H   H55       1.0  0.07200  0.77270  0.57390  1.0000 0.1315918267
H   H56       1.0  0.92800  0.50190  0.70070  1.0000 0.1315918267
H   H57       1.0  0.42610  0.19880  0.49810  1.0000 0.1315918267
H   H58       1.0  0.29930  0.80120  0.22730  1.0000 0.1315918267
H   H59       1.0  0.70070  0.92800  0.50190  1.0000 0.1315918267
H   H60       1.0  0.57390  0.07200  0.77270  1.0000 0.1315918267
H   H61       1.0  0.50100  0.47380  0.15120  1.0000 0.1315918267
H   H62       1.0  0.32260  0.34980  0.84880  1.0000 0.1315918267
H   H63       1.0  0.49900  0.65020  0.97280  1.0000 0.1315918267
H   H64       1.0  0.15120  0.50100  0.47380  1.0000 0.1315918267
H   H65       1.0  0.67740  0.52620  0.02720  1.0000 0.1315918267
H   H66       1.0  0.84880  0.32260  0.34980  1.0000 0.1315918267
H   H67       1.0  0.02720  0.67740  0.52620  1.0000 0.1315918267
H   H68       1.0  0.97280  0.49900  0.65020  1.0000 0.1315918267
H   H69       1.0  0.47380  0.15120  0.50100  1.0000 0.1315918267
H   H70       1.0  0.34980  0.84880  0.32260  1.0000 0.1315918267
H   H71       1.0  0.65020  0.97280  0.49900  1.0000 0.1315918267
H   H72       1.0  0.52620  0.02720  0.67740  1.0000 0.1315918267
H   H73       1.0  0.49520  0.35190  0.03130  1.0000 0.1566973287
H   H74       1.0  0.32060  0.46390  0.96870  1.0000 0.1566973287
H   H75       1.0  0.50480  0.53610  0.85670  1.0000 0.1566973287
H   H76       1.0  0.03130  0.49520  0.35190  1.0000 0.1566973287
H   H77       1.0  0.67940  0.64810  0.14330  1.0000 0.1566973287
H   H78       1.0  0.96870  0.32060  0.46390  1.0000 0.1566973287
H   H79       1.0  0.14330  0.67940  0.64810  1.0000 0.1566973287
H   H80       1.0  0.85670  0.50480  0.53610  1.0000 0.1566973287
H   H81       1.0  0.35190  0.03130  0.49520  1.0000 0.1566973287
H   H82       1.0  0.46390  0.96870  0.32060  1.0000 0.1566973287
H   H83       1.0  0.53610  0.85670  0.50480  1.0000 0.1566973287
H   H84       1.0  0.64810  0.14330  0.67940  1.0000 0.1566973287
H   H85       1.0  0.49880  0.26080  0.21140  1.0000 0.1315918267
H   H86       1.0  0.04940  0.28740  0.78860  1.0000 0.1315918267
H   H87       1.0  0.50120  0.71260  0.76200  1.0000 0.1315918267
H   H88       1.0  0.21140  0.49880  0.26080  1.0000 0.1315918267
H   H89       1.0  0.95060  0.73920  0.23800  1.0000 0.1315918267
H   H90       1.0  0.78860  0.04940  0.28740  1.0000 0.1315918267
H   H91       1.0  0.23800  0.95060  0.73920  1.0000 0.1315918267
H   H92       1.0  0.76200  0.50120  0.71260  1.0000 0.1315918267
H   H93       1.0  0.26080  0.21140  0.49880  1.0000 0.1315918267
H   H94       1.0  0.28740  0.78860  0.04940  1.0000 0.1315918267
H   H95       1.0  0.71260  0.76200  0.50120  1.0000 0.1315918267
H   H96       1.0  0.73920  0.23800  0.95060  1.0000 0.1315918267
H   H97       1.0  0.50100  0.17890  0.17170  1.0000 0.1241117331
H   H98       1.0  0.00720  0.32930  0.82830  1.0000 0.1241117331
H   H99       1.0  0.49900  0.67070  0.67790  1.0000 0.1241117331
H   H100      1.0  0.17170  0.50100  0.17890  1.0000 0.1241117331
H   H101      1.0  0.99280  0.82110  0.32210  1.0000 0.1241117331
H   H102      1.0  0.82830  0.00720  0.32930  1.0000 0.1241117331
H   H103      1.0  0.32210  0.99280  0.82110  1.0000 0.1241117331
H   H104      1.0  0.67790  0.49900  0.67070  1.0000 0.1241117331
H   H105      1.0  0.17890  0.17170  0.50100  1.0000 0.1241117331
H   H106      1.0  0.32930  0.82830  0.00720  1.0000 0.1241117331
H   H107      1.0  0.67070  0.67790  0.49900  1.0000 0.1241117331
H   H108      1.0  0.82110  0.32210  0.99280  1.0000 0.1241117331
H   H109      1.0  0.49030  0.19670  0.03940  1.0000 0.154553185
H   H110      1.0  0.15730  0.45090  0.96060  1.0000 0.154553185
H   H111      1.0  0.50970  0.54910  0.70640  1.0000 0.154553185
H   H112      1.0  0.03940  0.49030  0.19670  1.0000 0.154553185
H   H113      1.0  0.84270  0.80330  0.29360  1.0000 0.154553185
H   H114      1.0  0.96060  0.15730  0.45090  1.0000 0.154553185
H   H115      1.0  0.29360  0.84270  0.80330  1.0000 0.154553185
H   H116      1.0  0.70640  0.50970  0.54910  1.0000 0.154553185
H   H117      1.0  0.19670  0.03940  0.49030  1.0000 0.154553185
H   H118      1.0  0.45090  0.96060  0.15730  1.0000 0.154553185
H   H119      1.0  0.54910  0.70640  0.50970  1.0000 0.154553185
H   H120      1.0  0.80330  0.29360  0.84270  1.0000 0.154553185
C   C1        1.0  0.49960  0.43114  0.37874  1.0000 0.5927484285
C   C2        1.0  0.05240  0.12086  0.62126  1.0000 0.5927484285
C   C3        1.0  0.50040  0.87914  0.93154  1.0000 0.5927484285
C   C4        1.0  0.37874  0.49960  0.43114  1.0000 0.5927484285
C   C5        1.0  0.94760  0.56886  0.06846  1.0000 0.5927484285
C   C6        1.0  0.62126  0.05240  0.12086  1.0000 0.5927484285
C   C7        1.0  0.06846  0.94760  0.56886  1.0000 0.5927484285
C   C8        1.0  0.93154  0.50040  0.87914  1.0000 0.5927484285
C   C9        1.0  0.43114  0.37874  0.49960  1.0000 0.5927484285
C   C10       1.0  0.12086  0.62126  0.05240  1.0000 0.5927484285
C   C11       1.0  0.87914  0.93154  0.50040  1.0000 0.5927484285
C   C12       1.0  0.56886  0.06846  0.94760  1.0000 0.5927484285
C   C13       1.0  0.49780  0.40146  0.32506  1.0000 -0.0699656331
C   C14       1.0  0.07640  0.17274  0.67494  1.0000 -0.0699656331
C   C15       1.0  0.50220  0.82726  0.90366  1.0000 -0.0699656331
C   C16       1.0  0.32506  0.49780  0.40146  1.0000 -0.0699656331
C   C17       1.0  0.92360  0.59854  0.09634  1.0000 -0.0699656331
C   C18       1.0  0.67494  0.07640  0.17274  1.0000 -0.0699656331
C   C19       1.0  0.09634  0.92360  0.59854  1.0000 -0.0699656331
C   C20       1.0  0.90366  0.50220  0.82726  1.0000 -0.0699656331
C   C21       1.0  0.40146  0.32506  0.49780  1.0000 -0.0699656331
C   C22       1.0  0.17274  0.67494  0.07640  1.0000 -0.0699656331
C   C23       1.0  0.82726  0.90366  0.50220  1.0000 -0.0699656331
C   C24       1.0  0.59854  0.09634  0.92360  1.0000 -0.0699656331
C   C25       1.0  0.54590  0.41580  0.32250  1.0000 -0.0815150646
C   C26       1.0  0.09330  0.22340  0.67750  1.0000 -0.0815150646
C   C27       1.0  0.45410  0.77660  0.86990  1.0000 -0.0815150646
C   C28       1.0  0.32250  0.54590  0.41580  1.0000 -0.0815150646
C   C29       1.0  0.90670  0.58420  0.13010  1.0000 -0.0815150646
C   C30       1.0  0.67750  0.09330  0.22340  1.0000 -0.0815150646
C   C31       1.0  0.13010  0.90670  0.58420  1.0000 -0.0815150646
C   C32       1.0  0.86990  0.45410  0.77660  1.0000 -0.0815150646
C   C33       1.0  0.41580  0.32250  0.54590  1.0000 -0.0815150646
C   C34       1.0  0.22340  0.67750  0.09330  1.0000 -0.0815150646
C   C35       1.0  0.77660  0.86990  0.45410  1.0000 -0.0815150646
C   C36       1.0  0.58420  0.13010  0.90670  1.0000 -0.0815150646
C   C37       1.0  0.54700  0.39080  0.27340  1.0000 -0.1906645173
C   C38       1.0  0.11740  0.27360  0.72660  1.0000 -0.1906645173
C   C39       1.0  0.45300  0.72640  0.84380  1.0000 -0.1906645173
C   C40       1.0  0.27340  0.54700  0.39080  1.0000 -0.1906645173
C   C41       1.0  0.88260  0.60920  0.15620  1.0000 -0.1906645173
C   C42       1.0  0.72660  0.11740  0.27360  1.0000 -0.1906645173
C   C43       1.0  0.15620  0.88260  0.60920  1.0000 -0.1906645173
C   C44       1.0  0.84380  0.45300  0.72640  1.0000 -0.1906645173
C   C45       1.0  0.39080  0.27340  0.54700  1.0000 -0.1906645173
C   C46       1.0  0.27360  0.72660  0.11740  1.0000 -0.1906645173
C   C47       1.0  0.72640  0.84380  0.45300  1.0000 -0.1906645173
C   C48       1.0  0.60920  0.15620  0.88260  1.0000 -0.1906645173
C   C49       1.0  0.49570  0.35110  0.22520  1.0000 0.1566973287
C   C50       1.0  0.12590  0.27050  0.77480  1.0000 0.1566973287
C   C51       1.0  0.50430  0.72950  0.85540  1.0000 0.1566973287
C   C52       1.0  0.22520  0.49570  0.35110  1.0000 0.1566973287
C   C53       1.0  0.87410  0.64890  0.14460  1.0000 0.1566973287
C   C54       1.0  0.77480  0.12590  0.27050  1.0000 0.1566973287
C   C55       1.0  0.14460  0.87410  0.64890  1.0000 0.1566973287
C   C56       1.0  0.85540  0.50430  0.72950  1.0000 0.1566973287
C   C57       1.0  0.35110  0.22520  0.49570  1.0000 0.1566973287
C   C58       1.0  0.27050  0.77480  0.12590  1.0000 0.1566973287
C   C59       1.0  0.72950  0.85540  0.50430  1.0000 0.1566973287
C   C60       1.0  0.64890  0.14460  0.87410  1.0000 0.1566973287
C   C61       1.0  0.44800  0.33540  0.22740  1.0000 -0.180351774
C   C62       1.0  0.10800  0.22060  0.77260  1.0000 -0.180351774
C   C63       1.0  0.55200  0.77940  0.88740  1.0000 -0.180351774
C   C64       1.0  0.22740  0.44800  0.33540  1.0000 -0.180351774
C   C65       1.0  0.89200  0.66460  0.11260  1.0000 -0.180351774
C   C66       1.0  0.77260  0.10800  0.22060  1.0000 -0.180351774
C   C67       1.0  0.11260  0.89200  0.66460  1.0000 -0.180351774
C   C68       1.0  0.88740  0.55200  0.77940  1.0000 -0.180351774
C   C69       1.0  0.33540  0.22740  0.44800  1.0000 -0.180351774
C   C70       1.0  0.22060  0.77260  0.10800  1.0000 -0.180351774
C   C71       1.0  0.77940  0.88740  0.55200  1.0000 -0.180351774
C   C72       1.0  0.66460  0.11260  0.89200  1.0000 -0.180351774
C   C73       1.0  0.44780  0.36130  0.27730  1.0000 -0.0815150646
C   C74       1.0  0.08400  0.17050  0.72270  1.0000 -0.0815150646
C   C75       1.0  0.55220  0.82950  0.91350  1.0000 -0.0815150646
C   C76       1.0  0.27730  0.44780  0.36130  1.0000 -0.0815150646
C   C77       1.0  0.91600  0.63870  0.08650  1.0000 -0.0815150646
C   C78       1.0  0.72270  0.08400  0.17050  1.0000 -0.0815150646
C   C79       1.0  0.08650  0.91600  0.63870  1.0000 -0.0815150646
C   C80       1.0  0.91350  0.55220  0.82950  1.0000 -0.0815150646
C   C81       1.0  0.36130  0.27730  0.44780  1.0000 -0.0815150646
C   C82       1.0  0.17050  0.72270  0.08400  1.0000 -0.0815150646
C   C83       1.0  0.82950  0.91350  0.55220  1.0000 -0.0815150646
C   C84       1.0  0.63870  0.08650  0.91600  1.0000 -0.0815150646
C   C85       1.0  0.49440  0.35971  0.14411  1.0000 0.0681125064
C   C86       1.0  0.21560  0.35029  0.85589  1.0000 0.0681125064
C   C87       1.0  0.50560  0.64971  0.86531  1.0000 0.0681125064
C   C88       1.0  0.14411  0.49440  0.35971  1.0000 0.0681125064
C   C89       1.0  0.78440  0.64029  0.13469  1.0000 0.0681125064
C   C90       1.0  0.85589  0.21560  0.35029  1.0000 0.0681125064
C   C91       1.0  0.13469  0.78440  0.64029  1.0000 0.0681125064
C   C92       1.0  0.86531  0.50560  0.64971  1.0000 0.0681125064
C   C93       1.0  0.35971  0.14411  0.49440  1.0000 0.0681125064
C   C94       1.0  0.35029  0.85589  0.21560  1.0000 0.0681125064
C   C95       1.0  0.64971  0.86531  0.50560  1.0000 0.0681125064
C   C96       1.0  0.64029  0.13469  0.78440  1.0000 0.0681125064
C   C97       1.0  0.49730  0.41070  0.16480  1.0000 -0.180351774
C   C98       1.0  0.24590  0.33250  0.83520  1.0000 -0.180351774
C   C99       1.0  0.50270  0.66750  0.91340  1.0000 -0.180351774
C   C100      1.0  0.16480  0.49730  0.41070  1.0000 -0.180351774
C   C101      1.0  0.75410  0.58930  0.08660  1.0000 -0.180351774
C   C102      1.0  0.83520  0.24590  0.33250  1.0000 -0.180351774
C   C103      1.0  0.08660  0.75410  0.58930  1.0000 -0.1906645173
C   C104      1.0  0.91340  0.50270  0.66750  1.0000 -0.180351774
C   C105      1.0  0.41070  0.16480  0.49730  1.0000 -0.180351774
C   C106      1.0  0.33250  0.83520  0.24590  1.0000 -0.180351774
C   C107      1.0  0.66750  0.91340  0.50270  1.0000 -0.180351774
C   C108      1.0  0.58930  0.08660  0.75410  1.0000 -0.180351774
C   C109      1.0  0.49900  0.43920  0.13620  1.0000 -0.0959828557
C   C110      1.0  0.30300  0.36280  0.86380  1.0000 -0.0959828557
C   C111      1.0  0.50100  0.63720  0.94020  1.0000 -0.0959828557
C   C112      1.0  0.13620  0.49900  0.43920  1.0000 -0.0959828557
C   C113      1.0  0.69700  0.56080  0.05980  1.0000 -0.0959828557
C   C114      1.0  0.86380  0.30300  0.36280  1.0000 -0.0959828557
C   C115      1.0  0.05980  0.69700  0.56080  1.0000 -0.0959828557
C   C116      1.0  0.94020  0.50100  0.63720  1.0000 -0.0959828557
C   C117      1.0  0.43920  0.13620  0.49900  1.0000 -0.0959828557
C   C118      1.0  0.36280  0.86380  0.30300  1.0000 -0.0959828557
C   C119      1.0  0.63720  0.94020  0.50100  1.0000 -0.0959828557
C   C120      1.0  0.56080  0.05980  0.69700  1.0000 -0.0941558752
C   C121      1.0  0.49800  0.41840  0.08580  1.0000 -0.0374383593
C   C122      1.0  0.33260  0.41220  0.91420  1.0000 -0.0374383593
C   C123      1.0  0.50200  0.58780  0.92040  1.0000 -0.0374383593
C   C124      1.0  0.08580  0.49800  0.41840  1.0000 -0.0374383593
C   C125      1.0  0.66740  0.58160  0.07960  1.0000 -0.0374383593
C   C126      1.0  0.91420  0.33260  0.41220  1.0000 -0.0374383593
C   C127      1.0  0.07960  0.66740  0.58160  1.0000 -0.0374383593
C   C128      1.0  0.92040  0.50200  0.58780  1.0000 -0.0374383593
C   C129      1.0  0.41840  0.08580  0.49800  1.0000 -0.0374383593
C   C130      1.0  0.41220  0.91420  0.33260  1.0000 -0.0374383593
C   C131      1.0  0.58780  0.92040  0.50200  1.0000 -0.0374383593
C   C132      1.0  0.58160  0.07960  0.66740  1.0000 -0.0374383593
C   C133      1.0  0.49540  0.36685  0.06485  1.0000 -0.1906645173
C   C134      1.0  0.30200  0.43055  0.93515  1.0000 -0.1906645173
C   C135      1.0  0.50460  0.56945  0.87145  1.0000 -0.1906645173
C   C136      1.0  0.06485  0.49540  0.36685  1.0000 -0.1906645173
C   C137      1.0  0.69800  0.63315  0.12855  1.0000 -0.1906645173
C   C138      1.0  0.93515  0.30200  0.43055  1.0000 -0.1906645173
C   C139      1.0  0.12855  0.69800  0.63315  1.0000 -0.1906645173
C   C140      1.0  0.87145  0.50460  0.56945  1.0000 -0.1906645173
C   C141      1.0  0.36685  0.06485  0.49540  1.0000 -0.1906645173
C   C142      1.0  0.43055  0.93515  0.30200  1.0000 -0.1906645173
C   C143      1.0  0.56945  0.87145  0.50460  1.0000 -0.1906645173
C   C144      1.0  0.63315  0.12855  0.69800  1.0000 -0.1906645173
C   C145      1.0  0.49310  0.33800  0.09290  1.0000 0.1677604071
C   C146      1.0  0.24510  0.40020  0.90710  1.0000 0.1677604071
C   C147      1.0  0.50690  0.59980  0.84490  1.0000 0.1677604071
C   C148      1.0  0.09290  0.49310  0.33800  1.0000 0.1677604071
C   C149      1.0  0.75490  0.66200  0.15510  1.0000 0.1677604071
C   C150      1.0  0.90710  0.24510  0.40020  1.0000 0.1677604071
C   C151      1.0  0.15510  0.75490  0.66200  1.0000 0.1677604071
C   C152      1.0  0.84490  0.50690  0.59980  1.0000 0.1677604071
C   C153      1.0  0.33800  0.09290  0.49310  1.0000 0.1677604071
C   C154      1.0  0.40020  0.90710  0.24510  1.0000 0.1677604071
C   C155      1.0  0.59980  0.84490  0.50690  1.0000 0.1677604071
C   C156      1.0  0.66200  0.15510  0.75490  1.0000 0.1677604071
C   C157      1.0  0.49070  0.25826  0.09716  1.0000 0.176042706
C   C158      1.0  0.16110  0.39354  0.90284  1.0000 0.176042706
C   C159      1.0  0.50930  0.60646  0.76756  1.0000 0.176042706
C   C160      1.0  0.09716  0.49070  0.25826  1.0000 0.176042706
C   C161      1.0  0.83890  0.74174  0.23244  1.0000 0.176042706
C   C162      1.0  0.90284  0.16110  0.39354  1.0000 0.176042706
C   C163      1.0  0.23244  0.83890  0.74174  1.0000 0.176042706
C   C164      1.0  0.76756  0.50930  0.60646  1.0000 0.176042706
C   C165      1.0  0.25826  0.09716  0.49070  1.0000 0.176042706
C   C166      1.0  0.39354  0.90284  0.16110  1.0000 0.176042706
C   C167      1.0  0.60646  0.76756  0.50930  1.0000 0.176042706
C   C168      1.0  0.74174  0.23244  0.83890  1.0000 0.176042706
C   C169      1.0  0.49570  0.27997  0.15087  1.0000 0.080895434
C   C170      1.0  0.12910  0.34483  0.84913  1.0000 0.080895434
C   C171      1.0  0.50430  0.65517  0.78427  1.0000 0.080895434
C   C172      1.0  0.15087  0.49570  0.27997  1.0000 0.080895434
C   C173      1.0  0.87090  0.72003  0.21573  1.0000 0.080895434
C   C174      1.0  0.84913  0.12910  0.34483  1.0000 0.080895434
C   C175      1.0  0.21573  0.87090  0.72003  1.0000 0.080895434
C   C176      1.0  0.78427  0.50430  0.65517  1.0000 0.080895434
C   C177      1.0  0.27997  0.15087  0.49570  1.0000 0.080895434
C   C178      1.0  0.34483  0.84913  0.12910  1.0000 0.080895434
C   C179      1.0  0.65517  0.78427  0.50430  1.0000 0.080895434
C   C180      1.0  0.72003  0.21573  0.87090  1.0000 0.080895434
C   C181      1.0  0.49760  0.24850  0.17710  1.0000 -0.1906645173
C   C182      1.0  0.07140  0.32050  0.82290  1.0000 -0.1906645173
C   C183      1.0  0.50240  0.67950  0.75090  1.0000 -0.1906645173
C   C184      1.0  0.17710  0.49760  0.24850  1.0000 -0.1906645173
C   C185      1.0  0.92860  0.75150  0.24910  1.0000 -0.1906645173
C   C186      1.0  0.82290  0.07140  0.32050  1.0000 -0.1906645173
C   C187      1.0  0.24910  0.92860  0.75150  1.0000 -0.1906645173
C   C188      1.0  0.75090  0.50240  0.67950  1.0000 -0.1906645173
C   C189      1.0  0.24850  0.17710  0.49760  1.0000 -0.1906645173
C   C190      1.0  0.32050  0.82290  0.07140  1.0000 -0.1906645173
C   C191      1.0  0.67950  0.75090  0.50240  1.0000 -0.1906645173
C   C192      1.0  0.75150  0.24910  0.92860  1.0000 -0.1906645173
C   C193      1.0  0.49780  0.19863  0.15283  1.0000 -0.0959828557
C   C194      1.0  0.04580  0.34497  0.84717  1.0000 -0.0959828557
C   C195      1.0  0.50220  0.65503  0.70083  1.0000 -0.0959828557
C   C196      1.0  0.15283  0.49780  0.19863  1.0000 -0.0959828557
C   C197      1.0  0.95420  0.80137  0.29917  1.0000 -0.0959828557
C   C198      1.0  0.84717  0.04580  0.34497  1.0000 -0.0959828557
C   C199      1.0  0.29917  0.95420  0.80137  1.0000 -0.0959828557
C   C200      1.0  0.70083  0.50220  0.65503  1.0000 -0.0959828557
C   C201      1.0  0.19863  0.15283  0.49780  1.0000 -0.0959828557
C   C202      1.0  0.34497  0.84717  0.04580  1.0000 -0.0959828557
C   C203      1.0  0.65503  0.70083  0.50220  1.0000 -0.0959828557
C   C204      1.0  0.80137  0.29917  0.95420  1.0000 -0.0959828557
C   C205      1.0  0.49330  0.17872  0.10062  1.0000 -0.0374383593
C   C206      1.0  0.07810  0.39268  0.89938  1.0000 -0.0374383593
C   C207      1.0  0.50670  0.60732  0.68542  1.0000 -0.0374383593
C   C208      1.0  0.10062  0.49330  0.17872  1.0000 -0.0374383593
C   C209      1.0  0.92190  0.82128  0.31458  1.0000 -0.0374383593
C   C210      1.0  0.89938  0.07810  0.39268  1.0000 -0.0374383593
C   C211      1.0  0.31458  0.92190  0.82128  1.0000 -0.0374383593
C   C212      1.0  0.68542  0.50670  0.60732  1.0000 -0.0374383593
C   C213      1.0  0.17872  0.10062  0.49330  1.0000 -0.0374383593
C   C214      1.0  0.39268  0.89938  0.07810  1.0000 -0.0374383593
C   C215      1.0  0.60732  0.68542  0.50670  1.0000 -0.0374383593
C   C216      1.0  0.82128  0.31458  0.92190  1.0000 -0.0348396499
C   C217      1.0  0.49130  0.20926  0.07356  1.0000 -0.2054158944
C   C218      1.0  0.13570  0.41774  0.92644  1.0000 -0.2054158944
C   C219      1.0  0.50870  0.58226  0.71796  1.0000 -0.2054158944
C   C220      1.0  0.07356  0.49130  0.20926  1.0000 -0.2054158944
C   C221      1.0  0.86430  0.79074  0.28204  1.0000 -0.2054158944
C   C222      1.0  0.92644  0.13570  0.41774  1.0000 -0.2054158944
C   C223      1.0  0.28204  0.86430  0.79074  1.0000 -0.2054158944
C   C224      1.0  0.71796  0.50870  0.58226  1.0000 -0.2054158944
C   C225      1.0  0.20926  0.07356  0.49130  1.0000 -0.2047198463
C   C226      1.0  0.41774  0.92644  0.13570  1.0000 -0.2054158944
C   C227      1.0  0.58226  0.71796  0.50870  1.0000 -0.2054158944
C   C228      1.0  0.79074  0.28204  0.86430  1.0000 -0.2054158944
C   C229      1.0  0.49900  0.44887  0.05413  1.0000 0.5744997215
C   C230      1.0  0.39474  0.44487  0.94587  1.0000 0.5744997215
C   C231      1.0  0.50100  0.55513  0.94987  1.0000 0.5744997215
C   C232      1.0  0.05413  0.49900  0.44887  1.0000 0.5744997215
C   C233      1.0  0.60526  0.55113  0.05013  1.0000 0.5744997215
C   C234      1.0  0.94587  0.39474  0.44487  1.0000 0.5744997215
C   C235      1.0  0.05013  0.60526  0.55113  1.0000 0.5744997215
C   C236      1.0  0.94987  0.50100  0.55513  1.0000 0.5744997215
C   C237      1.0  0.44887  0.05413  0.49900  1.0000 0.5744997215
C   C238      1.0  0.44487  0.94587  0.39474  1.0000 0.5744997215
C   C239      1.0  0.55513  0.94987  0.50100  1.0000 0.5744997215
C   C240      1.0  0.55113  0.05013  0.60526  1.0000 0.5744997215
C   C241      1.0  0.49240  0.12518  0.07198  1.0000 0.5927484285
C   C242      1.0  0.05320  0.42042  0.92802  1.0000 0.5927484285
C   C243      1.0  0.50760  0.57958  0.63278  1.0000 0.5927484285
C   C244      1.0  0.07198  0.49240  0.12518  1.0000 0.5927484285
C   C245      1.0  0.94680  0.87482  0.36722  1.0000 0.5927484285
C   C246      1.0  0.92802  0.05320  0.42042  1.0000 0.5927484285
C   C247      1.0  0.36722  0.94680  0.87482  1.0000 0.5927484285
C   C248      1.0  0.63278  0.50760  0.57958  1.0000 0.5927484285
C   C249      1.0  0.12518  0.07198  0.49240  1.0000 0.5927484285
C   C250      1.0  0.42042  0.92802  0.05320  1.0000 0.5927484285
C   C251      1.0  0.57958  0.63278  0.50760  1.0000 0.5927484285
C   C252      1.0  0.87482  0.36722  0.94680  1.0000 0.5927484285
N   N1        1.0  0.49360  0.32874  0.17214  1.0000 -0.1416428448
N   N2        1.0  0.15660  0.32146  0.82786  1.0000 -0.1416428448
N   N3        1.0  0.50640  0.67854  0.83514  1.0000 -0.1416428448
N   N4        1.0  0.17214  0.49360  0.32874  1.0000 -0.1416428448
N   N5        1.0  0.84340  0.67126  0.16486  1.0000 -0.1416428448
N   N6        1.0  0.82786  0.15660  0.32146  1.0000 -0.1416428448
N   N7        1.0  0.16486  0.84340  0.67126  1.0000 -0.1416428448
N   N8        1.0  0.83514  0.50640  0.67854  1.0000 -0.1416428448
N   N9        1.0  0.32874  0.17214  0.49360  1.0000 -0.1416428448
N   N10       1.0  0.32146  0.82786  0.15660  1.0000 -0.1416428448
N   N11       1.0  0.67854  0.83514  0.50640  1.0000 -0.1416428448
N   N12       1.0  0.67126  0.16486  0.84340  1.0000 -0.1416428448
O   O1        1.0  0.50744  0.50744  0.50744  1.0000 -1.0283732761
O   O2        1.0  0.00000  0.00000  0.49256  1.0000 -1.0283732761
O   O3        1.0  0.49256  0.00000  0.00000  1.0000 -1.0283732761
O   O4        1.0  0.00000  0.49256  0.00000  1.0000 -1.0283732761
O   O5        1.0  0.54564  0.47186  0.41866  1.0000 -0.5302849179
O   O6        1.0  0.05320  0.12698  0.58134  1.0000 -0.5302849179
O   O7        1.0  0.45436  0.87302  0.92622  1.0000 -0.5302849179
O   O8        1.0  0.41866  0.54564  0.47186  1.0000 -0.5302849179
O   O9        1.0  0.94680  0.52814  0.07378  1.0000 -0.5302849179
O   O10       1.0  0.58134  0.05320  0.12698  1.0000 -0.5302849179
O   O11       1.0  0.07378  0.94680  0.52814  1.0000 -0.5302849179
O   O12       1.0  0.92622  0.45436  0.87302  1.0000 -0.5302849179
O   O13       1.0  0.47186  0.41866  0.54564  1.0000 -0.5302849179
O   O14       1.0  0.12698  0.58134  0.05320  1.0000 -0.5302849179
O   O15       1.0  0.87302  0.92622  0.45436  1.0000 -0.5302849179
O   O16       1.0  0.52814  0.07378  0.94680  1.0000 -0.5302849179
O   O17       1.0  0.45452  0.41307  0.37925  1.0000 -0.5302849179
O   O18       1.0  0.03382  0.07527  0.62075  1.0000 -0.5302849179
O   O19       1.0  0.54548  0.92473  0.95855  1.0000 -0.5302849179
O   O20       1.0  0.37925  0.45452  0.41307  1.0000 -0.5302849179
O   O21       1.0  0.96618  0.58693  0.04145  1.0000 -0.5302849179
O   O22       1.0  0.62075  0.03382  0.07527  1.0000 -0.5302849179
O   O23       1.0  0.04145  0.96618  0.58693  1.0000 -0.5302849179
O   O24       1.0  0.95855  0.54548  0.92473  1.0000 -0.5302849179
O   O25       1.0  0.41307  0.37925  0.45452  1.0000 -0.5302849179
O   O26       1.0  0.07527  0.62075  0.03382  1.0000 -0.5302849179
O   O27       1.0  0.92473  0.95855  0.54548  1.0000 -0.5302849179
O   O28       1.0  0.58693  0.04145  0.96618  1.0000 -0.5302849179
O   O29       1.0  0.48770  0.28611  0.06781  1.0000 -0.1544136156
O   O30       1.0  0.21830  0.41989  0.93219  1.0000 -0.1544136156
O   O31       1.0  0.51230  0.58011  0.79841  1.0000 -0.1544136156
O   O32       1.0  0.06781  0.48770  0.28611  1.0000 -0.1544136156
O   O33       1.0  0.78170  0.71389  0.20159  1.0000 -0.1544136156
O   O34       1.0  0.93219  0.21830  0.41989  1.0000 -0.1544136156
O   O35       1.0  0.20159  0.78170  0.71389  1.0000 -0.1544136156
O   O36       1.0  0.79841  0.51230  0.58011  1.0000 -0.1544136156
O   O37       1.0  0.28611  0.06781  0.48770  1.0000 -0.1544136156
O   O38       1.0  0.41989  0.93219  0.21830  1.0000 -0.1544136156
O   O39       1.0  0.58011  0.79841  0.51230  1.0000 -0.1544136156
O   O40       1.0  0.71389  0.20159  0.78170  1.0000 -0.1544136156
O   O41       1.0  0.49806  0.42660  0.00862  1.0000 -0.5182891189
O   O42       1.0  0.41798  0.48944  0.99138  1.0000 -0.5182891189
O   O43       1.0  0.50194  0.51056  0.92854  1.0000 -0.5182891189
O   O44       1.0  0.00862  0.49806  0.42660  1.0000 -0.5182891189
O   O45       1.0  0.58202  0.57340  0.07146  1.0000 -0.5182891189
O   O46       1.0  0.99138  0.41798  0.48944  1.0000 -0.5182891189
O   O47       1.0  0.07146  0.58202  0.57340  1.0000 -0.5182891189
O   O48       1.0  0.92854  0.50194  0.51056  1.0000 -0.5182891189
O   O49       1.0  0.42660  0.00862  0.49806  1.0000 -0.5182891189
O   O50       1.0  0.48944  0.99138  0.41798  1.0000 -0.5182891189
O   O51       1.0  0.51056  0.92854  0.50194  1.0000 -0.5182891189
O   O52       1.0  0.57340  0.07146  0.58202  1.0000 -0.5182891189
O   O53       1.0  0.50136  0.49495  0.07609  1.0000 -0.5182891189
O   O54       1.0  0.41886  0.42527  0.92391  1.0000 -0.5182891189
O   O55       1.0  0.49864  0.57473  0.99359  1.0000 -0.5182891189
O   O56       1.0  0.07609  0.50136  0.49495  1.0000 -0.5182891189
O   O57       1.0  0.58114  0.50505  0.00641  1.0000 -0.5182891189
O   O58       1.0  0.92391  0.41886  0.42527  1.0000 -0.5182891189
O   O59       1.0  0.00641  0.58114  0.50505  1.0000 -0.5182891189
O   O60       1.0  0.99359  0.49864  0.57473  1.0000 -0.5182891189
O   O61       1.0  0.49495  0.07609  0.50136  1.0000 -0.5182891189
O   O62       1.0  0.42527  0.92391  0.41886  1.0000 -0.5182891189
O   O63       1.0  0.57473  0.99359  0.49864  1.0000 -0.5182891189
O   O64       1.0  0.50505  0.00641  0.58114  1.0000 -0.5182891189
O   O65       1.0  0.48107  0.10827  0.02238  1.0000 -0.5302849179
O   O66       1.0  0.08589  0.45869  0.97762  1.0000 -0.5302849179
O   O67       1.0  0.51893  0.54131  0.62720  1.0000 -0.5302849179
O   O68       1.0  0.02238  0.48107  0.10827  1.0000 -0.5302849179
O   O69       1.0  0.91411  0.89173  0.37280  1.0000 -0.5302849179
O   O70       1.0  0.97762  0.08589  0.45869  1.0000 -0.5302849179
O   O71       1.0  0.37280  0.91411  0.89173  1.0000 -0.5302849179
O   O72       1.0  0.62720  0.51893  0.54131  1.0000 -0.5302849179
O   O73       1.0  0.10827  0.02238  0.48107  1.0000 -0.5302849179
O   O74       1.0  0.45869  0.97762  0.08589  1.0000 -0.5302849179
O   O75       1.0  0.54131  0.62720  0.51893  1.0000 -0.5302849179
O   O76       1.0  0.89173  0.37280  0.91411  1.0000 -0.5302849179
O   O77       1.0  0.50053  0.10029  0.09962  1.0000 -0.5435382971
O   O78       1.0  0.00067  0.40091  0.90038  1.0000 -0.5435382971
O   O79       1.0  0.49947  0.59909  0.59976  1.0000 -0.5435382971
O   O80       1.0  0.09962  0.50053  0.10029  1.0000 -0.5435382971
O   O81       1.0  0.99933  0.89971  0.40024  1.0000 -0.5435382971
O   O82       1.0  0.90038  0.00067  0.40091  1.0000 -0.5435382971
O   O83       1.0  0.40024  0.99933  0.89971  1.0000 -0.5435382971
O   O84       1.0  0.59976  0.49947  0.59909  1.0000 -0.5435382971
O   O85       1.0  0.10029  0.09962  0.50053  1.0000 -0.5435382971
O   O86       1.0  0.40091  0.90038  0.00067  1.0000 -0.5435382971
O   O87       1.0  0.59909  0.59976  0.49947  1.0000 -0.5435382971
O   O88       1.0  0.89971  0.40024  0.99933  1.0000 -0.5435382971
