# DDEC6 charges by PACMAN v1.1 (https://github.com/mtap-research/PACMAN-charge/)
data_2016[Cu][nbo]3[ASR]29
_chemical_formula_sum              "Cu6 H90 C132 O30"
_cell_length_a       21.3046
_cell_length_b       21.3046
_cell_length_c       21.3046
_cell_angle_alpha    114.589
_cell_angle_beta     114.589
_cell_angle_gamma    114.589

_symmetry_space_group_name_H-M    "P 1"
_symmetry_Int_Tables_number       1

loop_
  _symmetry_equiv_pos_as_xyz
  'x, y, z'

loop_
  _atom_site_type_symbol
  _atom_site_label
  _atom_site_symmetry_multiplicity
  _atom_site_fract_x
  _atom_site_fract_y
  _atom_site_fract_z
  _atom_site_occupancy
  _atom_site_charge
Cu  Cu1       1.0  0.41732  0.41732  0.90727  1.0000 0.8406482445
Cu  Cu2       1.0  0.41732  0.90727  0.41732  1.0000 0.8406482445
Cu  Cu3       1.0  0.90727  0.41732  0.41732  1.0000 0.8406482445
Cu  Cu4       1.0  0.58268  0.58268  0.09273  1.0000 0.8406482445
Cu  Cu5       1.0  0.09273  0.58268  0.58268  1.0000 0.8406482445
Cu  Cu6       1.0  0.58268  0.09273  0.58268  1.0000 0.8406482445
H   H1        1.0  0.36310  0.53990  0.79250  1.0000 0.1136187924
H   H2        1.0  0.53990  0.79250  0.36310  1.0000 0.1136187924
H   H3        1.0  0.79250  0.36310  0.53990  1.0000 0.1136187924
H   H4        1.0  0.46010  0.63690  0.20750  1.0000 0.1136187924
H   H5        1.0  0.20750  0.46010  0.63690  1.0000 0.1136187924
H   H6        1.0  0.63690  0.20750  0.46010  1.0000 0.1136187924
H   H7        1.0  0.63690  0.46010  0.20750  1.0000 0.1136187924
H   H8        1.0  0.46010  0.20750  0.63690  1.0000 0.1136187924
H   H9        1.0  0.20750  0.63690  0.46010  1.0000 0.1136187924
H   H10       1.0  0.53990  0.36310  0.79250  1.0000 0.1136187924
H   H11       1.0  0.79250  0.53990  0.36310  1.0000 0.1136187924
H   H12       1.0  0.36310  0.79250  0.53990  1.0000 0.1136187924
H   H13       1.0  0.36590  0.63750  0.77010  1.0000 0.1293413447
H   H14       1.0  0.63750  0.77010  0.36590  1.0000 0.1293413447
H   H15       1.0  0.77010  0.36590  0.63750  1.0000 0.1293413447
H   H16       1.0  0.36250  0.63410  0.22990  1.0000 0.1293413447
H   H17       1.0  0.22990  0.36250  0.63410  1.0000 0.1293413447
H   H18       1.0  0.63410  0.22990  0.36250  1.0000 0.1293413447
H   H19       1.0  0.63410  0.36250  0.22990  1.0000 0.1293413447
H   H20       1.0  0.36250  0.22990  0.63410  1.0000 0.1293413447
H   H21       1.0  0.22990  0.63410  0.36250  1.0000 0.1293413447
H   H22       1.0  0.63750  0.36590  0.77010  1.0000 0.1293413447
H   H23       1.0  0.77010  0.63750  0.36590  1.0000 0.1293413447
H   H24       1.0  0.36590  0.77010  0.63750  1.0000 0.1293413447
H   H25       1.0  0.61580  0.87610  0.04810  1.0000 0.1192530566
H   H26       1.0  0.87610  0.04810  0.61580  1.0000 0.1192530566
H   H27       1.0  0.04810  0.61580  0.87610  1.0000 0.1192530566
H   H28       1.0  0.12390  0.38420  0.95190  1.0000 0.1192530566
H   H29       1.0  0.95190  0.12390  0.38420  1.0000 0.1192530566
H   H30       1.0  0.38420  0.95190  0.12390  1.0000 0.1192530566
H   H31       1.0  0.38420  0.12390  0.95190  1.0000 0.1192530566
H   H32       1.0  0.12390  0.95190  0.38420  1.0000 0.1192530566
H   H33       1.0  0.95190  0.38420  0.12390  1.0000 0.1192530566
H   H34       1.0  0.87610  0.61580  0.04810  1.0000 0.1192530566
H   H35       1.0  0.04810  0.87610  0.61580  1.0000 0.1192530566
H   H36       1.0  0.61580  0.04810  0.87610  1.0000 0.1192530566
H   H37       1.0  0.61960  0.78180  0.07290  1.0000 0.1192530566
H   H38       1.0  0.78180  0.07290  0.61960  1.0000 0.1192530566
H   H39       1.0  0.07290  0.61960  0.78180  1.0000 0.1192530566
H   H40       1.0  0.21820  0.38040  0.92710  1.0000 0.1192530566
H   H41       1.0  0.92710  0.21820  0.38040  1.0000 0.1192530566
H   H42       1.0  0.38040  0.92710  0.21820  1.0000 0.1192530566
H   H43       1.0  0.38040  0.21820  0.92710  1.0000 0.1192530566
H   H44       1.0  0.21820  0.92710  0.38040  1.0000 0.1192530566
H   H45       1.0  0.92710  0.38040  0.21820  1.0000 0.1192530566
H   H46       1.0  0.78180  0.61960  0.07290  1.0000 0.1192530566
H   H47       1.0  0.07290  0.78180  0.61960  1.0000 0.1192530566
H   H48       1.0  0.61960  0.07290  0.78180  1.0000 0.1192530566
H   H49       1.0  0.49760  0.89940  0.01010  1.0000 0.1136187924
H   H50       1.0  0.89940  0.01010  0.49760  1.0000 0.1136187924
H   H51       1.0  0.01010  0.49760  0.89940  1.0000 0.1136187924
H   H52       1.0  0.10060  0.50240  0.98990  1.0000 0.1136187924
H   H53       1.0  0.98990  0.10060  0.50240  1.0000 0.1136187924
H   H54       1.0  0.50240  0.98990  0.10060  1.0000 0.1136187924
H   H55       1.0  0.50240  0.10060  0.98990  1.0000 0.1136187924
H   H56       1.0  0.10060  0.98990  0.50240  1.0000 0.1136187924
H   H57       1.0  0.98990  0.50240  0.10060  1.0000 0.1136187924
H   H58       1.0  0.89940  0.49760  0.01010  1.0000 0.1136187924
H   H59       1.0  0.01010  0.89940  0.49760  1.0000 0.1136187924
H   H60       1.0  0.49760  0.01010  0.89940  1.0000 0.1136187924
H   H61       1.0  0.59910  0.86620  0.82270  1.0000 0.0815157363
H   H62       1.0  0.86620  0.82270  0.59910  1.0000 0.0815157363
H   H63       1.0  0.82270  0.59910  0.86620  1.0000 0.0815157363
H   H64       1.0  0.13380  0.40090  0.17730  1.0000 0.0815157363
H   H65       1.0  0.17730  0.13380  0.40090  1.0000 0.0815157363
H   H66       1.0  0.40090  0.17730  0.13380  1.0000 0.0815157363
H   H67       1.0  0.40090  0.13380  0.17730  1.0000 0.0815157363
H   H68       1.0  0.13380  0.17730  0.40090  1.0000 0.0815157363
H   H69       1.0  0.17730  0.40090  0.13380  1.0000 0.0815157363
H   H70       1.0  0.86620  0.59910  0.82270  1.0000 0.0815157363
H   H71       1.0  0.82270  0.86620  0.59910  1.0000 0.0815157363
H   H72       1.0  0.59910  0.82270  0.86620  1.0000 0.0815157363
H   H73       1.0  0.64120  0.78260  0.78260  1.0000 0.1030318769
H   H74       1.0  0.78260  0.78260  0.64120  1.0000 0.1030318769
H   H75       1.0  0.78260  0.64120  0.78260  1.0000 0.1030318769
H   H76       1.0  0.21740  0.35880  0.21740  1.0000 0.1030318769
H   H77       1.0  0.21740  0.21740  0.35880  1.0000 0.1030318769
H   H78       1.0  0.35880  0.21740  0.21740  1.0000 0.1030318769
H   H79       1.0  0.54150  0.72890  0.68520  1.0000 0.1192530566
H   H80       1.0  0.72890  0.68520  0.54150  1.0000 0.1192530566
H   H81       1.0  0.68520  0.54150  0.72890  1.0000 0.1192530566
H   H82       1.0  0.27110  0.45850  0.31480  1.0000 0.1192530566
H   H83       1.0  0.31480  0.27110  0.45850  1.0000 0.1192530566
H   H84       1.0  0.45850  0.31480  0.27110  1.0000 0.1192530566
H   H85       1.0  0.45850  0.27110  0.31480  1.0000 0.1192530566
H   H86       1.0  0.27110  0.31480  0.45850  1.0000 0.1192530566
H   H87       1.0  0.31480  0.45850  0.27110  1.0000 0.1192530566
H   H88       1.0  0.72890  0.54150  0.68520  1.0000 0.1192530566
H   H89       1.0  0.68520  0.72890  0.54150  1.0000 0.1192530566
H   H90       1.0  0.54150  0.68520  0.72890  1.0000 0.1192530566
C   C1        1.0  0.48800  0.58768  0.95252  1.0000 0.5702459322
C   C2        1.0  0.58768  0.95252  0.48800  1.0000 0.5702459322
C   C3        1.0  0.95252  0.48800  0.58768  1.0000 0.5702459322
C   C4        1.0  0.41232  0.51200  0.04748  1.0000 0.5702459322
C   C5        1.0  0.04748  0.41232  0.51200  1.0000 0.5702459322
C   C6        1.0  0.51200  0.04748  0.41232  1.0000 0.5702459322
C   C7        1.0  0.51200  0.41232  0.04748  1.0000 0.5702459322
C   C8        1.0  0.41232  0.04748  0.51200  1.0000 0.5702459322
C   C9        1.0  0.04748  0.51200  0.41232  1.0000 0.5702459322
C   C10       1.0  0.58768  0.48800  0.95252  1.0000 0.5702459322
C   C11       1.0  0.95252  0.58768  0.48800  1.0000 0.5702459322
C   C12       1.0  0.48800  0.95252  0.58768  1.0000 0.5702459322
C   C13       1.0  0.48755  0.64876  0.93479  1.0000 -0.0209503463
C   C14       1.0  0.64876  0.93479  0.48755  1.0000 -0.0209503463
C   C15       1.0  0.93479  0.48755  0.64876  1.0000 -0.0209503463
C   C16       1.0  0.35124  0.51245  0.06521  1.0000 -0.0209503463
C   C17       1.0  0.06521  0.35124  0.51245  1.0000 -0.0209503463
C   C18       1.0  0.51245  0.06521  0.35124  1.0000 -0.0209503463
C   C19       1.0  0.51245  0.35124  0.06521  1.0000 -0.0209503463
C   C20       1.0  0.35124  0.06521  0.51245  1.0000 -0.0209503463
C   C21       1.0  0.06521  0.51245  0.35124  1.0000 -0.0209503463
C   C22       1.0  0.64876  0.48755  0.93479  1.0000 -0.0209503463
C   C23       1.0  0.93479  0.64876  0.48755  1.0000 -0.0209503463
C   C24       1.0  0.48755  0.93479  0.64876  1.0000 -0.0209503463
C   C25       1.0  0.41443  0.60797  0.84560  1.0000 -0.0908502085
C   C26       1.0  0.60797  0.84560  0.41443  1.0000 -0.0908502085
C   C27       1.0  0.84560  0.41443  0.60797  1.0000 -0.0908502085
C   C28       1.0  0.39203  0.58557  0.15440  1.0000 -0.0908502085
C   C29       1.0  0.15440  0.39203  0.58557  1.0000 -0.0908502085
C   C30       1.0  0.58557  0.15440  0.39203  1.0000 -0.0908502085
C   C31       1.0  0.58557  0.39203  0.15440  1.0000 -0.0908502085
C   C32       1.0  0.39203  0.15440  0.58557  1.0000 -0.0908502085
C   C33       1.0  0.15440  0.58557  0.39203  1.0000 -0.0908502085
C   C34       1.0  0.60797  0.41443  0.84560  1.0000 -0.0908502085
C   C35       1.0  0.84560  0.60797  0.41443  1.0000 -0.0908502085
C   C36       1.0  0.41443  0.84560  0.60797  1.0000 -0.0908502085
C   C37       1.0  0.41565  0.66749  0.83286  1.0000 -0.1362797573
C   C38       1.0  0.66749  0.83286  0.41565  1.0000 -0.1362797573
C   C39       1.0  0.83286  0.41565  0.66749  1.0000 -0.1362797573
C   C40       1.0  0.33251  0.58435  0.16714  1.0000 -0.1362797573
C   C41       1.0  0.16714  0.33251  0.58435  1.0000 -0.1362797573
C   C42       1.0  0.58435  0.16714  0.33251  1.0000 -0.1362797573
C   C43       1.0  0.58435  0.33251  0.16714  1.0000 -0.1362797573
C   C44       1.0  0.33251  0.16714  0.58435  1.0000 -0.1362797573
C   C45       1.0  0.16714  0.58435  0.33251  1.0000 -0.1362797573
C   C46       1.0  0.66749  0.41565  0.83286  1.0000 -0.1362797573
C   C47       1.0  0.83286  0.66749  0.41565  1.0000 -0.1362797573
C   C48       1.0  0.41565  0.83286  0.66749  1.0000 -0.1362797573
C   C49       1.0  0.48449  0.76497  0.90624  1.0000 0.0815157363
C   C50       1.0  0.76497  0.90624  0.48449  1.0000 0.0815157363
C   C51       1.0  0.90624  0.48449  0.76497  1.0000 0.0815157363
C   C52       1.0  0.23503  0.51551  0.09376  1.0000 0.0815157363
C   C53       1.0  0.09376  0.23503  0.51551  1.0000 0.0815157363
C   C54       1.0  0.51551  0.09376  0.23503  1.0000 0.0815157363
C   C55       1.0  0.51551  0.23503  0.09376  1.0000 0.0815157363
C   C56       1.0  0.23503  0.09376  0.51551  1.0000 0.0815157363
C   C57       1.0  0.09376  0.51551  0.23503  1.0000 0.0815157363
C   C58       1.0  0.76497  0.48449  0.90624  1.0000 0.0815157363
C   C59       1.0  0.90624  0.76497  0.48449  1.0000 0.0815157363
C   C60       1.0  0.48449  0.90624  0.76497  1.0000 0.0815157363
C   C61       1.0  0.56350  0.80790  0.99670  1.0000 -0.1584647043
C   C62       1.0  0.80790  0.99670  0.56350  1.0000 -0.1584647043
C   C63       1.0  0.99670  0.56350  0.80790  1.0000 -0.1584647043
C   C64       1.0  0.19210  0.43650  0.00330  1.0000 -0.1584647043
C   C65       1.0  0.00330  0.19210  0.43650  1.0000 -0.1584647043
C   C66       1.0  0.43650  0.00330  0.19210  1.0000 -0.1584647043
C   C67       1.0  0.43650  0.19210  0.00330  1.0000 -0.1584647043
C   C68       1.0  0.19210  0.00330  0.43650  1.0000 -0.1584647043
C   C69       1.0  0.00330  0.43650  0.19210  1.0000 -0.1584647043
C   C70       1.0  0.80790  0.56350  0.99670  1.0000 -0.1584647043
C   C71       1.0  0.99670  0.80790  0.56350  1.0000 -0.1584647043
C   C72       1.0  0.56350  0.99670  0.80790  1.0000 -0.1584647043
C   C73       1.0  0.56601  0.75155  0.01184  1.0000 -0.0908502085
C   C74       1.0  0.75155  0.01184  0.56601  1.0000 -0.0908502085
C   C75       1.0  0.01184  0.56601  0.75155  1.0000 -0.0908502085
C   C76       1.0  0.24845  0.43399  0.98816  1.0000 -0.0908502085
C   C77       1.0  0.98816  0.24845  0.43399  1.0000 -0.0908502085
C   C78       1.0  0.43399  0.98816  0.24845  1.0000 -0.0908502085
C   C79       1.0  0.43399  0.24845  0.98816  1.0000 -0.0908502085
C   C80       1.0  0.24845  0.98816  0.43399  1.0000 -0.0908502085
C   C81       1.0  0.98816  0.43399  0.24845  1.0000 -0.0908502085
C   C82       1.0  0.75155  0.56601  0.01184  1.0000 -0.0908502085
C   C83       1.0  0.01184  0.75155  0.56601  1.0000 -0.0908502085
C   C84       1.0  0.56601  0.01184  0.75155  1.0000 -0.0908502085
C   C85       1.0  0.48254  0.82987  0.89729  1.0000 -0.0209503463
C   C86       1.0  0.82987  0.89729  0.48254  1.0000 -0.0209503463
C   C87       1.0  0.89729  0.48254  0.82987  1.0000 -0.0209503463
C   C88       1.0  0.17013  0.51746  0.10271  1.0000 -0.0209503463
C   C89       1.0  0.10271  0.17013  0.51746  1.0000 -0.0209503463
C   C90       1.0  0.51746  0.10271  0.17013  1.0000 -0.0209503463
C   C91       1.0  0.51746  0.17013  0.10271  1.0000 -0.0209503463
C   C92       1.0  0.17013  0.10271  0.51746  1.0000 -0.0209503463
C   C93       1.0  0.10271  0.51746  0.17013  1.0000 -0.0209503463
C   C94       1.0  0.82987  0.48254  0.89729  1.0000 -0.0209503463
C   C95       1.0  0.89729  0.82987  0.48254  1.0000 -0.0209503463
C   C96       1.0  0.48254  0.89729  0.82987  1.0000 -0.0209503463
C   C97       1.0  0.49259  0.89820  0.96411  1.0000 -0.1969579551
C   C98       1.0  0.89820  0.96411  0.49259  1.0000 -0.1969579551
C   C99       1.0  0.96411  0.49259  0.89820  1.0000 -0.1969579551
C   C100      1.0  0.10180  0.50741  0.03589  1.0000 -0.1969579551
C   C101      1.0  0.03589  0.10180  0.50741  1.0000 -0.1969579551
C   C102      1.0  0.50741  0.03589  0.10180  1.0000 -0.1969579551
C   C103      1.0  0.50741  0.10180  0.03589  1.0000 -0.1969579551
C   C104      1.0  0.10180  0.03589  0.50741  1.0000 -0.1969579551
C   C105      1.0  0.03589  0.50741  0.10180  1.0000 -0.1969579551
C   C106      1.0  0.89820  0.49259  0.96411  1.0000 -0.1969579551
C   C107      1.0  0.96411  0.89820  0.49259  1.0000 -0.1969579551
C   C108      1.0  0.49259  0.96411  0.89820  1.0000 -0.1969579551
C   C109      1.0  0.49536  0.96397  0.96397  1.0000 0.0708203372
C   C110      1.0  0.96397  0.96397  0.49536  1.0000 0.0708203372
C   C111      1.0  0.96397  0.49536  0.96397  1.0000 0.0708203372
C   C112      1.0  0.03603  0.50464  0.03603  1.0000 0.0708203372
C   C113      1.0  0.03603  0.03603  0.50464  1.0000 0.0708203372
C   C114      1.0  0.50464  0.03603  0.03603  1.0000 0.0708203372
C   C115      1.0  0.47724  0.83038  0.83038  1.0000 0.1491817491
C   C116      1.0  0.83038  0.83038  0.47724  1.0000 0.1491817491
C   C117      1.0  0.83038  0.47724  0.83038  1.0000 0.1491817491
C   C118      1.0  0.16962  0.52276  0.16962  1.0000 0.1491817491
C   C119      1.0  0.16962  0.16962  0.52276  1.0000 0.1491817491
C   C120      1.0  0.52276  0.16962  0.16962  1.0000 0.1491817491
C   C121      1.0  0.56410  0.80540  0.80540  1.0000 0.0243019531
C   C122      1.0  0.80540  0.80540  0.56410  1.0000 0.025135619
C   C123      1.0  0.80540  0.56410  0.80540  1.0000 0.025135619
C   C124      1.0  0.19460  0.43590  0.19460  1.0000 0.0243019531
C   C125      1.0  0.19460  0.19460  0.43590  1.0000 0.0243019531
C   C126      1.0  0.43590  0.19460  0.19460  1.0000 0.025135619
C   C127      1.0  0.57290  0.74490  0.74490  1.0000 -0.3754389776
C   C128      1.0  0.74490  0.74490  0.57290  1.0000 -0.3739650739
C   C129      1.0  0.74490  0.57290  0.74490  1.0000 -0.3754389776
C   C130      1.0  0.25510  0.42710  0.25510  1.0000 -0.3739650739
C   C131      1.0  0.25510  0.25510  0.42710  1.0000 -0.3739650739
C   C132      1.0  0.42710  0.25510  0.25510  1.0000 -0.3739650739
O   O1        1.0  0.56130  0.63790  0.04230  1.0000 -0.5354334308
O   O2        1.0  0.63790  0.04230  0.56130  1.0000 -0.5354334308
O   O3        1.0  0.04230  0.56130  0.63790  1.0000 -0.5354334308
O   O4        1.0  0.36210  0.43870  0.95770  1.0000 -0.5354334308
O   O5        1.0  0.95770  0.36210  0.43870  1.0000 -0.5354334308
O   O6        1.0  0.43870  0.95770  0.36210  1.0000 -0.5354334308
O   O7        1.0  0.43870  0.36210  0.95770  1.0000 -0.5354334308
O   O8        1.0  0.36210  0.95770  0.43870  1.0000 -0.5354334308
O   O9        1.0  0.95770  0.43870  0.36210  1.0000 -0.5354334308
O   O10       1.0  0.63790  0.56130  0.04230  1.0000 -0.5354334308
O   O11       1.0  0.04230  0.63790  0.56130  1.0000 -0.5354334308
O   O12       1.0  0.56130  0.04230  0.63790  1.0000 -0.5354334308
O   O13       1.0  0.41965  0.49691  0.88244  1.0000 -0.4939385546
O   O14       1.0  0.49691  0.88244  0.41965  1.0000 -0.4939385546
O   O15       1.0  0.88244  0.41965  0.49691  1.0000 -0.4939385546
O   O16       1.0  0.50309  0.58035  0.11756  1.0000 -0.4939385546
O   O17       1.0  0.11756  0.50309  0.58035  1.0000 -0.4939385546
O   O18       1.0  0.58035  0.11756  0.50309  1.0000 -0.4939385546
O   O19       1.0  0.58035  0.50309  0.11756  1.0000 -0.4939385546
O   O20       1.0  0.50309  0.11756  0.58035  1.0000 -0.4939385546
O   O21       1.0  0.11756  0.58035  0.50309  1.0000 -0.4939385546
O   O22       1.0  0.49691  0.41965  0.88244  1.0000 -0.4939385546
O   O23       1.0  0.88244  0.49691  0.41965  1.0000 -0.4939385546
O   O24       1.0  0.41965  0.88244  0.49691  1.0000 -0.4939385546
O   O25       1.0  0.46586  0.76197  0.76197  1.0000 -0.219824604
O   O26       1.0  0.76197  0.76197  0.46586  1.0000 -0.219824604
O   O27       1.0  0.76197  0.46586  0.76197  1.0000 -0.219824604
O   O28       1.0  0.23803  0.53414  0.23803  1.0000 -0.219824604
O   O29       1.0  0.23803  0.23803  0.53414  1.0000 -0.219824604
O   O30       1.0  0.53414  0.23803  0.23803  1.0000 -0.219824604
