# DDEC6 charges by PACMAN v1.1 (https://github.com/mtap-research/PACMAN-charge/)
data_2016[Co][nan]3[ASR]21
_chemical_formula_sum              "Co10 H24 C40 S4 N12 O32"
_cell_length_a       9.481
_cell_length_b       15.126
_cell_length_c       15.232
_cell_angle_alpha    64.815
_cell_angle_beta     78.717
_cell_angle_gamma    78.977

_symmetry_space_group_name_H-M    "P 1"
_symmetry_Int_Tables_number       1

loop_
  _symmetry_equiv_pos_as_xyz
  'x, y, z'

loop_
  _atom_site_type_symbol
  _atom_site_label
  _atom_site_symmetry_multiplicity
  _atom_site_fract_x
  _atom_site_fract_y
  _atom_site_fract_z
  _atom_site_occupancy
  _atom_site_charge
Co  Co1       1.0  0.08969  0.39744  0.00843  1.0000 1.0075806667
Co  Co2       1.0  0.91031  0.60256  0.99157  1.0000 1.0075806667
Co  Co3       1.0  0.59289  0.00726  0.39888  1.0000 1.0075806667
Co  Co4       1.0  0.40711  0.99274  0.60112  1.0000 1.0075806667
Co  Co5       1.0  0.80015  0.42110  0.18581  1.0000 0.8894872059
Co  Co6       1.0  0.19985  0.57890  0.81419  1.0000 0.8894872059
Co  Co7       1.0  0.29800  0.18547  0.41906  1.0000 0.8820664276
Co  Co8       1.0  0.70200  0.81453  0.58094  1.0000 0.8820664276
Co  Co9       1.0  0.24375  0.09128  0.90750  1.0000 0.8894872059
Co  Co10      1.0  0.75625  0.90872  0.09250  1.0000 0.8894872059
H   H1        1.0  0.80920  0.44500  0.00550  1.0000 0.3735356519
H   H2        1.0  0.19080  0.55500  0.99450  1.0000 0.3752010455
H   H3        1.0  0.31080  0.00280  0.44500  1.0000 0.3735356519
H   H4        1.0  0.68920  0.99720  0.55500  1.0000 0.3735356519
H   H5        1.0  0.97030  0.25660  0.36860  1.0000 0.1187786152
H   H6        1.0  0.02970  0.74340  0.63140  1.0000 0.1187786152
H   H7        1.0  0.30990  0.26810  0.17890  1.0000 0.1139769116
H   H8        1.0  0.69010  0.73190  0.82110  1.0000 0.1139769116
H   H9        1.0  0.81110  0.17890  0.27070  1.0000 0.1139769116
H   H10       1.0  0.18890  0.82110  0.72930  1.0000 0.1139769116
H   H11       1.0  0.46970  0.36940  0.25550  1.0000 0.1187786152
H   H12       1.0  0.53030  0.63060  0.74450  1.0000 0.1187786152
H   H13       1.0  0.65890  0.47230  0.82580  1.0000 0.1364174624
H   H14       1.0  0.34110  0.52770  0.17420  1.0000 0.1364174624
H   H15       1.0  0.52130  0.24020  0.06380  1.0000 0.12765571
H   H16       1.0  0.47870  0.75980  0.93620  1.0000 0.12765571
H   H17       1.0  0.75810  0.17070  0.07960  1.0000 0.12765571
H   H18       1.0  0.24190  0.82930  0.92040  1.0000 0.12765571
H   H19       1.0  0.16030  0.82770  0.47420  1.0000 0.1364174624
H   H20       1.0  0.83970  0.17230  0.52580  1.0000 0.1364174624
H   H21       1.0  0.02740  0.05950  0.24070  1.0000 0.12765571
H   H22       1.0  0.97260  0.94050  0.75930  1.0000 0.12765571
H   H23       1.0  0.26610  0.07630  0.17250  1.0000 0.12765571
H   H24       1.0  0.73390  0.92370  0.82750  1.0000 0.12765571
C   C1        1.0  0.03140  0.27170  0.30970  1.0000 0.1772386869
C   C2        1.0  0.96860  0.72830  0.69030  1.0000 0.1772386869
C   C3        1.0  0.21530  0.27800  0.20730  1.0000 0.1653218259
C   C4        1.0  0.78470  0.72200  0.79270  1.0000 0.1653218259
C   C5        1.0  0.71630  0.20750  0.27900  1.0000 0.1622733501
C   C6        1.0  0.28370  0.79250  0.72100  1.0000 0.1622733501
C   C7        1.0  0.53150  0.31060  0.27090  1.0000 0.1622733501
C   C8        1.0  0.46850  0.68940  0.72910  1.0000 0.1622733501
C   C9        1.0  0.85360  0.27900  0.96440  1.0000 -0.0419273591
C   C10       1.0  0.14640  0.72100  0.03560  1.0000 -0.0419273591
C   C11       1.0  0.82210  0.37030  0.89060  1.0000 -0.1301216642
C   C12       1.0  0.17790  0.62970  0.10940  1.0000 -0.1301216642
C   C13       1.0  0.67870  0.41220  0.87760  1.0000 -0.1070299283
C   C14       1.0  0.32130  0.58780  0.12240  1.0000 -0.1070299283
C   C15       1.0  0.56570  0.36320  0.94290  1.0000 -0.0101891931
C   C16       1.0  0.43430  0.63680  0.05710  1.0000 -0.0101891931
C   C17       1.0  0.59610  0.27270  0.01940  1.0000 -0.0905262503
C   C18       1.0  0.40390  0.72730  0.98060  1.0000 -0.0905262503
C   C19       1.0  0.73840  0.23160  0.02890  1.0000 -0.097611786
C   C20       1.0  0.26160  0.76840  0.97110  1.0000 -0.097611786
C   C21       1.0  0.00330  0.22600  0.97350  1.0000 0.5958205451
C   C22       1.0  0.99670  0.77400  0.02650  1.0000 0.5958205451
C   C23       1.0  0.40980  0.40660  0.92650  1.0000 0.5922139575
C   C24       1.0  0.59020  0.59340  0.07350  1.0000 0.5922139575
C   C25       1.0  0.35910  0.96060  0.27930  1.0000 -0.0302469815
C   C26       1.0  0.64090  0.03940  0.72070  1.0000 -0.0302469815
C   C27       1.0  0.32550  0.88730  0.37260  1.0000 -0.1301216642
C   C28       1.0  0.67450  0.11270  0.62740  1.0000 -0.1301216642
C   C29       1.0  0.18160  0.87780  0.41320  1.0000 -0.1070299283
C   C30       1.0  0.81840  0.12220  0.58680  1.0000 -0.1070299283
C   C31       1.0  0.06950  0.94130  0.36470  1.0000 -0.0101891931
C   C32       1.0  0.93050  0.05870  0.63530  1.0000 -0.0101891931
C   C33       1.0  0.10160  0.01590  0.27400  1.0000 -0.0905262503
C   C34       1.0  0.89840  0.98410  0.72600  1.0000 -0.0905262503
C   C35       1.0  0.24550  0.02510  0.23300  1.0000 -0.1070299283
C   C36       1.0  0.75450  0.97490  0.76700  1.0000 -0.1070299283
C   C37       1.0  0.51230  0.97380  0.22930  1.0000 0.5958205451
C   C38       1.0  0.48770  0.02620  0.77070  1.0000 0.5958205451
C   C39       1.0  0.91430  0.92640  0.40790  1.0000 0.5922139575
C   C40       1.0  0.08570  0.07360  0.59210  1.0000 0.5922139575
S   S1        1.0  0.95950  0.43360  0.80013  1.0000 1.1835241606
S   S2        1.0  0.04050  0.56640  0.19987  1.0000 1.1835241606
S   S3        1.0  0.46410  0.79770  0.43538  1.0000 1.1835241606
S   S4        1.0  0.53590  0.20230  0.56462  1.0000 1.1835241606
N   N1        1.0  0.10840  0.33190  0.15680  1.0000 -0.2027127058
N   N2        1.0  0.89160  0.66810  0.84320  1.0000 -0.2027127058
N   N3        1.0  0.98680  0.32700  0.22450  1.0000 -0.2189523811
N   N4        1.0  0.01320  0.67300  0.77550  1.0000 -0.2189523811
N   N5        1.0  0.17290  0.23910  0.30410  1.0000 -0.349577875
N   N6        1.0  0.82710  0.76090  0.69590  1.0000 -0.349577875
N   N7        1.0  0.48870  0.22380  0.32620  1.0000 -0.2027127058
N   N8        1.0  0.51130  0.77620  0.67380  1.0000 -0.2027127058
N   N9        1.0  0.60680  0.15590  0.33210  1.0000 -0.2027127058
N   N10       1.0  0.39320  0.84410  0.66790  1.0000 -0.2027127058
N   N11       1.0  0.67520  0.30550  0.23880  1.0000 -0.3573787073
N   N12       1.0  0.32480  0.69450  0.76120  1.0000 -0.3573787073
O   O1        1.0  0.08820  0.25850  0.00560  1.0000 -0.5705413382
O   O2        1.0  0.91180  0.74150  0.99440  1.0000 -0.5705413382
O   O3        1.0  0.03370  0.15340  0.95340  1.0000 -0.5299452032
O   O4        1.0  0.96630  0.84660  0.04660  1.0000 -0.5299452032
O   O5        1.0  0.03350  0.36590  0.75710  1.0000 -0.5299452032
O   O6        1.0  0.96650  0.63410  0.24290  1.0000 -0.5299452032
O   O7        1.0  0.05510  0.45470  0.85260  1.0000 -0.6474355469
O   O8        1.0  0.94490  0.54530  0.14740  1.0000 -0.6474355469
O   O9        1.0  0.88960  0.52170  0.73220  1.0000 -0.5705413382
O   O10       1.0  0.11040  0.47830  0.26780  1.0000 -0.5705413382
O   O11       1.0  0.38860  0.48490  0.85440  1.0000 -0.5299452032
O   O12       1.0  0.61140  0.51510  0.14560  1.0000 -0.5299452032
O   O13       1.0  0.31370  0.35730  0.98780  1.0000 -0.5426391373
O   O14       1.0  0.68630  0.64270  0.01220  1.0000 -0.5426391373
O   O15       1.0  0.54590  0.95370  0.15390  1.0000 -0.5705413382
O   O16       1.0  0.45410  0.04630  0.84610  1.0000 -0.5705413382
O   O17       1.0  0.59480  0.00370  0.26210  1.0000 -0.5473333607
O   O18       1.0  0.40520  0.99630  0.73790  1.0000 -0.5473333607
O   O19       1.0  0.55670  0.85290  0.45650  1.0000 -0.6474355469
O   O20       1.0  0.44330  0.14710  0.54350  1.0000 -0.6474355469
O   O21       1.0  0.54140  0.75540  0.36790  1.0000 -0.5299452032
O   O22       1.0  0.45860  0.24460  0.63210  1.0000 -0.5299452032
O   O23       1.0  0.39280  0.72860  0.52250  1.0000 -0.5705413382
O   O24       1.0  0.60720  0.27140  0.47750  1.0000 -0.5705413382
O   O25       1.0  0.89270  0.85400  0.48750  1.0000 -0.5426391373
O   O26       1.0  0.10730  0.14600  0.51250  1.0000 -0.5426391373
O   O27       1.0  0.81810  0.98760  0.35940  1.0000 -0.5426391373
O   O28       1.0  0.18190  0.01240  0.64060  1.0000 -0.5426391373
O   O29       1.0  0.87750  0.45410  0.04080  1.0000 -0.8623171459
O   O30       1.0  0.12250  0.54590  0.95920  1.0000 -0.8623171459
O   O31       1.0  0.37770  0.03960  0.45360  1.0000 -0.8623171459
O   O32       1.0  0.62230  0.96040  0.54640  1.0000 -0.8623171459
