# DDEC6 charges by PACMAN v1.1 (https://github.com/mtap-research/PACMAN-charge/)
data_2016[Cu][nbo]3[ASR]53
_chemical_formula_sum              "Cu6 H90 C132 O30"
_cell_length_a       21.4703
_cell_length_b       21.4703
_cell_length_c       21.4703
_cell_angle_alpha    110.527
_cell_angle_beta     110.527
_cell_angle_gamma    110.527

_symmetry_space_group_name_H-M    "P 1"
_symmetry_Int_Tables_number       1

loop_
  _symmetry_equiv_pos_as_xyz
  'x, y, z'

loop_
  _atom_site_type_symbol
  _atom_site_label
  _atom_site_symmetry_multiplicity
  _atom_site_fract_x
  _atom_site_fract_y
  _atom_site_fract_z
  _atom_site_occupancy
  _atom_site_charge
Cu  Cu1       1.0  0.44641  0.92440  0.44641  1.0000 0.8575201153
Cu  Cu2       1.0  0.92440  0.44641  0.44641  1.0000 0.8575201153
Cu  Cu3       1.0  0.44641  0.44641  0.92440  1.0000 0.8575201153
Cu  Cu4       1.0  0.07560  0.55359  0.55359  1.0000 0.8575201153
Cu  Cu5       1.0  0.55359  0.07560  0.55359  1.0000 0.8575201153
Cu  Cu6       1.0  0.55359  0.55359  0.07560  1.0000 0.8575201153
H   H1        1.0  0.57310  0.15830  0.40100  1.0000 0.1263592164
H   H2        1.0  0.15830  0.40100  0.57310  1.0000 0.1263592164
H   H3        1.0  0.40100  0.57310  0.15830  1.0000 0.1263592164
H   H4        1.0  0.84170  0.42690  0.59900  1.0000 0.1263592164
H   H5        1.0  0.59900  0.84170  0.42690  1.0000 0.1263592164
H   H6        1.0  0.42690  0.59900  0.84170  1.0000 0.1263592164
H   H7        1.0  0.42690  0.84170  0.59900  1.0000 0.1263592164
H   H8        1.0  0.84170  0.59900  0.42690  1.0000 0.1263592164
H   H9        1.0  0.59900  0.42690  0.84170  1.0000 0.1263592164
H   H10       1.0  0.15830  0.57310  0.40100  1.0000 0.1263592164
H   H11       1.0  0.40100  0.15830  0.57310  1.0000 0.1263592164
H   H12       1.0  0.57310  0.40100  0.15830  1.0000 0.1263592164
H   H13       1.0  0.56940  0.17980  0.30100  1.0000 0.1230008349
H   H14       1.0  0.17980  0.30100  0.56940  1.0000 0.1230008349
H   H15       1.0  0.30100  0.56940  0.17980  1.0000 0.1230008349
H   H16       1.0  0.82020  0.43060  0.69900  1.0000 0.1230008349
H   H17       1.0  0.69900  0.82020  0.43060  1.0000 0.1230008349
H   H18       1.0  0.43060  0.69900  0.82020  1.0000 0.1230008349
H   H19       1.0  0.43060  0.82020  0.69900  1.0000 0.1230008349
H   H20       1.0  0.82020  0.69900  0.43060  1.0000 0.1230008349
H   H21       1.0  0.69900  0.43060  0.82020  1.0000 0.1230008349
H   H22       1.0  0.17980  0.56940  0.30100  1.0000 0.1230008349
H   H23       1.0  0.30100  0.17980  0.56940  1.0000 0.1230008349
H   H24       1.0  0.56940  0.30100  0.17980  1.0000 0.1230008349
H   H25       1.0  0.40130  0.94780  0.13710  1.0000 0.1135673878
H   H26       1.0  0.94780  0.13710  0.40130  1.0000 0.1135673878
H   H27       1.0  0.13710  0.40130  0.94780  1.0000 0.1135673878
H   H28       1.0  0.05220  0.59870  0.86290  1.0000 0.1135673878
H   H29       1.0  0.86290  0.05220  0.59870  1.0000 0.1135673878
H   H30       1.0  0.59870  0.86290  0.05220  1.0000 0.1135673878
H   H31       1.0  0.59870  0.05220  0.86290  1.0000 0.1135673878
H   H32       1.0  0.05220  0.86290  0.59870  1.0000 0.1135673878
H   H33       1.0  0.86290  0.59870  0.05220  1.0000 0.1135673878
H   H34       1.0  0.94780  0.40130  0.13710  1.0000 0.1135673878
H   H35       1.0  0.13710  0.94780  0.40130  1.0000 0.1135673878
H   H36       1.0  0.40130  0.13710  0.94780  1.0000 0.1135673878
H   H37       1.0  0.40720  0.92680  0.23800  1.0000 0.1263592164
H   H38       1.0  0.92680  0.23800  0.40720  1.0000 0.1263592164
H   H39       1.0  0.23800  0.40720  0.92680  1.0000 0.1263592164
H   H40       1.0  0.07320  0.59280  0.76200  1.0000 0.1263592164
H   H41       1.0  0.76200  0.07320  0.59280  1.0000 0.1263592164
H   H42       1.0  0.59280  0.76200  0.07320  1.0000 0.1263592164
H   H43       1.0  0.59280  0.07320  0.76200  1.0000 0.1263592164
H   H44       1.0  0.07320  0.76200  0.59280  1.0000 0.1263592164
H   H45       1.0  0.76200  0.59280  0.07320  1.0000 0.1263592164
H   H46       1.0  0.92680  0.40720  0.23800  1.0000 0.1263592164
H   H47       1.0  0.23800  0.92680  0.40720  1.0000 0.1263592164
H   H48       1.0  0.40720  0.23800  0.92680  1.0000 0.1263592164
H   H49       1.0  0.49270  0.97940  0.09330  1.0000 0.1135673878
H   H50       1.0  0.97940  0.09330  0.49270  1.0000 0.1135673878
H   H51       1.0  0.09330  0.49270  0.97940  1.0000 0.1135673878
H   H52       1.0  0.02060  0.50730  0.90670  1.0000 0.1135673878
H   H53       1.0  0.90670  0.02060  0.50730  1.0000 0.1135673878
H   H54       1.0  0.50730  0.90670  0.02060  1.0000 0.1135673878
H   H55       1.0  0.50730  0.02060  0.90670  1.0000 0.1135673878
H   H56       1.0  0.02060  0.90670  0.50730  1.0000 0.1135673878
H   H57       1.0  0.90670  0.50730  0.02060  1.0000 0.1135673878
H   H58       1.0  0.97940  0.49270  0.09330  1.0000 0.1135673878
H   H59       1.0  0.09330  0.97940  0.49270  1.0000 0.1135673878
H   H60       1.0  0.49270  0.09330  0.97940  1.0000 0.1135673878
H   H61       1.0  0.37990  0.16800  0.12250  1.0000 0.0763611205
H   H62       1.0  0.16800  0.12250  0.37990  1.0000 0.0763611205
H   H63       1.0  0.12250  0.37990  0.16800  1.0000 0.0763611205
H   H64       1.0  0.83200  0.62010  0.87750  1.0000 0.0763611205
H   H65       1.0  0.87750  0.83200  0.62010  1.0000 0.0763611205
H   H66       1.0  0.62010  0.87750  0.83200  1.0000 0.0763611205
H   H67       1.0  0.62010  0.83200  0.87750  1.0000 0.0763611205
H   H68       1.0  0.83200  0.87750  0.62010  1.0000 0.0763611205
H   H69       1.0  0.87750  0.62010  0.83200  1.0000 0.0763611205
H   H70       1.0  0.16800  0.37990  0.12250  1.0000 0.0763611205
H   H71       1.0  0.12250  0.16800  0.37990  1.0000 0.0763611205
H   H72       1.0  0.37990  0.12250  0.16800  1.0000 0.0763611205
H   H73       1.0  0.36340  0.23180  0.23180  1.0000 0.1135673878
H   H74       1.0  0.23180  0.23180  0.36340  1.0000 0.1135673878
H   H75       1.0  0.23180  0.36340  0.23180  1.0000 0.1135673878
H   H76       1.0  0.76820  0.63660  0.76820  1.0000 0.1135673878
H   H77       1.0  0.76820  0.76820  0.63660  1.0000 0.1135673878
H   H78       1.0  0.63660  0.76820  0.76820  1.0000 0.1135673878
H   H79       1.0  0.44500  0.29420  0.24890  1.0000 0.1230008349
H   H80       1.0  0.29420  0.24890  0.44500  1.0000 0.1230008349
H   H81       1.0  0.24890  0.44500  0.29420  1.0000 0.1230008349
H   H82       1.0  0.70580  0.55500  0.75110  1.0000 0.1230008349
H   H83       1.0  0.75110  0.70580  0.55500  1.0000 0.1230008349
H   H84       1.0  0.55500  0.75110  0.70580  1.0000 0.1230008349
H   H85       1.0  0.55500  0.70580  0.75110  1.0000 0.1230008349
H   H86       1.0  0.70580  0.75110  0.55500  1.0000 0.1230008349
H   H87       1.0  0.75110  0.55500  0.70580  1.0000 0.1230008349
H   H88       1.0  0.29420  0.44500  0.24890  1.0000 0.1230008349
H   H89       1.0  0.24890  0.29420  0.44500  1.0000 0.1230008349
H   H90       1.0  0.44500  0.24890  0.29420  1.0000 0.1230008349
C   C1        1.0  0.49384  0.02539  0.39270  1.0000 0.5772417704
C   C2        1.0  0.02539  0.39270  0.49384  1.0000 0.5772417704
C   C3        1.0  0.39270  0.49384  0.02539  1.0000 0.5772417704
C   C4        1.0  0.97461  0.50616  0.60730  1.0000 0.5772417704
C   C5        1.0  0.60730  0.97461  0.50616  1.0000 0.5772417704
C   C6        1.0  0.50616  0.60730  0.97461  1.0000 0.5772417704
C   C7        1.0  0.50616  0.97461  0.60730  1.0000 0.5772417704
C   C8        1.0  0.97461  0.60730  0.50616  1.0000 0.5772417704
C   C9        1.0  0.60730  0.50616  0.97461  1.0000 0.5772417704
C   C10       1.0  0.02539  0.49384  0.39270  1.0000 0.5772417704
C   C11       1.0  0.39270  0.02539  0.49384  1.0000 0.5772417704
C   C12       1.0  0.49384  0.39270  0.02539  1.0000 0.5772417704
C   C13       1.0  0.48986  0.03967  0.32828  1.0000 -0.0316695196
C   C14       1.0  0.03967  0.32828  0.48986  1.0000 -0.0316695196
C   C15       1.0  0.32828  0.48986  0.03967  1.0000 -0.0316695196
C   C16       1.0  0.96033  0.51014  0.67172  1.0000 -0.0316695196
C   C17       1.0  0.67172  0.96033  0.51014  1.0000 -0.0316695196
C   C18       1.0  0.51014  0.67172  0.96033  1.0000 -0.0316695196
C   C19       1.0  0.51014  0.96033  0.67172  1.0000 -0.0316695196
C   C20       1.0  0.96033  0.67172  0.51014  1.0000 -0.0316695196
C   C21       1.0  0.67172  0.51014  0.96033  1.0000 -0.0316695196
C   C22       1.0  0.03967  0.48986  0.32828  1.0000 -0.0316695196
C   C23       1.0  0.32828  0.03967  0.48986  1.0000 -0.0316695196
C   C24       1.0  0.48986  0.32828  0.03967  1.0000 -0.0316695196
C   C25       1.0  0.53865  0.11543  0.34737  1.0000 -0.0880622794
C   C26       1.0  0.11543  0.34737  0.53865  1.0000 -0.0880622794
C   C27       1.0  0.34737  0.53865  0.11543  1.0000 -0.0880622794
C   C28       1.0  0.88457  0.46135  0.65263  1.0000 -0.0880622794
C   C29       1.0  0.65263  0.88457  0.46135  1.0000 -0.0880622794
C   C30       1.0  0.46135  0.65263  0.88457  1.0000 -0.0880622794
C   C31       1.0  0.46135  0.88457  0.65263  1.0000 -0.0880622794
C   C32       1.0  0.88457  0.65263  0.46135  1.0000 -0.0880622794
C   C33       1.0  0.65263  0.46135  0.88457  1.0000 -0.0880622794
C   C34       1.0  0.11543  0.53865  0.34737  1.0000 -0.0880622794
C   C35       1.0  0.34737  0.11543  0.53865  1.0000 -0.0880622794
C   C36       1.0  0.53865  0.34737  0.11543  1.0000 -0.0880622794
C   C37       1.0  0.53679  0.12795  0.28784  1.0000 -0.1505257269
C   C38       1.0  0.12795  0.28784  0.53679  1.0000 -0.1505257269
C   C39       1.0  0.28784  0.53679  0.12795  1.0000 -0.1505257269
C   C40       1.0  0.87205  0.46321  0.71216  1.0000 -0.1505257269
C   C41       1.0  0.71216  0.87205  0.46321  1.0000 -0.1505257269
C   C42       1.0  0.46321  0.71216  0.87205  1.0000 -0.1505257269
C   C43       1.0  0.46321  0.87205  0.71216  1.0000 -0.1505257269
C   C44       1.0  0.87205  0.71216  0.46321  1.0000 -0.1505257269
C   C45       1.0  0.71216  0.46321  0.87205  1.0000 -0.1505257269
C   C46       1.0  0.12795  0.53679  0.28784  1.0000 -0.1505257269
C   C47       1.0  0.28784  0.12795  0.53679  1.0000 -0.1505257269
C   C48       1.0  0.53679  0.28784  0.12795  1.0000 -0.1505257269
C   C49       1.0  0.48832  0.06621  0.20983  1.0000 0.0872249927
C   C50       1.0  0.06621  0.20983  0.48832  1.0000 0.0872249927
C   C51       1.0  0.20983  0.48832  0.06621  1.0000 0.0872249927
C   C52       1.0  0.93379  0.51168  0.79017  1.0000 0.0872249927
C   C53       1.0  0.79017  0.93379  0.51168  1.0000 0.0872249927
C   C54       1.0  0.51168  0.79017  0.93379  1.0000 0.0872249927
C   C55       1.0  0.51168  0.93379  0.79017  1.0000 0.0872249927
C   C56       1.0  0.93379  0.79017  0.51168  1.0000 0.0872249927
C   C57       1.0  0.79017  0.51168  0.93379  1.0000 0.0872249927
C   C58       1.0  0.06621  0.48832  0.20983  1.0000 0.0872249927
C   C59       1.0  0.20983  0.06621  0.48832  1.0000 0.0872249927
C   C60       1.0  0.48832  0.20983  0.06621  1.0000 0.0872249927
C   C61       1.0  0.43735  0.99037  0.19075  1.0000 -0.1653301647
C   C62       1.0  0.99037  0.19075  0.43735  1.0000 -0.1653301647
C   C63       1.0  0.19075  0.43735  0.99037  1.0000 -0.1653301647
C   C64       1.0  0.00963  0.56265  0.80925  1.0000 -0.1653301647
C   C65       1.0  0.80925  0.00963  0.56265  1.0000 -0.1653301647
C   C66       1.0  0.56265  0.80925  0.00963  1.0000 -0.1653301647
C   C67       1.0  0.56265  0.00963  0.80925  1.0000 -0.1653301647
C   C68       1.0  0.00963  0.80925  0.56265  1.0000 -0.1653301647
C   C69       1.0  0.80925  0.56265  0.00963  1.0000 -0.1653301647
C   C70       1.0  0.99037  0.43735  0.19075  1.0000 -0.1648680499
C   C71       1.0  0.19075  0.99037  0.43735  1.0000 -0.1653301647
C   C72       1.0  0.43735  0.19075  0.99037  1.0000 -0.1653301647
C   C73       1.0  0.44021  0.97832  0.25076  1.0000 -0.0880622794
C   C74       1.0  0.97832  0.25076  0.44021  1.0000 -0.0880622794
C   C75       1.0  0.25076  0.44021  0.97832  1.0000 -0.0880622794
C   C76       1.0  0.02168  0.55979  0.74924  1.0000 -0.0880622794
C   C77       1.0  0.74924  0.02168  0.55979  1.0000 -0.0880622794
C   C78       1.0  0.55979  0.74924  0.02168  1.0000 -0.0880622794
C   C79       1.0  0.55979  0.02168  0.74924  1.0000 -0.0880622794
C   C80       1.0  0.02168  0.74924  0.55979  1.0000 -0.0880622794
C   C81       1.0  0.74924  0.55979  0.02168  1.0000 -0.0880622794
C   C82       1.0  0.97832  0.44021  0.25076  1.0000 -0.0880622794
C   C83       1.0  0.25076  0.97832  0.44021  1.0000 -0.0880622794
C   C84       1.0  0.44021  0.25076  0.97832  1.0000 -0.0880622794
C   C85       1.0  0.49154  0.07682  0.14566  1.0000 -0.0211456597
C   C86       1.0  0.07682  0.14566  0.49154  1.0000 -0.0211456597
C   C87       1.0  0.14566  0.49154  0.07682  1.0000 -0.0211456597
C   C88       1.0  0.92318  0.50846  0.85434  1.0000 -0.0211456597
C   C89       1.0  0.85434  0.92318  0.50846  1.0000 -0.0211456597
C   C90       1.0  0.50846  0.85434  0.92318  1.0000 -0.0211456597
C   C91       1.0  0.50846  0.92318  0.85434  1.0000 -0.0211456597
C   C92       1.0  0.92318  0.85434  0.50846  1.0000 -0.0211456597
C   C93       1.0  0.85434  0.50846  0.92318  1.0000 -0.0211456597
C   C94       1.0  0.07682  0.49154  0.14566  1.0000 -0.0211456597
C   C95       1.0  0.14566  0.07682  0.49154  1.0000 -0.0211456597
C   C96       1.0  0.49154  0.14566  0.07682  1.0000 -0.0211456597
C   C97       1.0  0.49328  0.02244  0.08961  1.0000 -0.1934478698
C   C98       1.0  0.02244  0.08961  0.49328  1.0000 -0.1934478698
C   C99       1.0  0.08961  0.49328  0.02244  1.0000 -0.1934478698
C   C100      1.0  0.97756  0.50672  0.91039  1.0000 -0.1934478698
C   C101      1.0  0.91039  0.97756  0.50672  1.0000 -0.1934478698
C   C102      1.0  0.50672  0.91039  0.97756  1.0000 -0.1934478698
C   C103      1.0  0.50672  0.97756  0.91039  1.0000 -0.1934478698
C   C104      1.0  0.97756  0.91039  0.50672  1.0000 -0.1934478698
C   C105      1.0  0.91039  0.50672  0.97756  1.0000 -0.1934478698
C   C106      1.0  0.02244  0.49328  0.08961  1.0000 -0.1934478698
C   C107      1.0  0.08961  0.02244  0.49328  1.0000 -0.1934478698
C   C108      1.0  0.49328  0.08961  0.02244  1.0000 -0.1934478698
C   C109      1.0  0.49582  0.02774  0.02774  1.0000 0.0692777628
C   C110      1.0  0.02774  0.02774  0.49582  1.0000 0.0692777628
C   C111      1.0  0.02774  0.49582  0.02774  1.0000 0.0692777628
C   C112      1.0  0.97226  0.50418  0.97226  1.0000 0.0692777628
C   C113      1.0  0.97226  0.97226  0.50418  1.0000 0.0692777628
C   C114      1.0  0.50418  0.97226  0.97226  1.0000 0.0692777628
C   C115      1.0  0.48952  0.13919  0.13919  1.0000 0.167605109
C   C116      1.0  0.13919  0.13919  0.48952  1.0000 0.167605109
C   C117      1.0  0.13919  0.48952  0.13919  1.0000 0.167605109
C   C118      1.0  0.86081  0.51048  0.86081  1.0000 0.167605109
C   C119      1.0  0.86081  0.86081  0.51048  1.0000 0.167605109
C   C120      1.0  0.51048  0.86081  0.86081  1.0000 0.167605109
C   C121      1.0  0.40884  0.17338  0.17338  1.0000 0.0030759953
C   C122      1.0  0.17338  0.17338  0.40884  1.0000 0.0030759953
C   C123      1.0  0.17338  0.40884  0.17338  1.0000 0.0030759953
C   C124      1.0  0.82662  0.59116  0.82662  1.0000 0.0030759953
C   C125      1.0  0.82662  0.82662  0.59116  1.0000 0.0030759953
C   C126      1.0  0.59116  0.82662  0.82662  1.0000 0.0030759953
C   C127      1.0  0.41630  0.24420  0.24420  1.0000 -0.3959921977
C   C128      1.0  0.24420  0.24420  0.41630  1.0000 -0.3959921977
C   C129      1.0  0.24420  0.41630  0.24420  1.0000 -0.3959921977
C   C130      1.0  0.75580  0.58370  0.75580  1.0000 -0.3959921977
C   C131      1.0  0.75580  0.75580  0.58370  1.0000 -0.3959921977
C   C132      1.0  0.58370  0.75580  0.75580  1.0000 -0.3959921977
O   O1        1.0  0.44936  0.95516  0.37139  1.0000 -0.5174397856
O   O2        1.0  0.95516  0.37139  0.44936  1.0000 -0.5174397856
O   O3        1.0  0.37139  0.44936  0.95516  1.0000 -0.5174397856
O   O4        1.0  0.04484  0.55064  0.62861  1.0000 -0.5174397856
O   O5        1.0  0.62861  0.04484  0.55064  1.0000 -0.5174397856
O   O6        1.0  0.55064  0.62861  0.04484  1.0000 -0.5174397856
O   O7        1.0  0.55064  0.04484  0.62861  1.0000 -0.5174397856
O   O8        1.0  0.04484  0.62861  0.55064  1.0000 -0.5174397856
O   O9        1.0  0.62861  0.55064  0.04484  1.0000 -0.5174397856
O   O10       1.0  0.95516  0.44936  0.37139  1.0000 -0.5174397856
O   O11       1.0  0.37139  0.95516  0.44936  1.0000 -0.5174397856
O   O12       1.0  0.44936  0.37139  0.95516  1.0000 -0.5174397856
O   O13       1.0  0.54014  0.08416  0.46226  1.0000 -0.5104041725
O   O14       1.0  0.08416  0.46226  0.54014  1.0000 -0.5104041725
O   O15       1.0  0.46226  0.54014  0.08416  1.0000 -0.5104041725
O   O16       1.0  0.91584  0.45986  0.53774  1.0000 -0.5104041725
O   O17       1.0  0.53774  0.91584  0.45986  1.0000 -0.5104041725
O   O18       1.0  0.45986  0.53774  0.91584  1.0000 -0.5104041725
O   O19       1.0  0.45986  0.91584  0.53774  1.0000 -0.5104041725
O   O20       1.0  0.91584  0.53774  0.45986  1.0000 -0.5104041725
O   O21       1.0  0.53774  0.45986  0.91584  1.0000 -0.5104041725
O   O22       1.0  0.08416  0.54014  0.46226  1.0000 -0.5104041725
O   O23       1.0  0.46226  0.08416  0.54014  1.0000 -0.5104041725
O   O24       1.0  0.54014  0.46226  0.08416  1.0000 -0.5104041725
O   O25       1.0  0.48641  0.19377  0.19377  1.0000 -0.2173456332
O   O26       1.0  0.19377  0.19377  0.48641  1.0000 -0.2173456332
O   O27       1.0  0.19377  0.48641  0.19377  1.0000 -0.2142741313
O   O28       1.0  0.80623  0.51359  0.80623  1.0000 -0.2173456332
O   O29       1.0  0.80623  0.80623  0.51359  1.0000 -0.2173456332
O   O30       1.0  0.51359  0.80623  0.80623  1.0000 -0.2142741313
