# DDEC6 charges by PACMAN v1.1 (https://github.com/mtap-research/PACMAN-charge/)
data_2016[InEu][nan]3[ASR]1
_chemical_formula_sum              "Eu4 In4 H24 C72 O64"
_cell_length_a       12.6261
_cell_length_b       12.6261
_cell_length_c       29.234
_cell_angle_alpha    90
_cell_angle_beta     90
_cell_angle_gamma    90

_symmetry_space_group_name_H-M    "P 1"
_symmetry_Int_Tables_number       1

loop_
  _symmetry_equiv_pos_as_xyz
  'x, y, z'

loop_
  _atom_site_type_symbol
  _atom_site_label
  _atom_site_symmetry_multiplicity
  _atom_site_fract_x
  _atom_site_fract_y
  _atom_site_fract_z
  _atom_site_occupancy
  _atom_site_charge
Eu  Eu1       1.0  0.62749  0.62749  0.50000  1.0000 1.8822904723
Eu  Eu2       1.0  0.37251  0.62749  0.00000  1.0000 1.8822904723
Eu  Eu3       1.0  0.37251  0.37251  0.50000  1.0000 1.8822904723
Eu  Eu4       1.0  0.62749  0.37251  0.00000  1.0000 1.8822904723
In  In1       1.0  0.50000  0.00000  0.25000  1.0000 1.3238108652
In  In2       1.0  0.00000  0.50000  0.75000  1.0000 1.3238108652
In  In3       1.0  0.50000  0.00000  0.75000  1.0000 1.3238108652
In  In4       1.0  0.00000  0.50000  0.25000  1.0000 1.3238108652
H   H1        1.0  0.46710  0.75620  0.38540  1.0000 0.1164645301
H   H2        1.0  0.24380  0.46710  0.88540  1.0000 0.1164645301
H   H3        1.0  0.53290  0.24380  0.38540  1.0000 0.1164645301
H   H4        1.0  0.75620  0.53290  0.88540  1.0000 0.1164645301
H   H5        1.0  0.46710  0.24380  0.11460  1.0000 0.1164645301
H   H6        1.0  0.53290  0.75620  0.11460  1.0000 0.1164645301
H   H7        1.0  0.75620  0.46710  0.61460  1.0000 0.1164645301
H   H8        1.0  0.24380  0.53290  0.61460  1.0000 0.1164645301
H   H9        1.0  0.53290  0.24380  0.61460  1.0000 0.1164645301
H   H10       1.0  0.75620  0.53290  0.11460  1.0000 0.1164645301
H   H11       1.0  0.46710  0.75620  0.61460  1.0000 0.1164645301
H   H12       1.0  0.24380  0.46710  0.11460  1.0000 0.1164645301
H   H13       1.0  0.53290  0.75620  0.88540  1.0000 0.1164645301
H   H14       1.0  0.46710  0.24380  0.88540  1.0000 0.1164645301
H   H15       1.0  0.24380  0.53290  0.38540  1.0000 0.1164645301
H   H16       1.0  0.75620  0.46710  0.38540  1.0000 0.1164645301
H   H17       1.0  0.25020  0.74980  0.28440  1.0000 0.1303817825
H   H18       1.0  0.25020  0.25020  0.78440  1.0000 0.1303817825
H   H19       1.0  0.74980  0.25020  0.28440  1.0000 0.1303817825
H   H20       1.0  0.74980  0.74980  0.78440  1.0000 0.1303817825
H   H21       1.0  0.25020  0.25020  0.21560  1.0000 0.1303817825
H   H22       1.0  0.74980  0.74980  0.21560  1.0000 0.1303817825
H   H23       1.0  0.74980  0.25020  0.71560  1.0000 0.1303817825
H   H24       1.0  0.25020  0.74980  0.71560  1.0000 0.1303817825
C   C1        1.0  0.36730  0.76780  0.33200  1.0000 -0.0129784755
C   C2        1.0  0.23220  0.36730  0.83200  1.0000 -0.0129784755
C   C3        1.0  0.63270  0.23220  0.33200  1.0000 -0.0129784755
C   C4        1.0  0.76780  0.63270  0.83200  1.0000 -0.0129784755
C   C5        1.0  0.36730  0.23220  0.16800  1.0000 -0.0129784755
C   C6        1.0  0.63270  0.76780  0.16800  1.0000 -0.0129784755
C   C7        1.0  0.76780  0.36730  0.66800  1.0000 -0.0129784755
C   C8        1.0  0.23220  0.63270  0.66800  1.0000 -0.0129784755
C   C9        1.0  0.63270  0.23220  0.66800  1.0000 -0.0129784755
C   C10       1.0  0.76780  0.63270  0.16800  1.0000 -0.0129784755
C   C11       1.0  0.36730  0.76780  0.66800  1.0000 -0.0129784755
C   C12       1.0  0.23220  0.36730  0.16800  1.0000 -0.0129784755
C   C13       1.0  0.63270  0.76780  0.83200  1.0000 -0.0129784755
C   C14       1.0  0.36730  0.23220  0.83200  1.0000 -0.0129784755
C   C15       1.0  0.23220  0.63270  0.33200  1.0000 -0.0129784755
C   C16       1.0  0.76780  0.36730  0.33200  1.0000 -0.0129784755
C   C17       1.0  0.42330  0.85570  0.30700  1.0000 0.5166654075
C   C18       1.0  0.14430  0.42330  0.80700  1.0000 0.5166654075
C   C19       1.0  0.57670  0.14430  0.30700  1.0000 0.5166654075
C   C20       1.0  0.85570  0.57670  0.80700  1.0000 0.5166654075
C   C21       1.0  0.42330  0.14430  0.19300  1.0000 0.5166654075
C   C22       1.0  0.57670  0.85570  0.19300  1.0000 0.5166654075
C   C23       1.0  0.85570  0.42330  0.69300  1.0000 0.5166654075
C   C24       1.0  0.14430  0.57670  0.69300  1.0000 0.5166654075
C   C25       1.0  0.57670  0.14430  0.69300  1.0000 0.5166654075
C   C26       1.0  0.85570  0.57670  0.19300  1.0000 0.5166654075
C   C27       1.0  0.42330  0.85570  0.69300  1.0000 0.5166654075
C   C28       1.0  0.14430  0.42330  0.19300  1.0000 0.5166654075
C   C29       1.0  0.57670  0.85570  0.80700  1.0000 0.5166654075
C   C30       1.0  0.42330  0.14430  0.80700  1.0000 0.5166654075
C   C31       1.0  0.14430  0.57670  0.30700  1.0000 0.5166654075
C   C32       1.0  0.85570  0.42330  0.30700  1.0000 0.5166654075
C   C33       1.0  0.40600  0.72550  0.37180  1.0000 -0.103326316
C   C34       1.0  0.27450  0.40600  0.87180  1.0000 -0.103326316
C   C35       1.0  0.59400  0.27450  0.37180  1.0000 -0.103326316
C   C36       1.0  0.72550  0.59400  0.87180  1.0000 -0.103326316
C   C37       1.0  0.40600  0.27450  0.12820  1.0000 -0.103326316
C   C38       1.0  0.59400  0.72550  0.12820  1.0000 -0.103326316
C   C39       1.0  0.72550  0.40600  0.62820  1.0000 -0.103326316
C   C40       1.0  0.27450  0.59400  0.62820  1.0000 -0.103326316
C   C41       1.0  0.59400  0.27450  0.62820  1.0000 -0.103326316
C   C42       1.0  0.72550  0.59400  0.12820  1.0000 -0.103326316
C   C43       1.0  0.40600  0.72550  0.62820  1.0000 -0.103326316
C   C44       1.0  0.27450  0.40600  0.12820  1.0000 -0.103326316
C   C45       1.0  0.59400  0.72550  0.87180  1.0000 -0.103326316
C   C46       1.0  0.40600  0.27450  0.87180  1.0000 -0.103326316
C   C47       1.0  0.27450  0.59400  0.37180  1.0000 -0.103326316
C   C48       1.0  0.72550  0.40600  0.37180  1.0000 -0.103326316
C   C49       1.0  0.35920  0.64080  0.39250  1.0000 -0.076149716
C   C50       1.0  0.35920  0.35920  0.89250  1.0000 -0.076149716
C   C51       1.0  0.64080  0.35920  0.39250  1.0000 -0.076149716
C   C52       1.0  0.64080  0.64080  0.89250  1.0000 -0.076149716
C   C53       1.0  0.35920  0.35920  0.10750  1.0000 -0.076149716
C   C54       1.0  0.64080  0.64080  0.10750  1.0000 -0.076149716
C   C55       1.0  0.64080  0.35920  0.60750  1.0000 -0.076149716
C   C56       1.0  0.35920  0.64080  0.60750  1.0000 -0.076149716
C   C57       1.0  0.27870  0.72130  0.31180  1.0000 -0.0890231822
C   C58       1.0  0.27870  0.27870  0.81180  1.0000 -0.0890231822
C   C59       1.0  0.72130  0.27870  0.31180  1.0000 -0.0890231822
C   C60       1.0  0.72130  0.72130  0.81180  1.0000 -0.0890231822
C   C61       1.0  0.27870  0.27870  0.18820  1.0000 -0.0890231822
C   C62       1.0  0.72130  0.72130  0.18820  1.0000 -0.0890231822
C   C63       1.0  0.72130  0.27870  0.68820  1.0000 -0.0890231822
C   C64       1.0  0.27870  0.72130  0.68820  1.0000 -0.0890231822
C   C65       1.0  0.40440  0.59560  0.43440  1.0000 0.6426433073
C   C66       1.0  0.40440  0.40440  0.93440  1.0000 0.6426433073
C   C67       1.0  0.59560  0.40440  0.43440  1.0000 0.6426433073
C   C68       1.0  0.59560  0.59560  0.93440  1.0000 0.6426433073
C   C69       1.0  0.40440  0.40440  0.06560  1.0000 0.6426433073
C   C70       1.0  0.59560  0.59560  0.06560  1.0000 0.6426433073
C   C71       1.0  0.59560  0.40440  0.56560  1.0000 0.6426433073
C   C72       1.0  0.40440  0.59560  0.56560  1.0000 0.6426433073
O   O1        1.0  0.51270  0.88070  0.31660  1.0000 -0.4916587128
O   O2        1.0  0.11930  0.51270  0.81660  1.0000 -0.4916587128
O   O3        1.0  0.48730  0.11930  0.31660  1.0000 -0.4916587128
O   O4        1.0  0.88070  0.48730  0.81660  1.0000 -0.4916587128
O   O5        1.0  0.51270  0.11930  0.18340  1.0000 -0.4916587128
O   O6        1.0  0.48730  0.88070  0.18340  1.0000 -0.4916587128
O   O7        1.0  0.88070  0.51270  0.68340  1.0000 -0.4916587128
O   O8        1.0  0.11930  0.48730  0.68340  1.0000 -0.4916587128
O   O9        1.0  0.48730  0.11930  0.68340  1.0000 -0.4916587128
O   O10       1.0  0.88070  0.48730  0.18340  1.0000 -0.4916587128
O   O11       1.0  0.51270  0.88070  0.68340  1.0000 -0.4916587128
O   O12       1.0  0.11930  0.51270  0.18340  1.0000 -0.4916587128
O   O13       1.0  0.48730  0.88070  0.81660  1.0000 -0.4916587128
O   O14       1.0  0.51270  0.11930  0.81660  1.0000 -0.4916587128
O   O15       1.0  0.11930  0.48730  0.31660  1.0000 -0.4916587128
O   O16       1.0  0.88070  0.51270  0.31660  1.0000 -0.4916587128
O   O17       1.0  0.37170  0.90360  0.27580  1.0000 -0.5363492472
O   O18       1.0  0.09640  0.37170  0.77580  1.0000 -0.5363492472
O   O19       1.0  0.62830  0.09640  0.27580  1.0000 -0.5363492472
O   O20       1.0  0.90360  0.62830  0.77580  1.0000 -0.5363492472
O   O21       1.0  0.37170  0.09640  0.22420  1.0000 -0.5363492472
O   O22       1.0  0.62830  0.90360  0.22420  1.0000 -0.5363492472
O   O23       1.0  0.90360  0.37170  0.72420  1.0000 -0.5363492472
O   O24       1.0  0.09640  0.62830  0.72420  1.0000 -0.5363492472
O   O25       1.0  0.62830  0.09640  0.72420  1.0000 -0.5363492472
O   O26       1.0  0.90360  0.62830  0.22420  1.0000 -0.5363492472
O   O27       1.0  0.37170  0.90360  0.72420  1.0000 -0.5363492472
O   O28       1.0  0.09640  0.37170  0.22420  1.0000 -0.5363492472
O   O29       1.0  0.62830  0.90360  0.77580  1.0000 -0.5363492472
O   O30       1.0  0.37170  0.09640  0.77580  1.0000 -0.5363492472
O   O31       1.0  0.09640  0.62830  0.27580  1.0000 -0.5363492472
O   O32       1.0  0.90360  0.37170  0.27580  1.0000 -0.5363492472
O   O33       1.0  0.48320  0.64130  0.45060  1.0000 -0.6577059505
O   O34       1.0  0.35870  0.48320  0.95060  1.0000 -0.6577059505
O   O35       1.0  0.51680  0.35870  0.45060  1.0000 -0.6577059505
O   O36       1.0  0.64130  0.51680  0.95060  1.0000 -0.6577059505
O   O37       1.0  0.48320  0.35870  0.04940  1.0000 -0.6577059505
O   O38       1.0  0.51680  0.64130  0.04940  1.0000 -0.6577059505
O   O39       1.0  0.64130  0.48320  0.54940  1.0000 -0.6577059505
O   O40       1.0  0.35870  0.51680  0.54940  1.0000 -0.6577059505
O   O41       1.0  0.51680  0.35870  0.54940  1.0000 -0.6577059505
O   O42       1.0  0.64130  0.51680  0.04940  1.0000 -0.6577059505
O   O43       1.0  0.48320  0.64130  0.54940  1.0000 -0.6577059505
O   O44       1.0  0.35870  0.48320  0.04940  1.0000 -0.6577059505
O   O45       1.0  0.51680  0.64130  0.95060  1.0000 -0.6577059505
O   O46       1.0  0.48320  0.35870  0.95060  1.0000 -0.6577059505
O   O47       1.0  0.35870  0.51680  0.45060  1.0000 -0.6577059505
O   O48       1.0  0.64130  0.48320  0.45060  1.0000 -0.6577059505
O   O49       1.0  0.81330  0.58000  0.51820  1.0000 0.0633176939
O   O50       1.0  0.42000  0.81330  0.01820  1.0000 0.0633176939
O   O51       1.0  0.18670  0.42000  0.51820  1.0000 0.0633176939
O   O52       1.0  0.58000  0.18670  0.01820  1.0000 0.0633176939
O   O53       1.0  0.81330  0.42000  0.98180  1.0000 0.0633176939
O   O54       1.0  0.18670  0.58000  0.98180  1.0000 0.0633176939
O   O55       1.0  0.58000  0.81330  0.48180  1.0000 0.0633176939
O   O56       1.0  0.42000  0.18670  0.48180  1.0000 0.0633176939
O   O57       1.0  0.18670  0.42000  0.48180  1.0000 0.0633176939
O   O58       1.0  0.58000  0.18670  0.98180  1.0000 0.0633176939
O   O59       1.0  0.81330  0.58000  0.48180  1.0000 0.0633176939
O   O60       1.0  0.42000  0.81330  0.98180  1.0000 0.0652319388
O   O61       1.0  0.18670  0.58000  0.01820  1.0000 0.0633176939
O   O62       1.0  0.81330  0.42000  0.01820  1.0000 0.0633176939
O   O63       1.0  0.42000  0.18670  0.51820  1.0000 0.0633176939
O   O64       1.0  0.58000  0.81330  0.51820  1.0000 0.0633176939
