# DDEC6 charges by PACMAN v1.1 (https://github.com/mtap-research/PACMAN-charge/)
data_2016[Zn][qzd]3[ASR]1
_chemical_formula_sum              "Zn6 H144 C204 N12 O36"
_cell_length_a       11.1967
_cell_length_b       11.1967
_cell_length_c       44.0828
_cell_angle_alpha    90
_cell_angle_beta     90
_cell_angle_gamma    120

_symmetry_space_group_name_H-M    "P 1"
_symmetry_Int_Tables_number       1

loop_
  _symmetry_equiv_pos_as_xyz
  'x, y, z'

loop_
  _atom_site_type_symbol
  _atom_site_label
  _atom_site_symmetry_multiplicity
  _atom_site_fract_x
  _atom_site_fract_y
  _atom_site_fract_z
  _atom_site_occupancy
  _atom_site_charge
Zn  Zn1       1.0  0.51845  0.48155  0.08333  1.0000 0.7336432223
Zn  Zn2       1.0  0.51845  0.03690  0.75000  1.0000 0.7336432223
Zn  Zn3       1.0  0.96310  0.48155  0.41667  1.0000 0.7336432223
Zn  Zn4       1.0  0.48155  0.51845  0.58333  1.0000 0.7336432223
Zn  Zn5       1.0  0.48155  0.96310  0.25000  1.0000 0.7336432223
Zn  Zn6       1.0  0.03690  0.51845  0.91667  1.0000 0.7336432223
H   H1        1.0  0.34700  0.20500  0.26660  1.0000 0.3597488637
H   H2        1.0  0.79500  0.14200  0.93327  1.0000 0.3597488637
H   H3        1.0  0.85800  0.65300  0.59993  1.0000 0.3597488637
H   H4        1.0  0.79500  0.65300  0.90007  1.0000 0.3597488637
H   H5        1.0  0.85800  0.20500  0.23340  1.0000 0.3597488637
H   H6        1.0  0.34700  0.14200  0.56673  1.0000 0.3597488637
H   H7        1.0  0.12540  0.53410  0.22220  1.0000 0.1083924766
H   H8        1.0  0.46590  0.59130  0.88887  1.0000 0.1083924766
H   H9        1.0  0.40870  0.87460  0.55553  1.0000 0.1083924766
H   H10       1.0  0.46590  0.87460  0.94447  1.0000 0.1083924766
H   H11       1.0  0.40870  0.53410  0.27780  1.0000 0.1083924766
H   H12       1.0  0.12540  0.59130  0.61113  1.0000 0.1083924766
H   H13       1.0  0.43110  0.35090  0.17160  1.0000 0.1083924766
H   H14       1.0  0.64910  0.08020  0.83827  1.0000 0.1083924766
H   H15       1.0  0.91980  0.56890  0.50493  1.0000 0.1083924766
H   H16       1.0  0.64910  0.56890  0.99507  1.0000 0.1083924766
H   H17       1.0  0.91980  0.35090  0.32840  1.0000 0.1083924766
H   H18       1.0  0.43110  0.08020  0.66173  1.0000 0.1083924766
H   H19       1.0  0.42100  0.24430  0.21660  1.0000 0.1390206688
H   H20       1.0  0.75570  0.17670  0.88327  1.0000 0.1390206688
H   H21       1.0  0.82330  0.57900  0.54993  1.0000 0.1390206688
H   H22       1.0  0.75570  0.57900  0.95007  1.0000 0.1390206688
H   H23       1.0  0.82330  0.24430  0.28340  1.0000 0.1390206688
H   H24       1.0  0.42100  0.17670  0.61673  1.0000 0.1390206688
H   H25       1.0  0.50920  0.27100  0.12670  1.0000 0.1083924766
H   H26       1.0  0.72900  0.23820  0.79337  1.0000 0.1083924766
H   H27       1.0  0.76180  0.49080  0.46003  1.0000 0.1083924766
H   H28       1.0  0.72900  0.49080  0.03997  1.0000 0.1083924766
H   H29       1.0  0.76180  0.27100  0.37330  1.0000 0.1083924766
H   H30       1.0  0.50920  0.23820  0.70663  1.0000 0.1083924766
H   H31       1.0  0.24220  0.98730  0.05030  1.0000 0.1331736505
H   H32       1.0  0.01270  0.25490  0.71697  1.0000 0.1331736505
H   H33       1.0  0.74510  0.75780  0.38363  1.0000 0.1331736505
H   H34       1.0  0.01270  0.75780  0.11637  1.0000 0.1331736505
H   H35       1.0  0.74510  0.98730  0.44970  1.0000 0.1331736505
H   H36       1.0  0.24220  0.25490  0.78303  1.0000 0.1331736505
H   H37       1.0  0.34090  0.22340  0.04700  1.0000 0.1163156924
H   H38       1.0  0.77660  0.11750  0.71367  1.0000 0.1163156924
H   H39       1.0  0.88250  0.65910  0.38033  1.0000 0.1163156924
H   H40       1.0  0.77660  0.65910  0.11967  1.0000 0.1163156924
H   H41       1.0  0.88250  0.22340  0.45300  1.0000 0.1163156924
H   H42       1.0  0.34090  0.11750  0.78633  1.0000 0.1163156924
H   H43       1.0  0.24060  0.60840  0.13500  1.0000 0.1163156924
H   H44       1.0  0.39160  0.63220  0.80167  1.0000 0.1163156924
H   H45       1.0  0.36780  0.75940  0.46833  1.0000 0.1163156924
H   H46       1.0  0.39160  0.75940  0.03167  1.0000 0.1163156924
H   H47       1.0  0.36780  0.60840  0.36500  1.0000 0.1163156924
H   H48       1.0  0.24060  0.63220  0.69833  1.0000 0.1163156924
H   H49       1.0  0.40770  0.03770  0.13300  1.0000 0.1390206688
H   H50       1.0  0.96230  0.37000  0.79967  1.0000 0.1390206688
H   H51       1.0  0.63000  0.59230  0.46633  1.0000 0.1390206688
H   H52       1.0  0.96230  0.59230  0.03367  1.0000 0.1390206688
H   H53       1.0  0.63000  0.03770  0.36700  1.0000 0.1390206688
H   H54       1.0  0.40770  0.37000  0.70033  1.0000 0.1390206688
H   H55       1.0  0.13180  0.63800  0.17730  1.0000 0.102382574
H   H56       1.0  0.36200  0.49380  0.84397  1.0000 0.102382574
H   H57       1.0  0.50620  0.86820  0.51063  1.0000 0.102382574
H   H58       1.0  0.36200  0.86820  0.98937  1.0000 0.102382574
H   H59       1.0  0.50620  0.63800  0.32270  1.0000 0.102382574
H   H60       1.0  0.13180  0.49380  0.65603  1.0000 0.102382574
H   H61       1.0  0.22250  0.80270  0.11480  1.0000 0.1083924766
H   H62       1.0  0.19730  0.41980  0.78147  1.0000 0.1083924766
H   H63       1.0  0.58020  0.77750  0.44813  1.0000 0.1163156924
H   H64       1.0  0.19730  0.77750  0.05187  1.0000 0.1163156924
H   H65       1.0  0.58020  0.80270  0.38520  1.0000 0.1163156924
H   H66       1.0  0.22250  0.41980  0.71853  1.0000 0.1163156924
H   H67       1.0  0.34750  0.82080  0.09560  1.0000 0.1331736505
H   H68       1.0  0.17920  0.52670  0.76227  1.0000 0.1331736505
H   H69       1.0  0.47330  0.65250  0.42893  1.0000 0.1331736505
H   H70       1.0  0.17920  0.65250  0.07107  1.0000 0.1331736505
H   H71       1.0  0.47330  0.82080  0.40440  1.0000 0.1331736505
H   H72       1.0  0.34750  0.52670  0.73773  1.0000 0.1331736505
H   H73       1.0  0.65300  0.79500  0.76660  1.0000 0.3597488637
H   H74       1.0  0.20500  0.85800  0.43327  1.0000 0.3597488637
H   H75       1.0  0.14200  0.34700  0.09993  1.0000 0.3597488637
H   H76       1.0  0.20500  0.34700  0.40007  1.0000 0.3597488637
H   H77       1.0  0.14200  0.79500  0.73340  1.0000 0.3597488637
H   H78       1.0  0.65300  0.85800  0.06673  1.0000 0.3597488637
H   H79       1.0  0.87460  0.46590  0.72220  1.0000 0.1083924766
H   H80       1.0  0.53410  0.40870  0.38887  1.0000 0.1083924766
H   H81       1.0  0.59130  0.12540  0.05553  1.0000 0.1083924766
H   H82       1.0  0.53410  0.12540  0.44447  1.0000 0.1083924766
H   H83       1.0  0.59130  0.46590  0.77780  1.0000 0.1083924766
H   H84       1.0  0.87460  0.40870  0.11113  1.0000 0.1083924766
H   H85       1.0  0.56890  0.64910  0.67160  1.0000 0.1083924766
H   H86       1.0  0.35090  0.91980  0.33827  1.0000 0.1083924766
H   H87       1.0  0.08020  0.43110  0.00493  1.0000 0.1083924766
H   H88       1.0  0.35090  0.43110  0.49507  1.0000 0.1083924766
H   H89       1.0  0.08020  0.64910  0.82840  1.0000 0.1083924766
H   H90       1.0  0.56890  0.91980  0.16173  1.0000 0.1083924766
H   H91       1.0  0.57900  0.75570  0.71660  1.0000 0.1390206688
H   H92       1.0  0.24430  0.82330  0.38327  1.0000 0.1390206688
H   H93       1.0  0.17670  0.42100  0.04993  1.0000 0.1390206688
H   H94       1.0  0.24430  0.42100  0.45007  1.0000 0.1390206688
H   H95       1.0  0.17670  0.75570  0.78340  1.0000 0.1390206688
H   H96       1.0  0.57900  0.82330  0.11673  1.0000 0.1390206688
H   H97       1.0  0.49080  0.72900  0.62670  1.0000 0.1083924766
H   H98       1.0  0.27100  0.76180  0.29337  1.0000 0.1083924766
H   H99       1.0  0.23820  0.50920  0.96003  1.0000 0.1083924766
H   H100      1.0  0.27100  0.50920  0.53997  1.0000 0.1083924766
H   H101      1.0  0.23820  0.72900  0.87330  1.0000 0.1083924766
H   H102      1.0  0.49080  0.76180  0.20663  1.0000 0.1083924766
H   H103      1.0  0.75780  0.01270  0.55030  1.0000 0.1331736505
H   H104      1.0  0.98730  0.74510  0.21697  1.0000 0.1331736505
H   H105      1.0  0.25490  0.24220  0.88363  1.0000 0.1331736505
H   H106      1.0  0.98730  0.24220  0.61637  1.0000 0.1331736505
H   H107      1.0  0.25490  0.01270  0.94970  1.0000 0.1331736505
H   H108      1.0  0.75780  0.74510  0.28303  1.0000 0.1331736505
H   H109      1.0  0.65910  0.77660  0.54700  1.0000 0.1163156924
H   H110      1.0  0.22340  0.88250  0.21367  1.0000 0.1163156924
H   H111      1.0  0.11750  0.34090  0.88033  1.0000 0.1163156924
H   H112      1.0  0.22340  0.34090  0.61967  1.0000 0.1163156924
H   H113      1.0  0.11750  0.77660  0.95300  1.0000 0.1163156924
H   H114      1.0  0.65910  0.88250  0.28633  1.0000 0.1163156924
H   H115      1.0  0.75940  0.39160  0.63500  1.0000 0.1163156924
H   H116      1.0  0.60840  0.36780  0.30167  1.0000 0.1163156924
H   H117      1.0  0.63220  0.24060  0.96833  1.0000 0.1163156924
H   H118      1.0  0.60840  0.24060  0.53167  1.0000 0.1163156924
H   H119      1.0  0.63220  0.39160  0.86500  1.0000 0.1163156924
H   H120      1.0  0.75940  0.36780  0.19833  1.0000 0.1163156924
H   H121      1.0  0.59230  0.96230  0.63300  1.0000 0.1390206688
H   H122      1.0  0.03770  0.63000  0.29967  1.0000 0.1390206688
H   H123      1.0  0.37000  0.40770  0.96633  1.0000 0.1390206688
H   H124      1.0  0.03770  0.40770  0.53367  1.0000 0.1390206688
H   H125      1.0  0.37000  0.96230  0.86700  1.0000 0.1390206688
H   H126      1.0  0.59230  0.63000  0.20033  1.0000 0.1390206688
H   H127      1.0  0.86820  0.36200  0.67730  1.0000 0.102382574
H   H128      1.0  0.63800  0.50620  0.34397  1.0000 0.102382574
H   H129      1.0  0.49380  0.13180  0.01063  1.0000 0.102382574
H   H130      1.0  0.63800  0.13180  0.48937  1.0000 0.102382574
H   H131      1.0  0.49380  0.36200  0.82270  1.0000 0.102382574
H   H132      1.0  0.86820  0.50620  0.15603  1.0000 0.102382574
H   H133      1.0  0.77750  0.19730  0.61480  1.0000 0.1163156924
H   H134      1.0  0.80270  0.58020  0.28147  1.0000 0.1163156924
H   H135      1.0  0.41980  0.22250  0.94813  1.0000 0.1083924766
H   H136      1.0  0.80270  0.22250  0.55187  1.0000 0.1083924766
H   H137      1.0  0.41980  0.19730  0.88520  1.0000 0.1163156924
H   H138      1.0  0.77750  0.58020  0.21853  1.0000 0.1163156924
H   H139      1.0  0.65250  0.17920  0.59560  1.0000 0.1331736505
H   H140      1.0  0.82080  0.47330  0.26227  1.0000 0.1331736505
H   H141      1.0  0.52670  0.34750  0.92893  1.0000 0.1331736505
H   H142      1.0  0.82080  0.34750  0.57107  1.0000 0.1331736505
H   H143      1.0  0.52670  0.17920  0.90440  1.0000 0.1331736505
H   H144      1.0  0.65250  0.47330  0.23773  1.0000 0.1331736505
C   C1        1.0  0.23910  0.44570  0.20926  1.0000 0.0549321395
C   C2        1.0  0.55430  0.79340  0.87593  1.0000 0.0549321395
C   C3        1.0  0.20660  0.76090  0.54259  1.0000 0.0549321395
C   C4        1.0  0.55430  0.76090  0.95741  1.0000 0.0549321395
C   C5        1.0  0.20660  0.44570  0.29074  1.0000 0.0549321395
C   C6        1.0  0.23910  0.79340  0.62407  1.0000 0.0549321395
C   C7        1.0  0.30050  0.30450  0.23957  1.0000 0.2613054102
C   C8        1.0  0.69550  0.99600  0.90624  1.0000 0.2613054102
C   C9        1.0  0.00400  0.69950  0.57290  1.0000 0.2613054102
C   C10       1.0  0.69550  0.69950  0.92710  1.0000 0.2613054102
C   C11       1.0  0.00400  0.30450  0.26043  1.0000 0.2613054102
C   C12       1.0  0.30050  0.99600  0.59376  1.0000 0.2613054102
C   C13       1.0  0.17210  0.52440  0.20584  1.0000 -0.1362010367
C   C14       1.0  0.47560  0.64770  0.87251  1.0000 -0.1362010367
C   C15       1.0  0.35230  0.82790  0.53917  1.0000 -0.1362010367
C   C16       1.0  0.47560  0.82790  0.96083  1.0000 -0.1362010367
C   C17       1.0  0.35230  0.52440  0.29416  1.0000 -0.1362010367
C   C18       1.0  0.17210  0.64770  0.62749  1.0000 -0.1362010367
C   C19       1.0  0.31400  0.50060  0.15624  1.0000 -0.0659890525
C   C20       1.0  0.49940  0.81340  0.82291  1.0000 -0.0659890525
C   C21       1.0  0.18660  0.68600  0.48957  1.0000 -0.0659890525
C   C22       1.0  0.49940  0.68600  0.01043  1.0000 -0.0659890525
C   C23       1.0  0.18660  0.50060  0.34376  1.0000 -0.0659890525
C   C24       1.0  0.31400  0.81340  0.67709  1.0000 -0.0659890525
C   C25       1.0  0.31460  0.43590  0.18415  1.0000 0.0277607358
C   C26       1.0  0.56410  0.87870  0.85082  1.0000 0.0277607358
C   C27       1.0  0.12130  0.68540  0.51748  1.0000 0.0277607358
C   C28       1.0  0.56410  0.68540  0.98252  1.0000 0.0277607358
C   C29       1.0  0.12130  0.43590  0.31585  1.0000 0.0277607358
C   C30       1.0  0.31460  0.87870  0.64918  1.0000 0.0277607358
C   C31       1.0  0.23180  0.37710  0.23702  1.0000 -0.0785559381
C   C32       1.0  0.62290  0.85470  0.90369  1.0000 -0.0785559381
C   C33       1.0  0.14530  0.76820  0.57035  1.0000 -0.0785559381
C   C34       1.0  0.62290  0.76820  0.92965  1.0000 -0.0785559381
C   C35       1.0  0.14530  0.37710  0.26298  1.0000 -0.0785559381
C   C36       1.0  0.23180  0.85470  0.59631  1.0000 -0.0785559381
C   C37       1.0  0.38180  0.35850  0.18776  1.0000 -0.1313428735
C   C38       1.0  0.64150  0.02330  0.85443  1.0000 -0.1313428735
C   C39       1.0  0.97670  0.61820  0.52109  1.0000 -0.1313428735
C   C40       1.0  0.64150  0.61820  0.97891  1.0000 -0.1313428735
C   C41       1.0  0.97670  0.35850  0.31224  1.0000 -0.1313428735
C   C42       1.0  0.38180  0.02330  0.64557  1.0000 -0.1313428735
C   C43       1.0  0.37580  0.29450  0.21463  1.0000 -0.2478847916
C   C44       1.0  0.70550  0.08130  0.88130  1.0000 -0.2478847916
C   C45       1.0  0.91870  0.62420  0.54796  1.0000 -0.2478847916
C   C46       1.0  0.70550  0.62420  0.95204  1.0000 -0.2478847916
C   C47       1.0  0.91870  0.29450  0.28537  1.0000 -0.2478847916
C   C48       1.0  0.37580  0.08130  0.61870  1.0000 -0.2478847916
C   C49       1.0  0.45430  0.21330  0.11122  1.0000 0.0898291864
C   C50       1.0  0.78670  0.24100  0.77789  1.0000 0.0898291864
C   C51       1.0  0.75900  0.54570  0.44455  1.0000 0.0898291864
C   C52       1.0  0.78670  0.54570  0.05545  1.0000 0.0898291864
C   C53       1.0  0.75900  0.21330  0.38878  1.0000 0.0898291864
C   C54       1.0  0.45430  0.24100  0.72211  1.0000 0.0898291864
C   C55       1.0  0.38780  0.49280  0.12855  1.0000 0.5595824505
C   C56       1.0  0.50720  0.89500  0.79522  1.0000 0.5595824505
C   C57       1.0  0.10500  0.61220  0.46188  1.0000 0.5595824505
C   C58       1.0  0.50720  0.61220  0.03812  1.0000 0.5595824505
C   C59       1.0  0.10500  0.49280  0.37145  1.0000 0.5595824505
C   C60       1.0  0.38780  0.89500  0.70478  1.0000 0.5595824505
C   C61       1.0  0.31660  0.98420  0.09182  1.0000 0.1723034218
C   C62       1.0  0.01580  0.33240  0.75849  1.0000 0.1723034218
C   C63       1.0  0.66760  0.68340  0.42515  1.0000 0.1723034218
C   C64       1.0  0.01580  0.68340  0.07485  1.0000 0.1723034218
C   C65       1.0  0.66760  0.98420  0.40818  1.0000 0.1723034218
C   C66       1.0  0.31660  0.33240  0.74151  1.0000 0.1723034218
C   C67       1.0  0.29610  0.04280  0.06614  1.0000 -0.2098169478
C   C68       1.0  0.95720  0.25330  0.73281  1.0000 -0.2098169478
C   C69       1.0  0.74670  0.70390  0.39947  1.0000 -0.2098169478
C   C70       1.0  0.95720  0.70390  0.10053  1.0000 -0.2098169478
C   C71       1.0  0.74670  0.04280  0.43386  1.0000 -0.2098169478
C   C72       1.0  0.29610  0.25330  0.76719  1.0000 -0.2098169478
C   C73       1.0  0.35660  0.18550  0.06428  1.0000 0.0898291864
C   C74       1.0  0.81450  0.17110  0.73095  1.0000 0.0898291864
C   C75       1.0  0.82890  0.64340  0.39761  1.0000 0.0898291864
C   C76       1.0  0.81450  0.64340  0.10239  1.0000 0.0898291864
C   C77       1.0  0.82890  0.18550  0.43572  1.0000 0.0898291864
C   C78       1.0  0.35660  0.17110  0.76905  1.0000 0.0898291864
C   C79       1.0  0.24350  0.57060  0.15362  1.0000 -0.1313428735
C   C80       1.0  0.42940  0.67290  0.82029  1.0000 -0.1248809809
C   C81       1.0  0.32710  0.75650  0.48695  1.0000 -0.1248809809
C   C82       1.0  0.42940  0.75650  0.01305  1.0000 -0.1313428735
C   C83       1.0  0.32710  0.57060  0.34638  1.0000 -0.1248809809
C   C84       1.0  0.24350  0.67290  0.67971  1.0000 -0.1248809809
C   C85       1.0  0.39520  0.07310  0.11498  1.0000 -0.1989524975
C   C86       1.0  0.92690  0.32210  0.78165  1.0000 -0.1989524975
C   C87       1.0  0.67790  0.60480  0.44831  1.0000 -0.1989524975
C   C88       1.0  0.92690  0.60480  0.05169  1.0000 -0.1989524975
C   C89       1.0  0.67790  0.07310  0.38502  1.0000 -0.1989524975
C   C90       1.0  0.39520  0.32210  0.71835  1.0000 -0.1989524975
C   C91       1.0  0.17510  0.58580  0.17898  1.0000 -0.1073091244
C   C92       1.0  0.41420  0.58930  0.84565  1.0000 -0.1073091244
C   C93       1.0  0.41070  0.82490  0.51231  1.0000 -0.1073091244
C   C94       1.0  0.41420  0.82490  0.98769  1.0000 -0.1073091244
C   C95       1.0  0.41070  0.58580  0.32102  1.0000 -0.1073091244
C   C96       1.0  0.17510  0.58930  0.65435  1.0000 -0.1073091244
C   C97       1.0  0.26700  0.83180  0.09520  1.0000 -0.2400647826
C   C98       1.0  0.16820  0.43520  0.76187  1.0000 -0.2400647826
C   C99       1.0  0.56480  0.73300  0.42853  1.0000 -0.2400647826
C   C100      1.0  0.16820  0.73300  0.07147  1.0000 -0.2400647826
C   C101      1.0  0.56480  0.83180  0.40480  1.0000 -0.2400647826
C   C102      1.0  0.26700  0.43520  0.73813  1.0000 -0.2400647826
C   C103      1.0  0.76090  0.55430  0.70926  1.0000 0.0549321395
C   C104      1.0  0.44570  0.20660  0.37593  1.0000 0.0549321395
C   C105      1.0  0.79340  0.23910  0.04259  1.0000 0.0549321395
C   C106      1.0  0.44570  0.23910  0.45741  1.0000 0.0549321395
C   C107      1.0  0.79340  0.55430  0.79074  1.0000 0.0549321395
C   C108      1.0  0.76090  0.20660  0.12407  1.0000 0.0549321395
C   C109      1.0  0.69950  0.69550  0.73957  1.0000 0.2613054102
C   C110      1.0  0.30450  0.00400  0.40624  1.0000 0.2613054102
C   C111      1.0  0.99600  0.30050  0.07290  1.0000 0.2613054102
C   C112      1.0  0.30450  0.30050  0.42710  1.0000 0.2613054102
C   C113      1.0  0.99600  0.69550  0.76043  1.0000 0.2613054102
C   C114      1.0  0.69950  0.00400  0.09376  1.0000 0.2613054102
C   C115      1.0  0.82790  0.47560  0.70584  1.0000 -0.1362010367
C   C116      1.0  0.52440  0.35230  0.37251  1.0000 -0.1362010367
C   C117      1.0  0.64770  0.17210  0.03917  1.0000 -0.1362010367
C   C118      1.0  0.52440  0.17210  0.46083  1.0000 -0.1362010367
C   C119      1.0  0.64770  0.47560  0.79416  1.0000 -0.1362010367
C   C120      1.0  0.82790  0.35230  0.12749  1.0000 -0.1362010367
C   C121      1.0  0.68600  0.49940  0.65624  1.0000 -0.0659890525
C   C122      1.0  0.50060  0.18660  0.32291  1.0000 -0.0659890525
C   C123      1.0  0.81340  0.31400  0.98957  1.0000 -0.0659890525
C   C124      1.0  0.50060  0.31400  0.51043  1.0000 -0.0659890525
C   C125      1.0  0.81340  0.49940  0.84376  1.0000 -0.0659890525
C   C126      1.0  0.68600  0.18660  0.17709  1.0000 -0.0659890525
C   C127      1.0  0.68540  0.56410  0.68415  1.0000 0.0277607358
C   C128      1.0  0.43590  0.12130  0.35082  1.0000 0.0277607358
C   C129      1.0  0.87870  0.31460  0.01748  1.0000 0.0277607358
C   C130      1.0  0.43590  0.31460  0.48252  1.0000 0.0277607358
C   C131      1.0  0.87870  0.56410  0.81585  1.0000 0.0277607358
C   C132      1.0  0.68540  0.12130  0.14918  1.0000 0.0277607358
C   C133      1.0  0.76820  0.62290  0.73702  1.0000 -0.0785559381
C   C134      1.0  0.37710  0.14530  0.40369  1.0000 -0.0785559381
C   C135      1.0  0.85470  0.23180  0.07035  1.0000 -0.0785559381
C   C136      1.0  0.37710  0.23180  0.42965  1.0000 -0.0785559381
C   C137      1.0  0.85470  0.62290  0.76298  1.0000 -0.0785559381
C   C138      1.0  0.76820  0.14530  0.09631  1.0000 -0.0785559381
C   C139      1.0  0.61820  0.64150  0.68776  1.0000 -0.1313428735
C   C140      1.0  0.35850  0.97670  0.35443  1.0000 -0.1313428735
C   C141      1.0  0.02330  0.38180  0.02109  1.0000 -0.1313428735
C   C142      1.0  0.35850  0.38180  0.47891  1.0000 -0.1313428735
C   C143      1.0  0.02330  0.64150  0.81224  1.0000 -0.1313428735
C   C144      1.0  0.61820  0.97670  0.14557  1.0000 -0.1313428735
C   C145      1.0  0.62420  0.70550  0.71463  1.0000 -0.2478847916
C   C146      1.0  0.29450  0.91870  0.38130  1.0000 -0.2478847916
C   C147      1.0  0.08130  0.37580  0.04796  1.0000 -0.2478847916
C   C148      1.0  0.29450  0.37580  0.45204  1.0000 -0.2478847916
C   C149      1.0  0.08130  0.70550  0.78537  1.0000 -0.2478847916
C   C150      1.0  0.62420  0.91870  0.11870  1.0000 -0.2478847916
C   C151      1.0  0.54570  0.78670  0.61122  1.0000 0.0898291864
C   C152      1.0  0.21330  0.75900  0.27789  1.0000 0.0898291864
C   C153      1.0  0.24100  0.45430  0.94455  1.0000 0.0898291864
C   C154      1.0  0.21330  0.45430  0.55545  1.0000 0.0898291864
C   C155      1.0  0.24100  0.78670  0.88878  1.0000 0.0898291864
C   C156      1.0  0.54570  0.75900  0.22211  1.0000 0.0898291864
C   C157      1.0  0.61220  0.50720  0.62855  1.0000 0.5595824505
C   C158      1.0  0.49280  0.10500  0.29522  1.0000 0.5595824505
C   C159      1.0  0.89500  0.38780  0.96188  1.0000 0.5595824505
C   C160      1.0  0.49280  0.38780  0.53812  1.0000 0.5595824505
C   C161      1.0  0.89500  0.50720  0.87145  1.0000 0.5595824505
C   C162      1.0  0.61220  0.10500  0.20478  1.0000 0.5595824505
C   C163      1.0  0.68340  0.01580  0.59182  1.0000 0.1723034218
C   C164      1.0  0.98420  0.66760  0.25849  1.0000 0.1723034218
C   C165      1.0  0.33240  0.31660  0.92515  1.0000 0.1723034218
C   C166      1.0  0.98420  0.31660  0.57485  1.0000 0.1723034218
C   C167      1.0  0.33240  0.01580  0.90818  1.0000 0.1723034218
C   C168      1.0  0.68340  0.66760  0.24151  1.0000 0.1723034218
C   C169      1.0  0.70390  0.95720  0.56614  1.0000 -0.2098169478
C   C170      1.0  0.04280  0.74670  0.23281  1.0000 -0.2098169478
C   C171      1.0  0.25330  0.29610  0.89947  1.0000 -0.2098169478
C   C172      1.0  0.04280  0.29610  0.60053  1.0000 -0.2098169478
C   C173      1.0  0.25330  0.95720  0.93386  1.0000 -0.2098169478
C   C174      1.0  0.70390  0.74670  0.26719  1.0000 -0.2098169478
C   C175      1.0  0.64340  0.81450  0.56428  1.0000 0.0898291864
C   C176      1.0  0.18550  0.82890  0.23095  1.0000 0.0898291864
C   C177      1.0  0.17110  0.35660  0.89761  1.0000 0.0898291864
C   C178      1.0  0.18550  0.35660  0.60239  1.0000 0.0898291864
C   C179      1.0  0.17110  0.81450  0.93572  1.0000 0.0898291864
C   C180      1.0  0.64340  0.82890  0.26905  1.0000 0.0898291864
C   C181      1.0  0.75650  0.42940  0.65362  1.0000 -0.1248809809
C   C182      1.0  0.57060  0.32710  0.32029  1.0000 -0.1248809809
C   C183      1.0  0.67290  0.24350  0.98695  1.0000 -0.1248809809
C   C184      1.0  0.57060  0.24350  0.51305  1.0000 -0.1248809809
C   C185      1.0  0.67290  0.42940  0.84638  1.0000 -0.1313428735
C   C186      1.0  0.75650  0.32710  0.17971  1.0000 -0.1248809809
C   C187      1.0  0.60480  0.92690  0.61498  1.0000 -0.1989524975
C   C188      1.0  0.07310  0.67790  0.28165  1.0000 -0.1989524975
C   C189      1.0  0.32210  0.39520  0.94831  1.0000 -0.1989524975
C   C190      1.0  0.07310  0.39520  0.55169  1.0000 -0.1989524975
C   C191      1.0  0.32210  0.92690  0.88502  1.0000 -0.1989524975
C   C192      1.0  0.60480  0.67790  0.21835  1.0000 -0.1989524975
C   C193      1.0  0.82490  0.41420  0.67898  1.0000 -0.1073091244
C   C194      1.0  0.58580  0.41070  0.34565  1.0000 -0.1073091244
C   C195      1.0  0.58930  0.17510  0.01231  1.0000 -0.1073091244
C   C196      1.0  0.58580  0.17510  0.48769  1.0000 -0.1073091244
C   C197      1.0  0.58930  0.41420  0.82102  1.0000 -0.1073091244
C   C198      1.0  0.82490  0.41070  0.15435  1.0000 -0.1073091244
C   C199      1.0  0.73300  0.16820  0.59520  1.0000 -0.2400647826
C   C200      1.0  0.83180  0.56480  0.26187  1.0000 -0.2400647826
C   C201      1.0  0.43520  0.26700  0.92853  1.0000 -0.2400647826
C   C202      1.0  0.83180  0.26700  0.57147  1.0000 -0.2400647826
C   C203      1.0  0.43520  0.16820  0.90480  1.0000 -0.2400647826
C   C204      1.0  0.73300  0.56480  0.23813  1.0000 -0.2400647826
N   N1        1.0  0.43620  0.27040  0.08612  1.0000 -0.2400647826
N   N2        1.0  0.72960  0.16580  0.75279  1.0000 -0.2400647826
N   N3        1.0  0.83420  0.56380  0.41945  1.0000 -0.2400647826
N   N4        1.0  0.72960  0.56380  0.08055  1.0000 -0.2400647826
N   N5        1.0  0.83420  0.27040  0.41388  1.0000 -0.2400647826
N   N6        1.0  0.43620  0.16580  0.74721  1.0000 -0.2400647826
N   N7        1.0  0.56380  0.72960  0.58612  1.0000 -0.2400647826
N   N8        1.0  0.27040  0.83420  0.25279  1.0000 -0.2400647826
N   N9        1.0  0.16580  0.43620  0.91945  1.0000 -0.2400647826
N   N10       1.0  0.27040  0.43620  0.58055  1.0000 -0.2400647826
N   N11       1.0  0.16580  0.72960  0.91388  1.0000 -0.2400647826
N   N12       1.0  0.56380  0.83420  0.24721  1.0000 -0.2400647826
O   O1        1.0  0.32456  0.46110  0.10344  1.0000 -0.5445350225
O   O2        1.0  0.53890  0.86346  0.77011  1.0000 -0.5445350225
O   O3        1.0  0.13654  0.67544  0.43677  1.0000 -0.5445350225
O   O4        1.0  0.53890  0.67544  0.06323  1.0000 -0.5445350225
O   O5        1.0  0.13654  0.46110  0.39656  1.0000 -0.5445350225
O   O6        1.0  0.32456  0.86346  0.72989  1.0000 -0.5445350225
O   O7        1.0  0.51169  0.52067  0.13013  1.0000 -0.5471099729
O   O8        1.0  0.47933  0.99102  0.79680  1.0000 -0.5471099729
O   O9        1.0  0.00898  0.48831  0.46346  1.0000 -0.5471099729
O   O10       1.0  0.47933  0.48831  0.03654  1.0000 -0.5471099729
O   O11       1.0  0.00898  0.52067  0.36987  1.0000 -0.5471099729
O   O12       1.0  0.51169  0.99102  0.70320  1.0000 -0.5471099729
O   O13       1.0  0.29330  0.24020  0.26609  1.0000 -0.4260443762
O   O14       1.0  0.75980  0.05310  0.93276  1.0000 -0.4260443762
O   O15       1.0  0.94690  0.70670  0.59942  1.0000 -0.4260443762
O   O16       1.0  0.75980  0.70670  0.90058  1.0000 -0.4260443762
O   O17       1.0  0.94690  0.24020  0.23391  1.0000 -0.4260443762
O   O18       1.0  0.29330  0.05310  0.56724  1.0000 -0.4260443762
O   O19       1.0  0.67544  0.53890  0.60344  1.0000 -0.5445350225
O   O20       1.0  0.46110  0.13654  0.27011  1.0000 -0.5445350225
O   O21       1.0  0.86346  0.32456  0.93677  1.0000 -0.5445350225
O   O22       1.0  0.46110  0.32456  0.56323  1.0000 -0.5445350225
O   O23       1.0  0.86346  0.53890  0.89656  1.0000 -0.5445350225
O   O24       1.0  0.67544  0.13654  0.22989  1.0000 -0.5445350225
O   O25       1.0  0.48831  0.47933  0.63013  1.0000 -0.5471099729
O   O26       1.0  0.52067  0.00898  0.29680  1.0000 -0.5471099729
O   O27       1.0  0.99102  0.51169  0.96346  1.0000 -0.5471099729
O   O28       1.0  0.52067  0.51169  0.53654  1.0000 -0.5471099729
O   O29       1.0  0.99102  0.47933  0.86987  1.0000 -0.5471099729
O   O30       1.0  0.48831  0.00898  0.20320  1.0000 -0.5471099729
O   O31       1.0  0.70670  0.75980  0.76609  1.0000 -0.4260443762
O   O32       1.0  0.24020  0.94690  0.43276  1.0000 -0.4260443762
O   O33       1.0  0.05310  0.29330  0.09942  1.0000 -0.4260443762
O   O34       1.0  0.24020  0.29330  0.40058  1.0000 -0.4260443762
O   O35       1.0  0.05310  0.75980  0.73391  1.0000 -0.4260443762
O   O36       1.0  0.70670  0.94690  0.06724  1.0000 -0.4260443762
