# DDEC6 charges by PACMAN v1.1 (https://github.com/mtap-research/PACMAN-charge/)
data_2016[Zn][ths]3[ASR]4
_chemical_formula_sum              "Zn12 H96 C144 I24 N48"
_cell_length_a       14.955
_cell_length_b       18.9866
_cell_length_c       30.3469
_cell_angle_alpha    99.2524
_cell_angle_beta     90
_cell_angle_gamma    113.193

_symmetry_space_group_name_H-M    "P 1"
_symmetry_Int_Tables_number       1

loop_
  _symmetry_equiv_pos_as_xyz
  'x, y, z'

loop_
  _atom_site_type_symbol
  _atom_site_label
  _atom_site_symmetry_multiplicity
  _atom_site_fract_x
  _atom_site_fract_y
  _atom_site_fract_z
  _atom_site_occupancy
  _atom_site_charge
Zn  Zn1       1.0  0.70989  0.16063  0.09591  1.0000 0.4723755555
Zn  Zn2       1.0  0.29011  0.83937  0.90409  1.0000 0.4723755555
Zn  Zn3       1.0  0.54926  0.83937  0.40409  1.0000 0.4723755555
Zn  Zn4       1.0  0.45074  0.16063  0.59591  1.0000 0.4723755555
Zn  Zn5       1.0  0.96115  0.73668  0.44250  1.0000 0.478259875
Zn  Zn6       1.0  0.03885  0.26332  0.55750  1.0000 0.478259875
Zn  Zn7       1.0  0.22447  0.26332  0.05750  1.0000 0.478259875
Zn  Zn8       1.0  0.77553  0.73668  0.94250  1.0000 0.478259875
Zn  Zn9       1.0  0.02404  0.33843  0.26985  1.0000 0.4508630172
Zn  Zn10      1.0  0.97596  0.66157  0.73015  1.0000 0.4508630172
Zn  Zn11      1.0  0.68561  0.66157  0.23015  1.0000 0.4508630172
Zn  Zn12      1.0  0.31439  0.33843  0.76985  1.0000 0.4508630172
H   H1        1.0  0.81894  0.31070  0.16080  1.0000 0.0838587155
H   H2        1.0  0.18106  0.68930  0.83920  1.0000 0.0838587155
H   H3        1.0  0.50824  0.68930  0.33920  1.0000 0.0838587155
H   H4        1.0  0.49176  0.31070  0.66080  1.0000 0.0838587155
H   H5        1.0  0.77972  0.39589  0.22404  1.0000 0.1194682964
H   H6        1.0  0.22028  0.60411  0.77596  1.0000 0.1194682964
H   H7        1.0  0.38383  0.60411  0.27596  1.0000 0.1194682964
H   H8        1.0  0.61617  0.39589  0.72404  1.0000 0.1194682964
H   H9        1.0  0.47336  0.24817  0.19095  1.0000 0.1194682964
H   H10       1.0  0.52664  0.75183  0.80905  1.0000 0.1194682964
H   H11       1.0  0.22519  0.75183  0.30905  1.0000 0.1194682964
H   H12       1.0  0.77481  0.24817  0.69095  1.0000 0.1194682964
H   H13       1.0  0.52401  0.16303  0.13351  1.0000 0.0895325091
H   H14       1.0  0.47599  0.83697  0.86649  1.0000 0.0895325091
H   H15       1.0  0.36098  0.83697  0.36649  1.0000 0.0895325091
H   H16       1.0  0.63902  0.16303  0.63351  1.0000 0.0895325091
H   H17       1.0  0.74567  0.68718  0.42337  1.0000 0.0895325091
H   H18       1.0  0.25433  0.31282  0.57663  1.0000 0.0895325091
H   H19       1.0  0.05849  0.31282  0.07663  1.0000 0.0895325091
H   H20       1.0  0.94151  0.68718  0.92337  1.0000 0.0895325091
H   H21       1.0  0.61022  0.58295  0.37242  1.0000 0.1194682964
H   H22       1.0  0.38978  0.41705  0.62758  1.0000 0.1194682964
H   H23       1.0  0.02728  0.41705  0.12758  1.0000 0.1194682964
H   H24       1.0  0.97272  0.58295  0.87242  1.0000 0.1194682964
H   H25       1.0  0.82603  0.50782  0.30931  1.0000 0.1125365836
H   H26       1.0  0.17397  0.49218  0.69069  1.0000 0.1125365836
H   H27       1.0  0.31821  0.49218  0.19069  1.0000 0.1125365836
H   H28       1.0  0.68179  0.50782  0.80931  1.0000 0.1125365836
H   H29       1.0  0.95471  0.61532  0.36292  1.0000 0.0895325091
H   H30       1.0  0.04529  0.38468  0.63708  1.0000 0.0895325091
H   H31       1.0  0.33940  0.38468  0.13708  1.0000 0.0895325091
H   H32       1.0  0.66060  0.61532  0.86292  1.0000 0.0895325091
H   H33       1.0  0.20497  0.45560  0.32969  1.0000 0.0895325091
H   H34       1.0  0.79503  0.54440  0.67031  1.0000 0.0895325091
H   H35       1.0  0.74937  0.54440  0.17031  1.0000 0.0895325091
H   H36       1.0  0.25063  0.45560  0.82969  1.0000 0.0895325091
H   H37       1.0  0.38519  0.48397  0.33585  1.0000 0.1287972094
H   H38       1.0  0.61481  0.51603  0.66415  1.0000 0.1287972094
H   H39       1.0  0.90122  0.51603  0.16415  1.0000 0.1287972094
H   H40       1.0  0.09878  0.48397  0.83585  1.0000 0.1287972094
H   H41       1.0  0.33353  0.30183  0.22059  1.0000 0.1194682964
H   H42       1.0  0.66647  0.69817  0.77941  1.0000 0.1194682964
H   H43       1.0  0.03169  0.69817  0.27941  1.0000 0.1194682964
H   H44       1.0  0.96831  0.30183  0.72059  1.0000 0.1194682964
H   H45       1.0  0.15538  0.28011  0.21867  1.0000 0.0838587155
H   H46       1.0  0.84462  0.71989  0.78133  1.0000 0.0838587155
H   H47       1.0  0.87527  0.71989  0.28133  1.0000 0.0838587155
H   H48       1.0  0.12473  0.28011  0.71867  1.0000 0.0838587155
H   H49       1.0  0.94754  0.83540  0.37840  1.0000 0.0895325091
H   H50       1.0  0.05246  0.16460  0.62160  1.0000 0.0895325091
H   H51       1.0  0.11213  0.16460  0.12160  1.0000 0.0895325091
H   H52       1.0  0.88787  0.83540  0.87840  1.0000 0.0895325091
H   H53       1.0  0.91748  0.95793  0.38027  1.0000 0.1287972094
H   H54       1.0  0.08252  0.04207  0.61973  1.0000 0.1287972094
H   H55       1.0  0.95955  0.04207  0.11973  1.0000 0.1287972094
H   H56       1.0  0.04045  0.95793  0.88027  1.0000 0.1287972094
H   H57       1.0  0.83616  0.94373  0.51651  1.0000 0.1287972094
H   H58       1.0  0.16384  0.05627  0.48349  1.0000 0.1287972094
H   H59       1.0  0.89243  0.05627  0.98349  1.0000 0.1287972094
H   H60       1.0  0.10757  0.94373  0.01651  1.0000 0.1287972094
H   H61       1.0  0.87911  0.82567  0.51131  1.0000 0.0895325091
H   H62       1.0  0.12089  0.17433  0.48869  1.0000 0.0895325091
H   H63       1.0  0.05344  0.17433  0.98869  1.0000 0.0895325091
H   H64       1.0  0.94656  0.82567  0.01131  1.0000 0.0895325091
H   H65       1.0  0.89922  0.34041  0.34785  1.0000 0.0838587155
H   H66       1.0  0.10078  0.65959  0.65215  1.0000 0.0895325091
H   H67       1.0  0.55881  0.65959  0.15215  1.0000 0.0838587155
H   H68       1.0  0.44119  0.34041  0.84785  1.0000 0.0838587155
H   H69       1.0  0.82691  0.25511  0.40585  1.0000 0.1287972094
H   H70       1.0  0.17309  0.74489  0.59415  1.0000 0.1287972094
H   H71       1.0  0.57181  0.74489  0.09415  1.0000 0.1287972094
H   H72       1.0  0.42819  0.25511  0.90585  1.0000 0.1287972094
H   H73       1.0  0.00309  0.12678  0.36101  1.0000 0.1287972094
H   H74       1.0  0.99691  0.87322  0.63899  1.0000 0.1287972094
H   H75       1.0  0.87631  0.87322  0.13899  1.0000 0.1287972094
H   H76       1.0  0.12369  0.12678  0.86101  1.0000 0.1287972094
H   H77       1.0  0.06964  0.21648  0.30508  1.0000 0.0895325091
H   H78       1.0  0.93036  0.78352  0.69492  1.0000 0.0895325091
H   H79       1.0  0.85316  0.78352  0.19492  1.0000 0.0895325091
H   H80       1.0  0.14684  0.21648  0.80508  1.0000 0.0895325091
H   H81       1.0  0.52112  0.02453  0.57521  1.0000 0.0895325091
H   H82       1.0  0.47888  0.97547  0.42479  1.0000 0.0895325091
H   H83       1.0  0.49659  0.97547  0.92479  1.0000 0.0895325091
H   H84       1.0  0.50341  0.02453  0.07521  1.0000 0.0895325091
H   H85       1.0  0.65157  0.00048  0.52902  1.0000 0.1287972094
H   H86       1.0  0.34843  0.99952  0.47098  1.0000 0.1287972094
H   H87       1.0  0.65109  0.99952  0.97098  1.0000 0.1287972094
H   H88       1.0  0.34891  0.00048  0.02902  1.0000 0.1287972094
H   H89       1.0  0.70625  0.21457  0.48008  1.0000 0.1287972094
H   H90       1.0  0.29375  0.78543  0.51992  1.0000 0.1287972094
H   H91       1.0  0.49168  0.78543  0.01992  1.0000 0.1287972094
H   H92       1.0  0.50832  0.21457  0.98008  1.0000 0.1287972094
H   H93       1.0  0.57516  0.23156  0.52819  1.0000 0.0895325091
H   H94       1.0  0.42484  0.76844  0.47181  1.0000 0.0895325091
H   H95       1.0  0.34360  0.76844  0.97181  1.0000 0.0895325091
H   H96       1.0  0.65640  0.23156  0.02819  1.0000 0.0895325091
C   C1        1.0  0.74357  0.29872  0.16898  1.0000 0.1000234254
C   C2        1.0  0.25643  0.70128  0.83102  1.0000 0.1000234254
C   C3        1.0  0.44485  0.70128  0.33102  1.0000 0.1000234254
C   C4        1.0  0.55515  0.29872  0.66898  1.0000 0.1000234254
C   C5        1.0  0.72157  0.34625  0.20340  1.0000 -0.1363936111
C   C6        1.0  0.27843  0.65375  0.79660  1.0000 -0.1363936111
C   C7        1.0  0.37531  0.65375  0.29660  1.0000 -0.1363936111
C   C8        1.0  0.62469  0.34625  0.70340  1.0000 -0.1363936111
C   C9        1.0  0.62319  0.32806  0.21139  1.0000 0.0488765763
C   C10       1.0  0.37681  0.67194  0.78861  1.0000 0.0488765763
C   C11       1.0  0.29513  0.67194  0.28861  1.0000 0.0488765763
C   C12       1.0  0.70487  0.32806  0.71139  1.0000 0.0488765763
C   C13       1.0  0.55039  0.26238  0.18561  1.0000 -0.130622366
C   C14       1.0  0.44961  0.73762  0.81439  1.0000 -0.130622366
C   C15       1.0  0.28801  0.73762  0.31439  1.0000 -0.130622366
C   C16       1.0  0.71199  0.26238  0.68561  1.0000 -0.130622366
C   C17       1.0  0.57862  0.21613  0.15322  1.0000 0.1000234254
C   C18       1.0  0.42138  0.78387  0.84678  1.0000 0.1000234254
C   C19       1.0  0.36248  0.78387  0.34678  1.0000 0.1000234254
C   C20       1.0  0.63752  0.21613  0.65322  1.0000 0.1000234254
C   C21       1.0  0.76101  0.64625  0.39787  1.0000 0.1000234254
C   C22       1.0  0.23899  0.35375  0.60213  1.0000 0.1000234254
C   C23       1.0  0.11476  0.35375  0.10213  1.0000 0.1000234254
C   C24       1.0  0.88524  0.64625  0.89787  1.0000 0.1000234254
C   C25       1.0  0.68553  0.58843  0.36947  1.0000 -0.130622366
C   C26       1.0  0.31447  0.41157  0.63053  1.0000 -0.130622366
C   C27       1.0  0.09710  0.41157  0.13053  1.0000 -0.130622366
C   C28       1.0  0.90290  0.58843  0.86947  1.0000 -0.130622366
C   C29       1.0  0.70882  0.53792  0.33708  1.0000 0.0488765763
C   C30       1.0  0.29118  0.46208  0.66292  1.0000 0.0488765763
C   C31       1.0  0.17090  0.46208  0.16292  1.0000 0.0488765763
C   C32       1.0  0.82910  0.53792  0.83708  1.0000 0.0488765763
C   C33       1.0  0.80646  0.54710  0.33412  1.0000 -0.1363936111
C   C34       1.0  0.19354  0.45290  0.66588  1.0000 -0.1363936111
C   C35       1.0  0.25937  0.45290  0.16588  1.0000 -0.1363936111
C   C36       1.0  0.74063  0.54710  0.83412  1.0000 -0.1363936111
C   C37       1.0  0.87761  0.60613  0.36373  1.0000 0.1000234254
C   C38       1.0  0.12239  0.39387  0.63627  1.0000 0.1000234254
C   C39       1.0  0.27147  0.39387  0.13627  1.0000 0.1000234254
C   C40       1.0  0.72853  0.60613  0.86373  1.0000 0.1000234254
C   C41       1.0  0.23643  0.42245  0.30650  1.0000 0.0895325091
C   C42       1.0  0.76357  0.57755  0.69350  1.0000 0.0895325091
C   C43       1.0  0.81399  0.57755  0.19350  1.0000 0.0895325091
C   C44       1.0  0.18601  0.42245  0.80650  1.0000 0.0895325091
C   C45       1.0  0.33555  0.43785  0.30998  1.0000 -0.1363936111
C   C46       1.0  0.66445  0.56215  0.69002  1.0000 -0.1363936111
C   C47       1.0  0.89770  0.56215  0.19002  1.0000 -0.1363936111
C   C48       1.0  0.10230  0.43785  0.80998  1.0000 -0.1363936111
C   C49       1.0  0.37117  0.39325  0.27921  1.0000 0.0580955184
C   C50       1.0  0.62883  0.60675  0.72079  1.0000 0.0580955184
C   C51       1.0  0.97791  0.60675  0.22079  1.0000 0.0580955184
C   C52       1.0  0.02209  0.39325  0.77921  1.0000 0.0580955184
C   C53       1.0  0.30659  0.33570  0.24565  1.0000 -0.130622366
C   C54       1.0  0.69341  0.66430  0.75435  1.0000 -0.1363936111
C   C55       1.0  0.97090  0.66430  0.25435  1.0000 -0.130622366
C   C56       1.0  0.02910  0.33570  0.74565  1.0000 -0.130622366
C   C57       1.0  0.20891  0.32394  0.24433  1.0000 0.0895325091
C   C58       1.0  0.79109  0.67606  0.75567  1.0000 0.0895325091
C   C59       1.0  0.88497  0.67606  0.25567  1.0000 0.0895325091
C   C60       1.0  0.11503  0.32394  0.74433  1.0000 0.0895325091
C   C61       1.0  0.59449  0.37641  0.24651  1.0000 0.37903938
C   C62       1.0  0.40551  0.62359  0.75349  1.0000 0.37903938
C   C63       1.0  0.21808  0.62359  0.25349  1.0000 0.37903938
C   C64       1.0  0.78192  0.37641  0.74651  1.0000 0.37903938
C   C65       1.0  0.63322  0.47577  0.30580  1.0000 0.37903938
C   C66       1.0  0.36678  0.52423  0.69420  1.0000 0.37903938
C   C67       1.0  0.15744  0.52423  0.19420  1.0000 0.37903938
C   C68       1.0  0.84256  0.47577  0.80580  1.0000 0.37903938
C   C69       1.0  0.47513  0.40641  0.28018  1.0000 0.3717522756
C   C70       1.0  0.52487  0.59359  0.71982  1.0000 0.3717522756
C   C71       1.0  0.06873  0.59359  0.21982  1.0000 0.3717522756
C   C72       1.0  0.93127  0.40641  0.78018  1.0000 0.3717522756
C   C73       1.0  0.92654  0.86311  0.40883  1.0000 0.1000234254
C   C74       1.0  0.07346  0.13689  0.59117  1.0000 0.1000234254
C   C75       1.0  0.06343  0.13689  0.09117  1.0000 0.1000234254
C   C76       1.0  0.93657  0.86311  0.90883  1.0000 0.1000234254
C   C77       1.0  0.90968  0.93007  0.40981  1.0000 -0.130622366
C   C78       1.0  0.09032  0.06993  0.59019  1.0000 -0.130622366
C   C79       1.0  0.97961  0.06993  0.09019  1.0000 -0.130622366
C   C80       1.0  0.02039  0.93007  0.90981  1.0000 -0.130622366
C   C81       1.0  0.87830  0.96013  0.44924  1.0000 0.0488765763
C   C82       1.0  0.12170  0.03987  0.55076  1.0000 0.0488765763
C   C83       1.0  0.91817  0.03987  0.05076  1.0000 0.0488765763
C   C84       1.0  0.08183  0.96013  0.94924  1.0000 0.0488765763
C   C85       1.0  0.86463  0.92251  0.48631  1.0000 -0.1363936111
C   C86       1.0  0.13537  0.07749  0.51369  1.0000 -0.1363936111
C   C87       1.0  0.94212  0.07749  0.01369  1.0000 -0.130622366
C   C88       1.0  0.05788  0.92251  0.98631  1.0000 -0.1363936111
C   C89       1.0  0.88666  0.85735  0.48331  1.0000 0.1000234254
C   C90       1.0  0.11334  0.14265  0.51669  1.0000 0.1000234254
C   C91       1.0  0.02931  0.14265  0.01669  1.0000 0.1000234254
C   C92       1.0  0.97069  0.85735  0.98331  1.0000 0.1000234254
C   C93       1.0  0.91878  0.29156  0.35149  1.0000 0.1000234254
C   C94       1.0  0.08122  0.70844  0.64851  1.0000 0.1000234254
C   C95       1.0  0.62722  0.70844  0.14851  1.0000 0.1000234254
C   C96       1.0  0.37278  0.29156  0.85149  1.0000 0.1000234254
C   C97       1.0  0.87904  0.24467  0.38324  1.0000 -0.123366253
C   C98       1.0  0.12096  0.75533  0.61676  1.0000 -0.123366253
C   C99       1.0  0.63436  0.75533  0.11676  1.0000 -0.123366253
C   C100      1.0  0.36564  0.24467  0.88324  1.0000 -0.123366253
C   C101      1.0  0.90860  0.18411  0.38644  1.0000 0.0580955184
C   C102      1.0  0.09140  0.81589  0.61356  1.0000 0.0580955184
C   C103      1.0  0.72449  0.81589  0.11356  1.0000 0.0580955184
C   C104      1.0  0.27551  0.18411  0.88644  1.0000 0.0580955184
C   C105      1.0  0.97801  0.17296  0.35828  1.0000 -0.130622366
C   C106      1.0  0.02199  0.82704  0.64172  1.0000 -0.130622366
C   C107      1.0  0.80504  0.82704  0.14172  1.0000 -0.130622366
C   C108      1.0  0.19496  0.17296  0.85828  1.0000 -0.130622366
C   C109      1.0  0.01462  0.22240  0.32750  1.0000 0.1000234254
C   C110      1.0  0.98538  0.77760  0.67250  1.0000 0.1000234254
C   C111      1.0  0.79222  0.77760  0.17250  1.0000 0.1000234254
C   C112      1.0  0.20778  0.22240  0.82750  1.0000 0.1000234254
C   C113      1.0  0.56417  0.06507  0.55358  1.0000 0.0895325091
C   C114      1.0  0.43583  0.93493  0.44642  1.0000 0.0895325091
C   C115      1.0  0.49910  0.93493  0.94642  1.0000 0.0895325091
C   C116      1.0  0.50090  0.06507  0.05358  1.0000 0.0895325091
C   C117      1.0  0.63548  0.05184  0.52828  1.0000 -0.1363936111
C   C118      1.0  0.36452  0.94816  0.47172  1.0000 -0.1363936111
C   C119      1.0  0.58364  0.94816  0.97172  1.0000 -0.1363936111
C   C120      1.0  0.41636  0.05184  0.02828  1.0000 -0.1363936111
C   C121      1.0  0.68744  0.10636  0.50149  1.0000 0.0580955184
C   C122      1.0  0.31256  0.89364  0.49851  1.0000 0.0580955184
C   C123      1.0  0.58108  0.89364  0.99851  1.0000 0.0580955184
C   C124      1.0  0.41892  0.10636  0.00149  1.0000 0.0580955184
C   C125      1.0  0.66584  0.17161  0.50072  1.0000 -0.130622366
C   C126      1.0  0.33416  0.82839  0.49928  1.0000 -0.130622366
C   C127      1.0  0.49423  0.82839  0.99928  1.0000 -0.130622366
C   C128      1.0  0.50577  0.17161  0.00072  1.0000 -0.130622366
C   C129      1.0  0.59438  0.18112  0.52709  1.0000 0.0895325091
C   C130      1.0  0.40562  0.81888  0.47291  1.0000 0.0895325091
C   C131      1.0  0.41326  0.81888  0.97291  1.0000 0.0895325091
C   C132      1.0  0.58674  0.18112  0.02709  1.0000 0.0895325091
C   C133      1.0  0.85479  0.02831  0.44998  1.0000 0.37903938
C   C134      1.0  0.14521  0.97169  0.55002  1.0000 0.37903938
C   C135      1.0  0.82648  0.97169  0.05002  1.0000 0.37903938
C   C136      1.0  0.17352  0.02831  0.94998  1.0000 0.37903938
C   C137      1.0  0.86721  0.13278  0.41925  1.0000 0.37903938
C   C138      1.0  0.13279  0.86722  0.58075  1.0000 0.37903938
C   C139      1.0  0.73443  0.86722  0.08075  1.0000 0.37903938
C   C140      1.0  0.26557  0.13278  0.91925  1.0000 0.37903938
C   C141      1.0  0.76386  0.09617  0.47403  1.0000 0.37903938
C   C142      1.0  0.23614  0.90383  0.52597  1.0000 0.37903938
C   C143      1.0  0.66769  0.90383  0.02597  1.0000 0.37903938
C   C144      1.0  0.33231  0.09617  0.97403  1.0000 0.37903938
I   I1        1.0  0.92099  0.68618  0.51613  1.0000 -0.4387383586
I   I2        1.0  0.07901  0.31382  0.48387  1.0000 -0.4387383586
I   I3        1.0  0.23481  0.31382  0.98387  1.0000 -0.4387383586
I   I4        1.0  0.76519  0.68618  0.01613  1.0000 -0.4387383586
I   I5        1.0  0.12189  0.77796  0.40405  1.0000 -0.4659160539
I   I6        1.0  0.87811  0.22204  0.59595  1.0000 -0.4646392628
I   I7        1.0  0.34393  0.22204  0.09595  1.0000 -0.4646392628
I   I8        1.0  0.65607  0.77796  0.90405  1.0000 -0.4659160539
I   I9        1.0  0.95228  0.23872  0.19798  1.0000 -0.4227415486
I   I10       1.0  0.04772  0.76128  0.80202  1.0000 -0.4227415486
I   I11       1.0  0.71355  0.76128  0.30202  1.0000 -0.4227415486
I   I12       1.0  0.28645  0.23872  0.69798  1.0000 -0.4227415486
I   I13       1.0  0.98784  0.45968  0.29233  1.0000 -0.4145117267
I   I14       1.0  0.01216  0.54032  0.70767  1.0000 -0.4145117267
I   I15       1.0  0.52816  0.54032  0.20767  1.0000 -0.4145117267
I   I16       1.0  0.47184  0.45968  0.79233  1.0000 -0.4145117267
I   I17       1.0  0.68949  0.04367  0.13216  1.0000 -0.4260877757
I   I18       1.0  0.31051  0.95633  0.86784  1.0000 -0.4260877757
I   I19       1.0  0.64582  0.95633  0.36784  1.0000 -0.4260877757
I   I20       1.0  0.35418  0.04367  0.63216  1.0000 -0.4260877757
I   I21       1.0  0.85113  0.24678  0.05651  1.0000 -0.4387383586
I   I22       1.0  0.14887  0.75322  0.94349  1.0000 -0.4387383586
I   I23       1.0  0.60434  0.75322  0.44349  1.0000 -0.4387383586
I   I24       1.0  0.39566  0.24678  0.55651  1.0000 -0.4387383586
N   N1        1.0  0.67339  0.23436  0.14447  1.0000 -0.1804785258
N   N2        1.0  0.32661  0.76564  0.85553  1.0000 -0.1804785258
N   N3        1.0  0.43903  0.76564  0.35553  1.0000 -0.1804785258
N   N4        1.0  0.56097  0.23436  0.64447  1.0000 -0.1804785258
N   N5        1.0  0.85528  0.65514  0.39515  1.0000 -0.188326105
N   N6        1.0  0.14472  0.34486  0.60485  1.0000 -0.188326105
N   N7        1.0  0.20014  0.34486  0.10485  1.0000 -0.188326105
N   N8        1.0  0.79986  0.65514  0.89515  1.0000 -0.188326105
N   N9        1.0  0.17371  0.36620  0.27431  1.0000 -0.1970949708
N   N10       1.0  0.82629  0.63380  0.72569  1.0000 -0.1970949708
N   N11       1.0  0.80752  0.63380  0.22569  1.0000 -0.1970949708
N   N12       1.0  0.19248  0.36620  0.77431  1.0000 -0.1970949708
N   N13       1.0  0.66564  0.43555  0.27334  1.0000 -0.3846093207
N   N14       1.0  0.33436  0.56445  0.72666  1.0000 -0.3846093207
N   N15       1.0  0.23009  0.56445  0.22666  1.0000 -0.3846093207
N   N16       1.0  0.76991  0.43555  0.77334  1.0000 -0.3846093207
N   N17       1.0  0.53863  0.46421  0.31098  1.0000 -0.3918870385
N   N18       1.0  0.46137  0.53579  0.68902  1.0000 -0.3918870385
N   N19       1.0  0.07443  0.53579  0.18902  1.0000 -0.3918870385
N   N20       1.0  0.92557  0.46421  0.81098  1.0000 -0.3918870385
N   N21       1.0  0.49798  0.35836  0.24876  1.0000 -0.3918870385
N   N22       1.0  0.50202  0.64164  0.75124  1.0000 -0.3918870385
N   N23       1.0  0.13963  0.64164  0.25124  1.0000 -0.3918870385
N   N24       1.0  0.86037  0.35836  0.74876  1.0000 -0.3918870385
N   N25       1.0  0.91773  0.82839  0.44537  1.0000 -0.1970949708
N   N26       1.0  0.08227  0.17161  0.55463  1.0000 -0.1970949708
N   N27       1.0  0.08934  0.17161  0.05463  1.0000 -0.1970949708
N   N28       1.0  0.91066  0.82839  0.94537  1.0000 -0.1970949708
N   N29       1.0  0.98473  0.28020  0.32361  1.0000 -0.188326105
N   N30       1.0  0.01527  0.71980  0.67639  1.0000 -0.188326105
N   N31       1.0  0.70453  0.71980  0.17639  1.0000 -0.188326105
N   N32       1.0  0.29547  0.28020  0.82361  1.0000 -0.188326105
N   N33       1.0  0.54396  0.12884  0.55326  1.0000 -0.1970949708
N   N34       1.0  0.45604  0.87116  0.44674  1.0000 -0.1970949708
N   N35       1.0  0.41512  0.87116  0.94674  1.0000 -0.1970949708
N   N36       1.0  0.58488  0.12884  0.05326  1.0000 -0.1970949708
N   N37       1.0  0.89772  0.07486  0.42009  1.0000 -0.4027217044
N   N38       1.0  0.10228  0.92514  0.57991  1.0000 -0.4027217044
N   N39       1.0  0.82286  0.92514  0.07991  1.0000 -0.4027217044
N   N40       1.0  0.17714  0.07486  0.92009  1.0000 -0.4027217044
N   N41       1.0  0.79933  0.14557  0.44473  1.0000 -0.3918870385
N   N42       1.0  0.20067  0.85443  0.55527  1.0000 -0.3918870385
N   N43       1.0  0.65376  0.85443  0.05527  1.0000 -0.3918870385
N   N44       1.0  0.34624  0.14557  0.94473  1.0000 -0.3918870385
N   N45       1.0  0.79004  0.03725  0.47907  1.0000 -0.3918870385
N   N46       1.0  0.20996  0.96275  0.52093  1.0000 -0.3918870385
N   N47       1.0  0.75279  0.96275  0.02093  1.0000 -0.3918870385
N   N48       1.0  0.24721  0.03725  0.97907  1.0000 -0.3918870385
