# DDEC6 charges by PACMAN v1.1 (https://github.com/mtap-research/PACMAN-charge/)
data_2016[Cu][nbo]3[ASR]2
_chemical_formula_sum              "Cu6 H54 C96 N6 O30"
_cell_length_a       14.2957
_cell_length_b       14.2957
_cell_length_c       14.2957
_cell_angle_alpha    96.0133
_cell_angle_beta     96.0133
_cell_angle_gamma    96.0133

_symmetry_space_group_name_H-M    "P 1"
_symmetry_Int_Tables_number       1

loop_
  _symmetry_equiv_pos_as_xyz
  'x, y, z'

loop_
  _atom_site_type_symbol
  _atom_site_label
  _atom_site_symmetry_multiplicity
  _atom_site_fract_x
  _atom_site_fract_y
  _atom_site_fract_z
  _atom_site_occupancy
  _atom_site_charge
Cu  Cu1       1.0  0.08012  0.46987  0.47941  1.0000 0.826742073
Cu  Cu2       1.0  0.46987  0.47941  0.08012  1.0000 0.826742073
Cu  Cu3       1.0  0.47941  0.08012  0.46987  1.0000 0.826742073
Cu  Cu4       1.0  0.91988  0.53013  0.52059  1.0000 0.826742073
Cu  Cu5       1.0  0.53013  0.52059  0.91988  1.0000 0.826742073
Cu  Cu6       1.0  0.52059  0.91988  0.53013  1.0000 0.826742073
H   H1        1.0  0.24000  0.75480  0.48220  1.0000 0.1387558332
H   H2        1.0  0.75480  0.48220  0.24000  1.0000 0.1387558332
H   H3        1.0  0.48220  0.24000  0.75480  1.0000 0.1387558332
H   H4        1.0  0.76000  0.24520  0.51780  1.0000 0.1387558332
H   H5        1.0  0.24520  0.51780  0.76000  1.0000 0.1387558332
H   H6        1.0  0.51780  0.76000  0.24520  1.0000 0.1387558332
H   H7        1.0  0.97010  0.80580  0.42330  1.0000 0.1281872298
H   H8        1.0  0.80580  0.42330  0.97010  1.0000 0.1281872298
H   H9        1.0  0.42330  0.97010  0.80580  1.0000 0.1281872298
H   H10       1.0  0.02990  0.19420  0.57670  1.0000 0.1281872298
H   H11       1.0  0.19420  0.57670  0.02990  1.0000 0.1281872298
H   H12       1.0  0.57670  0.02990  0.19420  1.0000 0.1281872298
H   H13       1.0  0.18360  0.00840  0.40710  1.0000 0.1281872298
H   H14       1.0  0.00840  0.40710  0.18360  1.0000 0.1281872298
H   H15       1.0  0.40710  0.18360  0.00840  1.0000 0.1281872298
H   H16       1.0  0.81640  0.99160  0.59290  1.0000 0.1281872298
H   H17       1.0  0.99160  0.59290  0.81640  1.0000 0.1281872298
H   H18       1.0  0.59290  0.81640  0.99160  1.0000 0.1281872298
H   H19       1.0  0.06500  0.11310  0.41260  1.0000 0.1281872298
H   H20       1.0  0.11310  0.41260  0.06500  1.0000 0.1281872298
H   H21       1.0  0.41260  0.06500  0.11310  1.0000 0.1281872298
H   H22       1.0  0.93500  0.88690  0.58740  1.0000 0.1281872298
H   H23       1.0  0.88690  0.58740  0.93500  1.0000 0.1281872298
H   H24       1.0  0.58740  0.93500  0.88690  1.0000 0.1281872298
H   H25       1.0  0.06730  0.07160  0.30600  1.0000 0.1281872298
H   H26       1.0  0.07160  0.30600  0.06730  1.0000 0.1281872298
H   H27       1.0  0.30600  0.06730  0.07160  1.0000 0.1281872298
H   H28       1.0  0.93270  0.92840  0.69400  1.0000 0.1281872298
H   H29       1.0  0.92840  0.69400  0.93270  1.0000 0.1281872298
H   H30       1.0  0.69400  0.93270  0.92840  1.0000 0.1281872298
H   H31       1.0  0.72050  0.01680  0.33170  1.0000 0.1210459198
H   H32       1.0  0.01680  0.33170  0.72050  1.0000 0.1210459198
H   H33       1.0  0.33170  0.72050  0.01680  1.0000 0.1210459198
H   H34       1.0  0.27950  0.98320  0.66830  1.0000 0.1210459198
H   H35       1.0  0.98320  0.66830  0.27950  1.0000 0.1210459198
H   H36       1.0  0.66830  0.27950  0.98320  1.0000 0.1210459198
H   H37       1.0  0.69110  0.16210  0.28300  1.0000 0.1210459198
H   H38       1.0  0.16210  0.28300  0.69110  1.0000 0.1210459198
H   H39       1.0  0.28300  0.69110  0.16210  1.0000 0.1210459198
H   H40       1.0  0.30890  0.83790  0.71700  1.0000 0.1210459198
H   H41       1.0  0.83790  0.71700  0.30890  1.0000 0.1210459198
H   H42       1.0  0.71700  0.30890  0.83790  1.0000 0.1210459198
H   H43       1.0  0.81370  0.27390  0.26850  1.0000 0.112462779
H   H44       1.0  0.27390  0.26850  0.81370  1.0000 0.112462779
H   H45       1.0  0.26850  0.81370  0.27390  1.0000 0.112462779
H   H46       1.0  0.18630  0.72610  0.73150  1.0000 0.112462779
H   H47       1.0  0.72610  0.73150  0.18630  1.0000 0.112462779
H   H48       1.0  0.73150  0.18630  0.72610  1.0000 0.112462779
H   H49       1.0  0.96970  0.24550  0.29810  1.0000 0.1281872298
H   H50       1.0  0.24550  0.29810  0.96970  1.0000 0.1281872298
H   H51       1.0  0.29810  0.96970  0.24550  1.0000 0.1281872298
H   H52       1.0  0.03030  0.75450  0.70190  1.0000 0.1281872298
H   H53       1.0  0.75450  0.70190  0.03030  1.0000 0.1281872298
H   H54       1.0  0.70190  0.03030  0.75450  1.0000 0.1281872298
C   C1        1.0  0.06363  0.66603  0.47083  1.0000 0.5594078204
C   C2        1.0  0.66603  0.47083  0.06363  1.0000 0.5594078204
C   C3        1.0  0.47083  0.06363  0.66603  1.0000 0.5594078204
C   C4        1.0  0.93637  0.33397  0.52917  1.0000 0.5594078204
C   C5        1.0  0.33397  0.52917  0.93637  1.0000 0.5594078204
C   C6        1.0  0.52917  0.93637  0.33397  1.0000 0.5594078204
C   C7        1.0  0.32977  0.92557  0.46697  1.0000 0.5594078204
C   C8        1.0  0.92557  0.46697  0.32977  1.0000 0.5594078204
C   C9        1.0  0.46697  0.32977  0.92557  1.0000 0.5594078204
C   C10       1.0  0.67023  0.07443  0.53303  1.0000 0.5594078204
C   C11       1.0  0.07443  0.53303  0.67023  1.0000 0.5594078204
C   C12       1.0  0.53303  0.67023  0.07443  1.0000 0.5594078204
C   C13       1.0  0.22700  0.88790  0.44880  1.0000 -0.0166052766
C   C14       1.0  0.88790  0.44880  0.22700  1.0000 -0.0166052766
C   C15       1.0  0.44880  0.22700  0.88790  1.0000 -0.0166052766
C   C16       1.0  0.77300  0.11210  0.55120  1.0000 -0.0166052766
C   C17       1.0  0.11210  0.55120  0.77300  1.0000 -0.0166052766
C   C18       1.0  0.55120  0.77300  0.11210  1.0000 -0.0166052766
C   C19       1.0  0.19630  0.79530  0.46440  1.0000 -0.123839485
C   C20       1.0  0.79530  0.46440  0.19630  1.0000 -0.123839485
C   C21       1.0  0.46440  0.19630  0.79530  1.0000 -0.123839485
C   C22       1.0  0.80370  0.20470  0.53560  1.0000 -0.123839485
C   C23       1.0  0.20470  0.53560  0.80370  1.0000 -0.123839485
C   C24       1.0  0.53560  0.80370  0.20470  1.0000 -0.123839485
C   C25       1.0  0.10070  0.76470  0.45290  1.0000 -0.0088687034
C   C26       1.0  0.76470  0.45290  0.10070  1.0000 -0.0088687034
C   C27       1.0  0.45290  0.10070  0.76470  1.0000 -0.0088687034
C   C28       1.0  0.89930  0.23530  0.54710  1.0000 -0.0088687034
C   C29       1.0  0.23530  0.54710  0.89930  1.0000 -0.0088687034
C   C30       1.0  0.54710  0.89930  0.23530  1.0000 -0.0088687034
C   C31       1.0  0.03460  0.82610  0.42790  1.0000 -0.1981489794
C   C32       1.0  0.82610  0.42790  0.03460  1.0000 -0.1981489794
C   C33       1.0  0.42790  0.03460  0.82610  1.0000 -0.1981489794
C   C34       1.0  0.96540  0.17390  0.57210  1.0000 -0.1981489794
C   C35       1.0  0.17390  0.57210  0.96540  1.0000 -0.1981489794
C   C36       1.0  0.57210  0.96540  0.17390  1.0000 -0.1981489794
C   C37       1.0  0.06510  0.91760  0.41000  1.0000 0.1871107569
C   C38       1.0  0.91760  0.41000  0.06510  1.0000 0.1871107569
C   C39       1.0  0.41000  0.06510  0.91760  1.0000 0.1871107569
C   C40       1.0  0.93490  0.08240  0.59000  1.0000 0.1871107569
C   C41       1.0  0.08240  0.59000  0.93490  1.0000 0.1871107569
C   C42       1.0  0.59000  0.93490  0.08240  1.0000 0.1871107569
C   C43       1.0  0.16230  0.94790  0.41990  1.0000 -0.1981489794
C   C44       1.0  0.94790  0.41990  0.16230  1.0000 -0.1981489794
C   C45       1.0  0.41990  0.16230  0.94790  1.0000 -0.1981489794
C   C46       1.0  0.83770  0.05210  0.58010  1.0000 -0.1981489794
C   C47       1.0  0.05210  0.58010  0.83770  1.0000 -0.1981489794
C   C48       1.0  0.58010  0.83770  0.05210  1.0000 -0.1981489794
C   C49       1.0  0.90160  0.95990  0.37370  1.0000 0.4270959597
C   C50       1.0  0.95990  0.37370  0.90160  1.0000 0.4270959597
C   C51       1.0  0.37370  0.90160  0.95990  1.0000 0.4270959597
C   C52       1.0  0.09840  0.04010  0.62630  1.0000 0.4270959597
C   C53       1.0  0.04010  0.62630  0.09840  1.0000 0.4270959597
C   C54       1.0  0.62630  0.09840  0.04010  1.0000 0.4270959597
C   C55       1.0  0.02920  0.07420  0.35830  1.0000 -0.1587755182
C   C56       1.0  0.07420  0.35830  0.02920  1.0000 -0.1587755182
C   C57       1.0  0.35830  0.02920  0.07420  1.0000 -0.1587755182
C   C58       1.0  0.97080  0.92580  0.64170  1.0000 -0.1587755182
C   C59       1.0  0.92580  0.64170  0.97080  1.0000 -0.1587755182
C   C60       1.0  0.64170  0.97080  0.92580  1.0000 -0.1587755182
C   C61       1.0  0.93790  0.11100  0.33150  1.0000 0.0614268234
C   C62       1.0  0.11100  0.33150  0.93790  1.0000 0.0614268234
C   C63       1.0  0.33150  0.93790  0.11100  1.0000 0.0614268234
C   C64       1.0  0.06210  0.88900  0.66850  1.0000 0.0614268234
C   C65       1.0  0.88900  0.66850  0.06210  1.0000 0.0614268234
C   C66       1.0  0.66850  0.06210  0.88900  1.0000 0.0614268234
C   C67       1.0  0.86400  0.04520  0.34010  1.0000 -0.0747267255
C   C68       1.0  0.04520  0.34010  0.86400  1.0000 -0.0747267255
C   C69       1.0  0.34010  0.86400  0.04520  1.0000 -0.0747267255
C   C70       1.0  0.13600  0.95480  0.65990  1.0000 -0.0747267255
C   C71       1.0  0.95480  0.65990  0.13600  1.0000 -0.0747267255
C   C72       1.0  0.65990  0.13600  0.95480  1.0000 -0.0747267255
C   C73       1.0  0.76990  0.06210  0.32400  1.0000 -0.090199463
C   C74       1.0  0.06210  0.32400  0.76990  1.0000 -0.090199463
C   C75       1.0  0.32400  0.76990  0.06210  1.0000 -0.090199463
C   C76       1.0  0.23010  0.93790  0.67600  1.0000 -0.090199463
C   C77       1.0  0.93790  0.67600  0.23010  1.0000 -0.090199463
C   C78       1.0  0.67600  0.23010  0.93790  1.0000 -0.090199463
C   C79       1.0  0.75320  0.14880  0.29600  1.0000 -0.0809544299
C   C80       1.0  0.14880  0.29600  0.75320  1.0000 -0.0809544299
C   C81       1.0  0.29600  0.75320  0.14880  1.0000 -0.0809544299
C   C82       1.0  0.24680  0.85120  0.70400  1.0000 -0.0809544299
C   C83       1.0  0.85120  0.70400  0.24680  1.0000 -0.0809544299
C   C84       1.0  0.70400  0.24680  0.85120  1.0000 -0.0809544299
C   C85       1.0  0.82700  0.21580  0.28690  1.0000 -0.0809544299
C   C86       1.0  0.21580  0.28690  0.82700  1.0000 -0.0809544299
C   C87       1.0  0.28690  0.82700  0.21580  1.0000 -0.0809544299
C   C88       1.0  0.17300  0.78420  0.71310  1.0000 -0.0809544299
C   C89       1.0  0.78420  0.71310  0.17300  1.0000 -0.0809544299
C   C90       1.0  0.71310  0.17300  0.78420  1.0000 -0.0809544299
C   C91       1.0  0.92030  0.19960  0.30430  1.0000 -0.1440563648
C   C92       1.0  0.19960  0.30430  0.92030  1.0000 -0.1440563648
C   C93       1.0  0.30430  0.92030  0.19960  1.0000 -0.1440563648
C   C94       1.0  0.07970  0.80040  0.69570  1.0000 -0.1440563648
C   C95       1.0  0.80040  0.69570  0.07970  1.0000 -0.1440563648
C   C96       1.0  0.69570  0.07970  0.80040  1.0000 -0.1440563648
N   N1        1.0  0.99990  0.98000  0.38130  1.0000 -0.1587755182
N   N2        1.0  0.98000  0.38130  0.99990  1.0000 -0.153949052
N   N3        1.0  0.38130  0.99990  0.98000  1.0000 -0.153949052
N   N4        1.0  0.00010  0.02000  0.61870  1.0000 -0.1587755182
N   N5        1.0  0.02000  0.61870  0.00010  1.0000 -0.153949052
N   N6        1.0  0.61870  0.00010  0.02000  1.0000 -0.1587755182
O   O1        1.0  0.11928  0.60393  0.46279  1.0000 -0.5006236756
O   O2        1.0  0.60393  0.46279  0.11928  1.0000 -0.5006236756
O   O3        1.0  0.46279  0.11928  0.60393  1.0000 -0.5006236756
O   O4        1.0  0.88072  0.39607  0.53721  1.0000 -0.5006236756
O   O5        1.0  0.39607  0.53721  0.88072  1.0000 -0.5006236756
O   O6        1.0  0.53721  0.88072  0.39607  1.0000 -0.5006236756
O   O7        1.0  0.98116  0.65312  0.49109  1.0000 -0.5006236756
O   O8        1.0  0.65312  0.49109  0.98116  1.0000 -0.5006236756
O   O9        1.0  0.49109  0.98116  0.65312  1.0000 -0.5006236756
O   O10       1.0  0.01884  0.34688  0.50891  1.0000 -0.5006236756
O   O11       1.0  0.34688  0.50891  0.01884  1.0000 -0.5006236756
O   O12       1.0  0.50891  0.01884  0.34688  1.0000 -0.5006236756
O   O13       1.0  0.35187  0.00958  0.44939  1.0000 -0.5273647208
O   O14       1.0  0.00958  0.44939  0.35187  1.0000 -0.5273647208
O   O15       1.0  0.44939  0.35187  0.00958  1.0000 -0.5273647208
O   O16       1.0  0.64813  0.99042  0.55061  1.0000 -0.5273647208
O   O17       1.0  0.99042  0.55061  0.64813  1.0000 -0.5273647208
O   O18       1.0  0.55061  0.64813  0.99042  1.0000 -0.5273647208
O   O19       1.0  0.38593  0.87286  0.49901  1.0000 -0.478525857
O   O20       1.0  0.87286  0.49901  0.38593  1.0000 -0.478525857
O   O21       1.0  0.49901  0.38593  0.87286  1.0000 -0.478525857
O   O22       1.0  0.61407  0.12714  0.50099  1.0000 -0.478525857
O   O23       1.0  0.12714  0.50099  0.61407  1.0000 -0.478525857
O   O24       1.0  0.50099  0.61407  0.12714  1.0000 -0.478525857
O   O25       1.0  0.85550  0.89420  0.39580  1.0000 -0.4166592855
O   O26       1.0  0.89420  0.39580  0.85550  1.0000 -0.4166592855
O   O27       1.0  0.39580  0.85550  0.89420  1.0000 -0.4166592855
O   O28       1.0  0.14450  0.10580  0.60420  1.0000 -0.4166592855
O   O29       1.0  0.10580  0.60420  0.14450  1.0000 -0.4166592855
O   O30       1.0  0.60420  0.14450  0.10580  1.0000 -0.4166592855
