# DDEC6 charges by PACMAN v1.1 (https://github.com/mtap-research/PACMAN-charge/)
data_2016[Co][nan]3[ASR]25
_chemical_formula_sum              "Co8 H160 C212 N16 O56"
_cell_length_a       24.1188
_cell_length_b       24.1188
_cell_length_c       23.78
_cell_angle_alpha    85.2532
_cell_angle_beta     94.7468
_cell_angle_gamma    154.198

_symmetry_space_group_name_H-M    "P 1"
_symmetry_Int_Tables_number       1

loop_
  _symmetry_equiv_pos_as_xyz
  'x, y, z'

loop_
  _atom_site_type_symbol
  _atom_site_label
  _atom_site_symmetry_multiplicity
  _atom_site_fract_x
  _atom_site_fract_y
  _atom_site_fract_z
  _atom_site_occupancy
  _atom_site_charge
Co  Co1       1.0  0.86755  0.43661  0.57485  1.0000 0.8056989763
Co  Co2       1.0  0.43661  0.86755  0.92515  1.0000 0.8056989763
Co  Co3       1.0  0.13245  0.56339  0.42515  1.0000 0.8056989763
Co  Co4       1.0  0.56339  0.13245  0.07485  1.0000 0.8056989763
Co  Co5       1.0  0.34294  0.32618  0.56975  1.0000 0.8029374186
Co  Co6       1.0  0.32618  0.34294  0.93025  1.0000 0.8029374186
Co  Co7       1.0  0.65706  0.67382  0.43025  1.0000 0.8029374186
Co  Co8       1.0  0.67382  0.65706  0.06975  1.0000 0.8029374186
H   H1        1.0  0.85930  0.62170  0.46750  1.0000 0.1575534692
H   H2        1.0  0.62170  0.85930  0.03250  1.0000 0.1575534692
H   H3        1.0  0.14070  0.37830  0.53250  1.0000 0.1575534692
H   H4        1.0  0.37830  0.14070  0.96750  1.0000 0.1575534692
H   H5        1.0  0.14130  0.77790  0.42150  1.0000 0.1408533557
H   H6        1.0  0.77790  0.14130  0.07850  1.0000 0.1408533557
H   H7        1.0  0.85870  0.22210  0.57850  1.0000 0.1408533557
H   H8        1.0  0.22210  0.85870  0.92150  1.0000 0.1408533557
H   H9        1.0  0.17120  0.98560  0.53070  1.0000 0.1312691187
H   H10       1.0  0.98560  0.17120  0.96930  1.0000 0.1312691187
H   H11       1.0  0.82880  0.01440  0.46930  1.0000 0.1312691187
H   H12       1.0  0.01440  0.82880  0.03070  1.0000 0.1312691187
H   H13       1.0  0.36400  0.70300  0.65320  1.0000 0.1408533557
H   H14       1.0  0.70300  0.36400  0.84680  1.0000 0.1408533557
H   H15       1.0  0.63600  0.29700  0.34680  1.0000 0.1408533557
H   H16       1.0  0.29700  0.63600  0.15320  1.0000 0.1408533557
H   H17       1.0  0.07200  0.39700  0.75260  1.0000 0.1312691187
H   H18       1.0  0.39700  0.07200  0.74740  1.0000 0.1312691187
H   H19       1.0  0.92800  0.60300  0.24740  1.0000 0.1312691187
H   H20       1.0  0.60300  0.92800  0.25260  1.0000 0.1312691187
H   H21       1.0  0.88900  0.67600  0.63160  1.0000 0.1312691187
H   H22       1.0  0.67600  0.88900  0.86840  1.0000 0.1312691187
H   H23       1.0  0.11100  0.32400  0.36840  1.0000 0.1312691187
H   H24       1.0  0.32400  0.11100  0.13160  1.0000 0.1312691187
H   H25       1.0  0.45010  0.24250  0.47800  1.0000 0.1575534692
H   H26       1.0  0.24250  0.45010  0.02200  1.0000 0.1575534692
H   H27       1.0  0.54990  0.75750  0.52200  1.0000 0.1575534692
H   H28       1.0  0.75750  0.54990  0.97800  1.0000 0.1575534692
H   H29       1.0  0.59280  0.24240  0.16820  1.0000 0.1198736294
H   H30       1.0  0.24240  0.59280  0.33180  1.0000 0.1198736294
H   H31       1.0  0.40720  0.75760  0.83180  1.0000 0.1198736294
H   H32       1.0  0.75760  0.40720  0.66820  1.0000 0.1198736294
H   H33       1.0  0.98080  0.79980  0.31000  1.0000 0.1104806281
H   H34       1.0  0.79980  0.98080  0.19000  1.0000 0.1104806281
H   H35       1.0  0.01920  0.20020  0.69000  1.0000 0.1104806281
H   H36       1.0  0.20020  0.01920  0.81000  1.0000 0.1104806281
H   H37       1.0  0.01920  0.78720  0.27140  1.0000 0.1104806281
H   H38       1.0  0.78720  0.01920  0.22860  1.0000 0.1104806281
H   H39       1.0  0.98080  0.21280  0.72860  1.0000 0.1104806281
H   H40       1.0  0.21280  0.98080  0.77140  1.0000 0.1104806281
H   H41       1.0  0.23770  0.65830  0.60480  1.0000 0.1312691187
H   H42       1.0  0.65830  0.23770  0.89520  1.0000 0.1312691187
H   H43       1.0  0.76230  0.34170  0.39520  1.0000 0.1312691187
H   H44       1.0  0.34170  0.76230  0.10480  1.0000 0.1312691187
H   H45       1.0  0.46470  0.32310  0.54160  1.0000 0.1013214775
H   H46       1.0  0.32310  0.46470  0.95840  1.0000 0.1013214775
H   H47       1.0  0.53530  0.67690  0.45840  1.0000 0.1013214775
H   H48       1.0  0.67690  0.53530  0.04160  1.0000 0.1013214775
H   H49       1.0  0.47130  0.66070  0.77480  1.0000 0.1312691187
H   H50       1.0  0.66070  0.47130  0.72520  1.0000 0.1312691187
H   H51       1.0  0.52870  0.33930  0.22520  1.0000 0.1312691187
H   H52       1.0  0.33930  0.52870  0.27480  1.0000 0.1312691187
H   H53       1.0  0.83240  0.67520  0.24060  1.0000 0.1312691187
H   H54       1.0  0.67520  0.83240  0.25940  1.0000 0.1312691187
H   H55       1.0  0.16760  0.32480  0.75940  1.0000 0.1312691187
H   H56       1.0  0.32480  0.16760  0.74060  1.0000 0.1312691187
H   H57       1.0  0.80170  0.49930  0.53240  1.0000 0.1104806281
H   H58       1.0  0.49930  0.80170  0.96760  1.0000 0.1104806281
H   H59       1.0  0.19830  0.50070  0.46760  1.0000 0.1104806281
H   H60       1.0  0.50070  0.19830  0.03240  1.0000 0.1104806281
H   H61       1.0  0.22660  0.94080  0.39100  1.0000 0.1104806281
H   H62       1.0  0.94080  0.22660  0.10900  1.0000 0.1104806281
H   H63       1.0  0.77340  0.05920  0.60900  1.0000 0.1104806281
H   H64       1.0  0.05920  0.77340  0.89100  1.0000 0.1104806281
H   H65       1.0  0.13940  0.83400  0.34720  1.0000 0.1013214775
H   H66       1.0  0.83400  0.13940  0.15280  1.0000 0.1013214775
H   H67       1.0  0.86060  0.16600  0.65280  1.0000 0.1013214775
H   H68       1.0  0.16600  0.86060  0.84720  1.0000 0.1013214775
H   H69       1.0  0.69020  0.58660  0.17420  1.0000 0.1104806281
H   H70       1.0  0.58660  0.69020  0.32580  1.0000 0.1104806281
H   H71       1.0  0.30980  0.41340  0.82580  1.0000 0.1104806281
H   H72       1.0  0.41340  0.30980  0.67420  1.0000 0.1104806281
H   H73       1.0  0.35250  0.99090  0.50910  1.0000 0.1198736294
H   H74       1.0  0.99090  0.35250  0.99090  1.0000 0.1198736294
H   H75       1.0  0.64750  0.00910  0.49090  1.0000 0.1198736294
H   H76       1.0  0.00910  0.64750  0.00910  1.0000 0.1198736294
H   H77       1.0  0.47950  0.18090  0.23410  1.0000 0.1408533557
H   H78       1.0  0.18090  0.47950  0.26590  1.0000 0.1408533557
H   H79       1.0  0.52050  0.81910  0.76590  1.0000 0.1408533557
H   H80       1.0  0.81910  0.52050  0.73410  1.0000 0.1408533557
H   H81       1.0  0.16400  0.85580  0.54040  1.0000 0.1198736294
H   H82       1.0  0.85580  0.16400  0.95960  1.0000 0.1198736294
H   H83       1.0  0.83600  0.14420  0.45960  1.0000 0.1198736294
H   H84       1.0  0.14420  0.83600  0.04040  1.0000 0.1198736294
H   H85       1.0  0.02920  0.91580  0.47860  1.0000 0.1104806281
H   H86       1.0  0.91580  0.02920  0.02140  1.0000 0.1104806281
H   H87       1.0  0.97080  0.08420  0.52140  1.0000 0.1104806281
H   H88       1.0  0.08420  0.97080  0.97860  1.0000 0.1104806281
H   H89       1.0  0.53100  0.63080  0.74050  1.0000 0.1198736294
H   H90       1.0  0.63080  0.53100  0.75950  1.0000 0.1198736294
H   H91       1.0  0.46900  0.36920  0.25950  1.0000 0.1198736294
H   H92       1.0  0.36920  0.46900  0.24050  1.0000 0.1198736294
H   H93       1.0  0.22120  0.46360  0.64570  1.0000 0.1312691187
H   H94       1.0  0.46360  0.22120  0.85430  1.0000 0.1312691187
H   H95       1.0  0.77880  0.53640  0.35430  1.0000 0.1312691187
H   H96       1.0  0.53640  0.77880  0.14570  1.0000 0.1312691187
H   H97       1.0  0.27240  0.42460  0.61560  1.0000 0.1198736294
H   H98       1.0  0.42460  0.27240  0.88440  1.0000 0.1198736294
H   H99       1.0  0.72760  0.57540  0.38440  1.0000 0.1198736294
H   H100      1.0  0.57540  0.72760  0.11560  1.0000 0.1198736294
H   H101      1.0  0.74600  0.60260  0.57710  1.0000 0.1198736294
H   H102      1.0  0.60260  0.74600  0.92290  1.0000 0.1198736294
H   H103      1.0  0.25400  0.39740  0.42290  1.0000 0.1198736294
H   H104      1.0  0.39740  0.25400  0.07710  1.0000 0.1198736294
H   H105      1.0  0.30580  0.89100  0.13140  1.0000 0.1104806281
H   H106      1.0  0.89100  0.30580  0.36860  1.0000 0.1104806281
H   H107      1.0  0.69420  0.10900  0.86860  1.0000 0.1104806281
H   H108      1.0  0.10900  0.69420  0.63140  1.0000 0.1104806281
H   H109      1.0  0.35400  0.08500  0.31130  1.0000 0.1104806281
H   H110      1.0  0.08500  0.35400  0.18870  1.0000 0.1104806281
H   H111      1.0  0.64600  0.91500  0.68870  1.0000 0.1104806281
H   H112      1.0  0.91500  0.64600  0.81130  1.0000 0.1104806281
H   H113      1.0  0.30220  0.08000  0.26150  1.0000 0.1104806281
H   H114      1.0  0.08000  0.30220  0.23850  1.0000 0.1104806281
H   H115      1.0  0.69780  0.92000  0.73850  1.0000 0.1104806281
H   H116      1.0  0.92000  0.69780  0.76150  1.0000 0.1104806281
H   H117      1.0  0.06960  0.64320  0.48520  1.0000 0.1198736294
H   H118      1.0  0.64320  0.06960  0.01480  1.0000 0.1198736294
H   H119      1.0  0.93040  0.35680  0.51480  1.0000 0.1198736294
H   H120      1.0  0.35680  0.93040  0.98520  1.0000 0.1198736294
H   H121      1.0  0.12140  0.96700  0.36980  1.0000 0.1104806281
H   H122      1.0  0.96700  0.12140  0.13020  1.0000 0.1104806281
H   H123      1.0  0.87860  0.03300  0.63020  1.0000 0.1104806281
H   H124      1.0  0.03300  0.87860  0.86980  1.0000 0.1104806281
H   H125      1.0  0.21900  0.07240  0.32230  1.0000 0.1104806281
H   H126      1.0  0.07240  0.21900  0.17770  1.0000 0.1104806281
H   H127      1.0  0.78100  0.92760  0.67770  1.0000 0.1104806281
H   H128      1.0  0.92760  0.78100  0.82230  1.0000 0.1104806281
H   H129      1.0  0.10550  0.01030  0.16100  1.0000 0.1575534692
H   H130      1.0  0.01030  0.10550  0.33900  1.0000 0.1575534692
H   H131      1.0  0.89450  0.98970  0.83900  1.0000 0.1575534692
H   H132      1.0  0.98970  0.89450  0.66100  1.0000 0.1575534692
H   H133      1.0  0.35130  0.10170  0.65710  1.0000 0.1312691187
H   H134      1.0  0.10170  0.35130  0.84290  1.0000 0.1312691187
H   H135      1.0  0.64870  0.89830  0.34290  1.0000 0.1312691187
H   H136      1.0  0.89830  0.64870  0.15710  1.0000 0.1312691187
H   H137      1.0  0.20270  0.12250  0.38690  1.0000 0.1457887743
H   H138      1.0  0.12250  0.20270  0.11310  1.0000 0.1457887743
H   H139      1.0  0.79730  0.87750  0.61310  1.0000 0.1457887743
H   H140      1.0  0.87750  0.79730  0.88690  1.0000 0.1457887743
H   H141      1.0  0.18390  0.81870  0.19710  1.0000 0.1575534692
H   H142      1.0  0.81870  0.18390  0.30290  1.0000 0.1575534692
H   H143      1.0  0.81610  0.18130  0.80290  1.0000 0.1575534692
H   H144      1.0  0.18130  0.81610  0.69710  1.0000 0.1575534692
H   H145      1.0  0.54020  0.23600  0.62920  1.0000 0.1198736294
H   H146      1.0  0.23600  0.54020  0.87080  1.0000 0.1198736294
H   H147      1.0  0.45980  0.76400  0.37080  1.0000 0.1198736294
H   H148      1.0  0.76400  0.45980  0.12920  1.0000 0.1198736294
H   H149      1.0  0.94870  0.35470  0.70620  1.0000 0.1198736294
H   H150      1.0  0.35470  0.94870  0.79380  1.0000 0.1198736294
H   H151      1.0  0.05130  0.64530  0.29380  1.0000 0.1198736294
H   H152      1.0  0.64530  0.05130  0.20620  1.0000 0.1198736294
H   H153      1.0  0.23160  0.21080  0.45250  1.0000 0.1104806281
H   H154      1.0  0.21080  0.23160  0.04750  1.0000 0.1104806281
H   H155      1.0  0.76840  0.78920  0.54750  1.0000 0.1104806281
H   H156      1.0  0.78920  0.76840  0.95250  1.0000 0.1104806281
H   H157      1.0  0.95500  0.91040  0.09660  1.0000 0.1104806281
H   H158      1.0  0.91040  0.95500  0.40340  1.0000 0.1104806281
H   H159      1.0  0.04500  0.08960  0.90340  1.0000 0.1104806281
H   H160      1.0  0.08960  0.04500  0.59660  1.0000 0.1104806281
C   C1        1.0  0.23138  0.55502  0.70750  1.0000 0.2413004206
C   C2        1.0  0.55502  0.23138  0.79250  1.0000 0.2413004206
C   C3        1.0  0.76862  0.44498  0.29250  1.0000 0.2413004206
C   C4        1.0  0.44498  0.76862  0.20750  1.0000 0.2413004206
C   C5        1.0  0.90487  0.62953  0.47070  1.0000 -0.2760633419
C   C6        1.0  0.62953  0.90487  0.02930  1.0000 -0.2760633419
C   C7        1.0  0.09513  0.37047  0.52930  1.0000 -0.2760633419
C   C8        1.0  0.37047  0.09513  0.97070  1.0000 -0.2760633419
C   C9        1.0  0.07093  0.72087  0.44320  1.0000 -0.2760633419
C   C10       1.0  0.72087  0.07093  0.05680  1.0000 -0.2854247983
C   C11       1.0  0.92907  0.27913  0.55680  1.0000 -0.2854247983
C   C12       1.0  0.27913  0.92907  0.94320  1.0000 -0.2854247983
C   C13       1.0  0.08609  0.90991  0.54070  1.0000 -0.2283769991
C   C14       1.0  0.90991  0.08609  0.95930  1.0000 -0.2283769991
C   C15       1.0  0.91391  0.09009  0.45930  1.0000 -0.2283769991
C   C16       1.0  0.09009  0.91391  0.04070  1.0000 -0.2283769991
C   C17       1.0  0.28020  0.63240  0.66380  1.0000 -0.2143012132
C   C18       1.0  0.63240  0.28020  0.83620  1.0000 -0.2143012132
C   C19       1.0  0.71980  0.36760  0.33620  1.0000 -0.2143012132
C   C20       1.0  0.36760  0.71980  0.16380  1.0000 -0.2143012132
C   C21       1.0  0.17007  0.94493  0.32370  1.0000 0.0878473161
C   C22       1.0  0.94493  0.17007  0.17630  1.0000 0.0878473161
C   C23       1.0  0.82993  0.05507  0.67630  1.0000 0.0878473161
C   C24       1.0  0.05507  0.82993  0.82370  1.0000 0.0878473161
C   C25       1.0  0.43925  0.49635  0.65270  1.0000 0.5619297255
C   C26       1.0  0.49635  0.43925  0.84730  1.0000 0.5619297255
C   C27       1.0  0.56075  0.50365  0.34730  1.0000 0.5619297255
C   C28       1.0  0.50365  0.56075  0.15270  1.0000 0.5619297255
C   C29       1.0  0.04348  0.83852  0.58670  1.0000 0.2413004206
C   C30       1.0  0.83852  0.04348  0.91330  1.0000 0.2413004206
C   C31       1.0  0.95652  0.16148  0.41330  1.0000 0.2413004206
C   C32       1.0  0.16148  0.95652  0.08670  1.0000 0.2413004206
C   C33       1.0  0.10620  0.45040  0.72310  1.0000 -0.2157598446
C   C34       1.0  0.45040  0.10620  0.77690  1.0000 -0.2157598446
C   C35       1.0  0.89380  0.54960  0.27690  1.0000 -0.2157598446
C   C36       1.0  0.54960  0.89380  0.22310  1.0000 -0.2157598446
C   C37       1.0  0.91709  0.72411  0.60090  1.0000 -0.2283769991
C   C38       1.0  0.72411  0.91709  0.89910  1.0000 -0.2283769991
C   C39       1.0  0.08291  0.27589  0.39910  1.0000 -0.2283769991
C   C40       1.0  0.27589  0.08291  0.10090  1.0000 -0.2283769991
C   C41       1.0  0.40230  0.23210  0.47270  1.0000 -0.2701872937
C   C42       1.0  0.23210  0.40230  0.02730  1.0000 -0.2701872937
C   C43       1.0  0.59770  0.76790  0.52730  1.0000 -0.2701872937
C   C44       1.0  0.76790  0.59770  0.97270  1.0000 -0.2701872937
C   C45       1.0  0.50870  0.15570  0.17370  1.0000 0.0878473161
C   C46       1.0  0.15570  0.50870  0.32630  1.0000 0.0878473161
C   C47       1.0  0.49130  0.84430  0.82630  1.0000 0.0878473161
C   C48       1.0  0.84430  0.49130  0.67370  1.0000 0.0878473161
C   C49       1.0  0.04819  0.84701  0.28730  1.0000 -0.0901725027
C   C50       1.0  0.84701  0.04819  0.21270  1.0000 -0.0901725027
C   C51       1.0  0.95181  0.15299  0.71270  1.0000 -0.0901725027
C   C52       1.0  0.15299  0.95181  0.78730  1.0000 -0.0901725027
C   C53       1.0  0.01072  0.71748  0.43670  1.0000 0.2881304216
C   C54       1.0  0.71748  0.01072  0.06330  1.0000 0.2881304216
C   C55       1.0  0.98928  0.28252  0.56330  1.0000 0.2881304216
C   C56       1.0  0.28252  0.98928  0.93670  1.0000 0.2881304216
C   C57       1.0  0.98649  0.85371  0.20690  1.0000 0.283465058
C   C58       1.0  0.85371  0.98649  0.29310  1.0000 0.283465058
C   C59       1.0  0.01351  0.14629  0.79310  1.0000 0.283465058
C   C60       1.0  0.14629  0.01351  0.70690  1.0000 0.283465058
C   C61       1.0  0.20420  0.60600  0.63480  1.0000 -0.0668152455
C   C62       1.0  0.60600  0.20420  0.86520  1.0000 -0.0668152455
C   C63       1.0  0.79580  0.39400  0.36520  1.0000 -0.0668152455
C   C64       1.0  0.39400  0.79580  0.13480  1.0000 -0.0668152455
C   C65       1.0  0.40617  0.52303  0.67430  1.0000 -0.0280652574
C   C66       1.0  0.52303  0.40617  0.82570  1.0000 -0.0280652574
C   C67       1.0  0.59383  0.47697  0.32570  1.0000 -0.0280652574
C   C68       1.0  0.47697  0.59383  0.17430  1.0000 -0.0280652574
C   C69       1.0  0.41100  0.28140  0.51020  1.0000 0.1013214775
C   C70       1.0  0.28140  0.41100  0.98980  1.0000 0.1013214775
C   C71       1.0  0.58900  0.71860  0.48980  1.0000 0.1013214775
C   C72       1.0  0.71860  0.58900  0.01020  1.0000 0.1013214775
C   C73       1.0  0.43200  0.61400  0.74230  1.0000 -0.2283769991
C   C74       1.0  0.61400  0.43200  0.75770  1.0000 -0.2283769991
C   C75       1.0  0.56800  0.38600  0.25770  1.0000 -0.2283769991
C   C76       1.0  0.38600  0.56800  0.24230  1.0000 -0.2283769991
C   C77       1.0  0.86001  0.72519  0.21170  1.0000 -0.2760633419
C   C78       1.0  0.72519  0.86001  0.28830  1.0000 -0.2760633419
C   C79       1.0  0.13999  0.27481  0.78830  1.0000 -0.2760633419
C   C80       1.0  0.27481  0.13999  0.71170  1.0000 -0.2760633419
C   C81       1.0  0.78712  0.71808  0.49130  1.0000 0.531266034
C   C82       1.0  0.71808  0.78712  0.00870  1.0000 0.531266034
C   C83       1.0  0.21288  0.28192  0.50870  1.0000 0.531266034
C   C84       1.0  0.28192  0.21288  0.99130  1.0000 0.531266034
C   C85       1.0  0.99945  0.47475  0.62020  1.0000 0.531266034
C   C86       1.0  0.47475  0.99945  0.87980  1.0000 0.531266034
C   C87       1.0  0.00055  0.52525  0.37980  1.0000 0.531266034
C   C88       1.0  0.52525  0.00055  0.12020  1.0000 0.531266034
C   C89       1.0  0.86993  0.55467  0.50930  1.0000 0.1013214775
C   C90       1.0  0.55467  0.86993  0.99070  1.0000 0.1013214775
C   C91       1.0  0.13007  0.44533  0.49070  1.0000 0.1013214775
C   C92       1.0  0.44533  0.13007  0.00930  1.0000 0.1013214775
C   C93       1.0  0.15161  0.87839  0.36660  1.0000 -0.0901725027
C   C94       1.0  0.87839  0.15161  0.13340  1.0000 -0.0901725027
C   C95       1.0  0.84839  0.12161  0.63340  1.0000 -0.0901725027
C   C96       1.0  0.12161  0.84839  0.86660  1.0000 -0.0901725027
C   C97       1.0  0.24020  0.96580  0.60140  1.0000 0.2230356936
C   C98       1.0  0.96580  0.24020  0.89860  1.0000 0.2230356936
C   C99       1.0  0.75980  0.03420  0.39860  1.0000 0.2230356936
C   C100      1.0  0.03420  0.75980  0.10140  1.0000 0.2230356936
C   C101      1.0  0.77544  0.67356  0.17130  1.0000 0.1013214775
C   C102      1.0  0.67356  0.77544  0.32870  1.0000 0.1013214775
C   C103      1.0  0.22456  0.32644  0.82870  1.0000 0.1013214775
C   C104      1.0  0.32644  0.22456  0.67130  1.0000 0.1013214775
C   C105      1.0  0.35340  0.01360  0.53950  1.0000 -0.0901725027
C   C106      1.0  0.01360  0.35340  0.96050  1.0000 -0.0901725027
C   C107      1.0  0.64660  0.98640  0.46050  1.0000 -0.0901725027
C   C108      1.0  0.98640  0.64660  0.03950  1.0000 -0.0901725027
C   C109      1.0  0.44165  0.12015  0.21320  1.0000 -0.2760633419
C   C110      1.0  0.12015  0.44165  0.28680  1.0000 -0.2760633419
C   C111      1.0  0.55835  0.87985  0.78680  1.0000 -0.2760633419
C   C112      1.0  0.87985  0.55835  0.71320  1.0000 -0.2760633419
C   C113      1.0  0.24050  0.93330  0.55800  1.0000 -0.2157598446
C   C114      1.0  0.93330  0.24050  0.94200  1.0000 -0.2143012132
C   C115      1.0  0.75950  0.06670  0.44200  1.0000 -0.2157598446
C   C116      1.0  0.06670  0.75950  0.05800  1.0000 -0.2157598446
C   C117      1.0  0.00056  0.86764  0.50960  1.0000 -0.0901725027
C   C118      1.0  0.86764  0.00056  0.99040  1.0000 -0.0901725027
C   C119      1.0  0.99944  0.13236  0.49040  1.0000 -0.0901725027
C   C120      1.0  0.13236  0.99944  0.00960  1.0000 -0.0901725027
C   C121      1.0  0.31721  0.16559  0.42620  1.0000 0.3016989533
C   C122      1.0  0.16559  0.31721  0.07380  1.0000 0.3016989533
C   C123      1.0  0.68279  0.83441  0.57380  1.0000 0.3016989533
C   C124      1.0  0.83441  0.68279  0.92620  1.0000 0.3016989533
C   C125      1.0  0.46733  0.59527  0.72210  1.0000 -0.0901725027
C   C126      1.0  0.59527  0.46733  0.77790  1.0000 -0.0901725027
C   C127      1.0  0.53267  0.40473  0.27790  1.0000 -0.0901725027
C   C128      1.0  0.40473  0.53267  0.22210  1.0000 -0.0901725027
C   C129      1.0  0.28102  0.49478  0.66550  1.0000 -0.240255266
C   C130      1.0  0.49478  0.28102  0.83450  1.0000 -0.240255266
C   C131      1.0  0.71898  0.50522  0.33450  1.0000 -0.240255266
C   C132      1.0  0.50522  0.71898  0.16550  1.0000 -0.240255266
C   C133      1.0  0.31393  0.47387  0.64730  1.0000 -0.0823686417
C   C134      1.0  0.47387  0.31393  0.85270  1.0000 -0.0823686417
C   C135      1.0  0.68607  0.52613  0.35270  1.0000 -0.0823686417
C   C136      1.0  0.52613  0.68607  0.14730  1.0000 -0.0823686417
C   C137      1.0  0.46930  0.12950  0.56670  1.0000 -0.0244144346
C   C138      1.0  0.12950  0.46930  0.93330  1.0000 -0.0280652574
C   C139      1.0  0.53070  0.87050  0.43330  1.0000 -0.0244144346
C   C140      1.0  0.87050  0.53070  0.06670  1.0000 -0.0244144346
C   C141      1.0  0.83212  0.68168  0.56860  1.0000 -0.0901725027
C   C142      1.0  0.68168  0.83212  0.93140  1.0000 -0.0901725027
C   C143      1.0  0.16788  0.31832  0.43140  1.0000 -0.0901725027
C   C144      1.0  0.31832  0.16788  0.06860  1.0000 -0.0901725027
C   C145      1.0  0.87221  0.75419  0.52390  1.0000 -0.0477991408
C   C146      1.0  0.75419  0.87221  0.97610  1.0000 -0.0477991408
C   C147      1.0  0.12779  0.24581  0.47610  1.0000 -0.0477991408
C   C148      1.0  0.24581  0.12779  0.02390  1.0000 -0.0477991408
C   C149      1.0  0.34130  0.95050  0.15200  1.0000 0.1104806281
C   C150      1.0  0.95050  0.34130  0.34800  1.0000 0.1104806281
C   C151      1.0  0.65870  0.04950  0.84800  1.0000 0.1104806281
C   C152      1.0  0.04950  0.65870  0.65200  1.0000 0.1104806281
C   C153      1.0  0.27989  0.02871  0.28780  1.0000 -0.0901725027
C   C154      1.0  0.02871  0.27989  0.21220  1.0000 -0.0901725027
C   C155      1.0  0.72011  0.97129  0.71220  1.0000 -0.0901725027
C   C156      1.0  0.97129  0.72011  0.78780  1.0000 -0.0901725027
C   C157      1.0  0.02772  0.63968  0.48220  1.0000 0.1104806281
C   C158      1.0  0.63968  0.02772  0.01780  1.0000 0.1104806281
C   C159      1.0  0.97228  0.36032  0.51780  1.0000 0.1104806281
C   C160      1.0  0.36032  0.97228  0.98220  1.0000 0.1104806281
C   C161      1.0  0.33998  0.56422  0.71480  1.0000 0.2413004206
C   C162      1.0  0.56422  0.33998  0.78520  1.0000 0.2413004206
C   C163      1.0  0.66002  0.43578  0.28520  1.0000 0.2413004206
C   C164      1.0  0.43578  0.66002  0.21480  1.0000 0.2413004206
C   C165      1.0  0.19700  0.02340  0.35110  1.0000 -0.0901725027
C   C166      1.0  0.02340  0.19700  0.14890  1.0000 -0.0901725027
C   C167      1.0  0.80300  0.97660  0.64890  1.0000 -0.0901725027
C   C168      1.0  0.97660  0.80300  0.85110  1.0000 -0.0901725027
C   C169      1.0  0.02100  0.92300  0.16430  1.0000 -0.2510559952
C   C170      1.0  0.92300  0.02100  0.33570  1.0000 -0.2510559952
C   C171      1.0  0.97900  0.07700  0.83570  1.0000 -0.2510559952
C   C172      1.0  0.07700  0.97900  0.66430  1.0000 -0.2510559952
C   C173      1.0  0.35180  0.07900  0.62770  1.0000 -0.2157598446
C   C174      1.0  0.07900  0.35180  0.87230  1.0000 -0.2157598446
C   C175      1.0  0.64820  0.92100  0.37230  1.0000 -0.2157598446
C   C176      1.0  0.92100  0.64820  0.12770  1.0000 -0.2157598446
C   C177      1.0  0.25513  0.16107  0.41830  1.0000 -0.2760633419
C   C178      1.0  0.16107  0.25513  0.08170  1.0000 -0.2760633419
C   C179      1.0  0.74487  0.83893  0.58170  1.0000 -0.2760633419
C   C180      1.0  0.83893  0.74487  0.91830  1.0000 -0.2760633419
C   C181      1.0  0.26660  0.90580  0.19120  1.0000 -0.2552443441
C   C182      1.0  0.90580  0.26660  0.30880  1.0000 -0.2552443441
C   C183      1.0  0.73340  0.09420  0.80880  1.0000 -0.2552443441
C   C184      1.0  0.09420  0.73340  0.69120  1.0000 -0.2552443441
C   C185      1.0  0.08130  0.50350  0.65090  1.0000 -0.0280652574
C   C186      1.0  0.50350  0.08130  0.84910  1.0000 -0.0280652574
C   C187      1.0  0.91870  0.49650  0.34910  1.0000 -0.0280652574
C   C188      1.0  0.49650  0.91870  0.15090  1.0000 -0.0280652574
C   C189      1.0  0.46489  0.15951  0.61070  1.0000 -0.0901725027
C   C190      1.0  0.15951  0.46489  0.88930  1.0000 -0.0901725027
C   C191      1.0  0.53511  0.84049  0.38930  1.0000 -0.0901725027
C   C192      1.0  0.84049  0.53511  0.11070  1.0000 -0.0901725027
C   C193      1.0  0.31646  0.99234  0.22150  1.0000 0.2881304216
C   C194      1.0  0.99234  0.31646  0.27850  1.0000 0.2881304216
C   C195      1.0  0.68354  0.00766  0.77850  1.0000 0.2881304216
C   C196      1.0  0.00766  0.68354  0.72150  1.0000 0.2881304216
C   C197      1.0  0.03224  0.42496  0.69530  1.0000 -0.0901725027
C   C198      1.0  0.42496  0.03224  0.80470  1.0000 -0.0901725027
C   C199      1.0  0.96776  0.57504  0.30470  1.0000 -0.0901725027
C   C200      1.0  0.57504  0.96776  0.19530  1.0000 -0.0901725027
C   C201      1.0  0.59060  0.21240  0.54900  1.0000 0.5619297255
C   C202      1.0  0.21240  0.59060  0.95100  1.0000 0.5619297255
C   C203      1.0  0.40940  0.78760  0.45100  1.0000 0.5619297255
C   C204      1.0  0.78760  0.40940  0.04900  1.0000 0.5619297255
C   C205      1.0  0.27390  0.21490  0.45810  1.0000 0.1104806281
C   C206      1.0  0.21490  0.27390  0.04190  1.0000 0.1104806281
C   C207      1.0  0.72610  0.78510  0.54190  1.0000 0.1104806281
C   C208      1.0  0.78510  0.72610  0.95810  1.0000 0.1104806281
C   C209      1.0  0.92930  0.86210  0.12600  1.0000 0.1013214775
C   C210      1.0  0.86210  0.92930  0.37400  1.0000 0.1013214775
C   C211      1.0  0.07070  0.13790  0.87400  1.0000 0.1013214775
C   C212      1.0  0.13790  0.07070  0.62600  1.0000 0.1013214775
N   N1        1.0  0.46084  0.07296  0.14170  1.0000 -0.2510559952
N   N2        1.0  0.07296  0.46084  0.35830  1.0000 -0.2510559952
N   N3        1.0  0.53916  0.92704  0.85830  1.0000 -0.2510559952
N   N4        1.0  0.92704  0.53916  0.64170  1.0000 -0.2510559952
N   N5        1.0  0.34851  0.27369  0.50490  1.0000 -0.2701872937
N   N6        1.0  0.27369  0.34851  0.99510  1.0000 -0.2701872937
N   N7        1.0  0.65149  0.72631  0.49510  1.0000 -0.2701872937
N   N8        1.0  0.72631  0.65149  0.00490  1.0000 -0.2701872937
N   N9        1.0  0.80553  0.73747  0.12890  1.0000 -0.2701872937
N   N10       1.0  0.73747  0.80553  0.37110  1.0000 -0.2701872937
N   N11       1.0  0.19447  0.26253  0.87110  1.0000 -0.2701872937
N   N12       1.0  0.26253  0.19447  0.62890  1.0000 -0.2701872937
N   N13       1.0  0.92702  0.55618  0.51570  1.0000 -0.2701872937
N   N14       1.0  0.55618  0.92702  0.98430  1.0000 -0.2701872937
N   N15       1.0  0.07298  0.44382  0.48430  1.0000 -0.2701872937
N   N16       1.0  0.44382  0.07298  0.01570  1.0000 -0.2701872937
O   O1        1.0  0.04600  0.54980  0.58110  1.0000 -0.5664437633
O   O2        1.0  0.54980  0.04600  0.91890  1.0000 -0.5664437633
O   O3        1.0  0.95400  0.45020  0.41890  1.0000 -0.5664437633
O   O4        1.0  0.45020  0.95400  0.08110  1.0000 -0.5664437633
O   O5        1.0  0.83326  0.79694  0.45690  1.0000 -0.5372326371
O   O6        1.0  0.79694  0.83326  0.04310  1.0000 -0.5372326371
O   O7        1.0  0.16674  0.20306  0.54310  1.0000 -0.5372326371
O   O8        1.0  0.20306  0.16674  0.95690  1.0000 -0.5372326371
O   O9        1.0  0.34998  0.39522  0.62310  1.0000 -0.5664437633
O   O10       1.0  0.39522  0.34998  0.87690  1.0000 -0.5664437633
O   O11       1.0  0.65002  0.60478  0.37690  1.0000 -0.5664437633
O   O12       1.0  0.60478  0.65002  0.12310  1.0000 -0.5664437633
O   O13       1.0  0.08090  0.91830  0.24280  1.0000 -0.1700549103
O   O14       1.0  0.91830  0.08090  0.25720  1.0000 -0.1700549103
O   O15       1.0  0.91910  0.08170  0.75720  1.0000 -0.1700549103
O   O16       1.0  0.08170  0.91910  0.74280  1.0000 -0.1700549103
O   O17       1.0  0.54399  0.56821  0.66400  1.0000 -0.5580789542
O   O18       1.0  0.56821  0.54399  0.83600  1.0000 -0.5580789542
O   O19       1.0  0.45601  0.43179  0.33600  1.0000 -0.5580789542
O   O20       1.0  0.43179  0.45601  0.16400  1.0000 -0.5580789542
O   O21       1.0  0.30189  0.10911  0.39190  1.0000 -0.1700549103
O   O22       1.0  0.10911  0.30189  0.10810  1.0000 -0.1700549103
O   O23       1.0  0.69811  0.89089  0.60810  1.0000 -0.1700549103
O   O24       1.0  0.89089  0.69811  0.89190  1.0000 -0.1700549103
O   O25       1.0  0.12539  0.88021  0.62270  1.0000 -0.2283769991
O   O26       1.0  0.88021  0.12539  0.87730  1.0000 -0.2283769991
O   O27       1.0  0.87461  0.11979  0.37730  1.0000 -0.2283769991
O   O28       1.0  0.11979  0.87461  0.12270  1.0000 -0.2283769991
O   O29       1.0  0.88692  0.38028  0.63550  1.0000 -0.5325416472
O   O30       1.0  0.38028  0.88692  0.86450  1.0000 -0.5325416472
O   O31       1.0  0.11308  0.61972  0.36450  1.0000 -0.5325416472
O   O32       1.0  0.61972  0.11308  0.13550  1.0000 -0.5325416472
O   O33       1.0  0.23736  0.94384  0.25760  1.0000 -0.1700549103
O   O34       1.0  0.94384  0.23736  0.24240  1.0000 -0.1700549103
O   O35       1.0  0.76264  0.05616  0.74240  1.0000 -0.1700549103
O   O36       1.0  0.05616  0.76264  0.75760  1.0000 -0.1700549103
O   O37       1.0  0.04061  0.78819  0.40020  1.0000 -0.1700549103
O   O38       1.0  0.78819  0.04061  0.09980  1.0000 -0.1700549103
O   O39       1.0  0.95939  0.21181  0.59980  1.0000 -0.1700549103
O   O40       1.0  0.21181  0.95939  0.90020  1.0000 -0.1700549103
O   O41       1.0  0.68586  0.30254  0.58180  1.0000 -0.5809007134
O   O42       1.0  0.30254  0.68586  0.91820  1.0000 -0.5809007134
O   O43       1.0  0.31414  0.69746  0.41820  1.0000 -0.5809007134
O   O44       1.0  0.69746  0.31414  0.08180  1.0000 -0.5809007134
O   O45       1.0  0.30484  0.58136  0.73940  1.0000 -0.2510559952
O   O46       1.0  0.58136  0.30484  0.76060  1.0000 -0.2510559952
O   O47       1.0  0.69516  0.41864  0.26060  1.0000 -0.2510559952
O   O48       1.0  0.41864  0.69516  0.23940  1.0000 -0.2510559952
O   O49       1.0  0.66843  0.61137  0.49980  1.0000 -0.5325416472
O   O50       1.0  0.61137  0.66843  0.00020  1.0000 -0.5325416472
O   O51       1.0  0.33157  0.38863  0.50020  1.0000 -0.5325416472
O   O52       1.0  0.38863  0.33157  0.99980  1.0000 -0.5325416472
O   O53       1.0  0.59100  0.18980  0.50380  1.0000 -0.5580789542
O   O54       1.0  0.18980  0.59100  0.99620  1.0000 -0.5543899831
O   O55       1.0  0.40900  0.81020  0.49620  1.0000 -0.5580789542
O   O56       1.0  0.81020  0.40900  0.00380  1.0000 -0.5543899831
