# DDEC6 charges by PACMAN v1.1 (https://github.com/mtap-research/PACMAN-charge/)
data_2016[Cu][nbo]3[ASR]55
_chemical_formula_sum              "Cu6 H90 C132 O30"
_cell_length_a       21.5582
_cell_length_b       21.5582
_cell_length_c       21.5582
_cell_angle_alpha    109.383
_cell_angle_beta     109.383
_cell_angle_gamma    109.383

_symmetry_space_group_name_H-M    "P 1"
_symmetry_Int_Tables_number       1

loop_
  _symmetry_equiv_pos_as_xyz
  'x, y, z'

loop_
  _atom_site_type_symbol
  _atom_site_label
  _atom_site_symmetry_multiplicity
  _atom_site_fract_x
  _atom_site_fract_y
  _atom_site_fract_z
  _atom_site_occupancy
  _atom_site_charge
Cu  Cu1       1.0  0.95061  0.42752  0.95061  1.0000 0.8646180749
Cu  Cu2       1.0  0.42752  0.95061  0.95061  1.0000 0.8646180749
Cu  Cu3       1.0  0.95061  0.95061  0.42752  1.0000 0.8646180749
Cu  Cu4       1.0  0.57248  0.04939  0.04939  1.0000 0.8646180749
Cu  Cu5       1.0  0.04939  0.57248  0.04939  1.0000 0.8646180749
Cu  Cu6       1.0  0.04939  0.04939  0.57248  1.0000 0.8646180749
H   H1        1.0  0.07230  0.65250  0.89410  1.0000 0.1287265511
H   H2        1.0  0.65250  0.89410  0.07230  1.0000 0.1287265511
H   H3        1.0  0.89410  0.07230  0.65250  1.0000 0.1287265511
H   H4        1.0  0.34750  0.92770  0.10590  1.0000 0.1287265511
H   H5        1.0  0.10590  0.34750  0.92770  1.0000 0.1287265511
H   H6        1.0  0.92770  0.10590  0.34750  1.0000 0.1287265511
H   H7        1.0  0.92770  0.34750  0.10590  1.0000 0.1287265511
H   H8        1.0  0.34750  0.10590  0.92770  1.0000 0.1287265511
H   H9        1.0  0.10590  0.92770  0.34750  1.0000 0.1287265511
H   H10       1.0  0.65250  0.07230  0.89410  1.0000 0.1287265511
H   H11       1.0  0.89410  0.65250  0.07230  1.0000 0.1287265511
H   H12       1.0  0.07230  0.89410  0.65250  1.0000 0.1287265511
H   H13       1.0  0.06900  0.67360  0.79500  1.0000 0.1287265511
H   H14       1.0  0.67360  0.79500  0.06900  1.0000 0.1287265511
H   H15       1.0  0.79500  0.06900  0.67360  1.0000 0.1287265511
H   H16       1.0  0.32640  0.93100  0.20500  1.0000 0.1287265511
H   H17       1.0  0.20500  0.32640  0.93100  1.0000 0.1287265511
H   H18       1.0  0.93100  0.20500  0.32640  1.0000 0.1287265511
H   H19       1.0  0.93100  0.32640  0.20500  1.0000 0.1287265511
H   H20       1.0  0.32640  0.20500  0.93100  1.0000 0.1287265511
H   H21       1.0  0.20500  0.93100  0.32640  1.0000 0.1287265511
H   H22       1.0  0.67360  0.06900  0.79500  1.0000 0.1287265511
H   H23       1.0  0.79500  0.67360  0.06900  1.0000 0.1287265511
H   H24       1.0  0.06900  0.79500  0.67360  1.0000 0.1287265511
H   H25       1.0  0.91030  0.45480  0.64570  1.0000 0.1165823509
H   H26       1.0  0.45480  0.64570  0.91030  1.0000 0.1165823509
H   H27       1.0  0.64570  0.91030  0.45480  1.0000 0.1165823509
H   H28       1.0  0.54520  0.08970  0.35430  1.0000 0.1165823509
H   H29       1.0  0.35430  0.54520  0.08970  1.0000 0.1165823509
H   H30       1.0  0.08970  0.35430  0.54520  1.0000 0.1165823509
H   H31       1.0  0.08970  0.54520  0.35430  1.0000 0.1165823509
H   H32       1.0  0.54520  0.35430  0.08970  1.0000 0.1165823509
H   H33       1.0  0.35430  0.08970  0.54520  1.0000 0.1165823509
H   H34       1.0  0.45480  0.91030  0.64570  1.0000 0.1165823509
H   H35       1.0  0.64570  0.45480  0.91030  1.0000 0.1165823509
H   H36       1.0  0.91030  0.64570  0.45480  1.0000 0.1165823509
H   H37       1.0  0.91480  0.43380  0.74530  1.0000 0.1287265511
H   H38       1.0  0.43380  0.74530  0.91480  1.0000 0.1287265511
H   H39       1.0  0.74530  0.91480  0.43380  1.0000 0.1287265511
H   H40       1.0  0.56620  0.08520  0.25470  1.0000 0.1287265511
H   H41       1.0  0.25470  0.56620  0.08520  1.0000 0.1287265511
H   H42       1.0  0.08520  0.25470  0.56620  1.0000 0.1287265511
H   H43       1.0  0.08520  0.56620  0.25470  1.0000 0.1287265511
H   H44       1.0  0.56620  0.25470  0.08520  1.0000 0.1287265511
H   H45       1.0  0.25470  0.08520  0.56620  1.0000 0.1287265511
H   H46       1.0  0.43380  0.91480  0.74530  1.0000 0.1287265511
H   H47       1.0  0.74530  0.43380  0.91480  1.0000 0.1287265511
H   H48       1.0  0.91480  0.74530  0.43380  1.0000 0.1287265511
H   H49       1.0  0.99640  0.48190  0.59580  1.0000 0.1110772352
H   H50       1.0  0.48190  0.59580  0.99640  1.0000 0.1110772352
H   H51       1.0  0.59580  0.99640  0.48190  1.0000 0.1110772352
H   H52       1.0  0.51810  0.00360  0.40420  1.0000 0.1110772352
H   H53       1.0  0.40420  0.51810  0.00360  1.0000 0.1110772352
H   H54       1.0  0.00360  0.40420  0.51810  1.0000 0.1110772352
H   H55       1.0  0.00360  0.51810  0.40420  1.0000 0.1110772352
H   H56       1.0  0.51810  0.40420  0.00360  1.0000 0.1110772352
H   H57       1.0  0.40420  0.00360  0.51810  1.0000 0.1110772352
H   H58       1.0  0.48190  0.99640  0.59580  1.0000 0.1110772352
H   H59       1.0  0.59580  0.48190  0.99640  1.0000 0.1110772352
H   H60       1.0  0.99640  0.59580  0.48190  1.0000 0.1110772352
H   H61       1.0  0.88410  0.67310  0.62760  1.0000 0.0697263934
H   H62       1.0  0.67310  0.62760  0.88410  1.0000 0.0697263934
H   H63       1.0  0.62760  0.88410  0.67310  1.0000 0.0697263934
H   H64       1.0  0.32690  0.11590  0.37240  1.0000 0.0697263934
H   H65       1.0  0.37240  0.32690  0.11590  1.0000 0.0697263934
H   H66       1.0  0.11590  0.37240  0.32690  1.0000 0.0697263934
H   H67       1.0  0.11590  0.32690  0.37240  1.0000 0.0697263934
H   H68       1.0  0.32690  0.37240  0.11590  1.0000 0.0697263934
H   H69       1.0  0.37240  0.11590  0.32690  1.0000 0.0697263934
H   H70       1.0  0.67310  0.88410  0.62760  1.0000 0.0697263934
H   H71       1.0  0.62760  0.67310  0.88410  1.0000 0.0697263934
H   H72       1.0  0.88410  0.62760  0.67310  1.0000 0.0697263934
H   H73       1.0  0.88210  0.74150  0.74150  1.0000 0.1110772352
H   H74       1.0  0.74150  0.74150  0.88210  1.0000 0.1110772352
H   H75       1.0  0.74150  0.88210  0.74150  1.0000 0.1110772352
H   H76       1.0  0.25850  0.11790  0.25850  1.0000 0.1110772352
H   H77       1.0  0.25850  0.25850  0.11790  1.0000 0.1110772352
H   H78       1.0  0.11790  0.25850  0.25850  1.0000 0.1110772352
H   H79       1.0  0.95840  0.79110  0.74610  1.0000 0.1110772352
H   H80       1.0  0.79110  0.74610  0.95840  1.0000 0.1110772352
H   H81       1.0  0.74610  0.95840  0.79110  1.0000 0.1110772352
H   H82       1.0  0.20890  0.04160  0.25390  1.0000 0.1110772352
H   H83       1.0  0.25390  0.20890  0.04160  1.0000 0.1110772352
H   H84       1.0  0.04160  0.25390  0.20890  1.0000 0.1110772352
H   H85       1.0  0.04160  0.20890  0.25390  1.0000 0.1110772352
H   H86       1.0  0.20890  0.25390  0.04160  1.0000 0.1110772352
H   H87       1.0  0.25390  0.04160  0.20890  1.0000 0.1110772352
H   H88       1.0  0.79110  0.95840  0.74610  1.0000 0.1110772352
H   H89       1.0  0.74610  0.79110  0.95840  1.0000 0.1110772352
H   H90       1.0  0.95840  0.74610  0.79110  1.0000 0.1110772352
C   C1        1.0  0.99568  0.52626  0.89368  1.0000 0.5802163055
C   C2        1.0  0.52626  0.89368  0.99568  1.0000 0.5802163055
C   C3        1.0  0.89368  0.99568  0.52626  1.0000 0.5802163055
C   C4        1.0  0.47374  0.00432  0.10632  1.0000 0.5802163055
C   C5        1.0  0.10632  0.47374  0.00432  1.0000 0.5802163055
C   C6        1.0  0.00432  0.10632  0.47374  1.0000 0.5802163055
C   C7        1.0  0.00432  0.47374  0.10632  1.0000 0.5802163055
C   C8        1.0  0.47374  0.10632  0.00432  1.0000 0.5802163055
C   C9        1.0  0.10632  0.00432  0.47374  1.0000 0.5802163055
C   C10       1.0  0.52626  0.99568  0.89368  1.0000 0.5802163055
C   C11       1.0  0.89368  0.52626  0.99568  1.0000 0.5802163055
C   C12       1.0  0.99568  0.89368  0.52626  1.0000 0.5802163055
C   C13       1.0  0.99282  0.54012  0.82913  1.0000 -0.0304077064
C   C14       1.0  0.54012  0.82913  0.99282  1.0000 -0.0304077064
C   C15       1.0  0.82913  0.99282  0.54012  1.0000 -0.0304077064
C   C16       1.0  0.45988  0.00718  0.17087  1.0000 -0.0304077064
C   C17       1.0  0.17087  0.45988  0.00718  1.0000 -0.0304077064
C   C18       1.0  0.00718  0.17087  0.45988  1.0000 -0.0304077064
C   C19       1.0  0.00718  0.45988  0.17087  1.0000 -0.0304077064
C   C20       1.0  0.45988  0.17087  0.00718  1.0000 -0.0304077064
C   C21       1.0  0.17087  0.00718  0.45988  1.0000 -0.0304077064
C   C22       1.0  0.54012  0.99282  0.82913  1.0000 -0.0304077064
C   C23       1.0  0.82913  0.54012  0.99282  1.0000 -0.0304077064
C   C24       1.0  0.99282  0.82913  0.54012  1.0000 -0.0304077064
C   C25       1.0  0.03969  0.61234  0.84387  1.0000 -0.0873287378
C   C26       1.0  0.61234  0.84387  0.03969  1.0000 -0.0873287378
C   C27       1.0  0.84387  0.03969  0.61234  1.0000 -0.0873287378
C   C28       1.0  0.38766  0.96031  0.15613  1.0000 -0.0873287378
C   C29       1.0  0.15613  0.38766  0.96031  1.0000 -0.0873287378
C   C30       1.0  0.96031  0.15613  0.38766  1.0000 -0.0873287378
C   C31       1.0  0.96031  0.38766  0.15613  1.0000 -0.0873287378
C   C32       1.0  0.38766  0.15613  0.96031  1.0000 -0.0873287378
C   C33       1.0  0.15613  0.96031  0.38766  1.0000 -0.0873287378
C   C34       1.0  0.61234  0.03969  0.84387  1.0000 -0.0873287378
C   C35       1.0  0.84387  0.61234  0.03969  1.0000 -0.0873287378
C   C36       1.0  0.03969  0.84387  0.61234  1.0000 -0.0873287378
C   C37       1.0  0.03812  0.62471  0.78459  1.0000 -0.1469067787
C   C38       1.0  0.62471  0.78459  0.03812  1.0000 -0.1469067787
C   C39       1.0  0.78459  0.03812  0.62471  1.0000 -0.1469067787
C   C40       1.0  0.37529  0.96188  0.21541  1.0000 -0.1469067787
C   C41       1.0  0.21541  0.37529  0.96188  1.0000 -0.1469067787
C   C42       1.0  0.96188  0.21541  0.37529  1.0000 -0.1469067787
C   C43       1.0  0.96188  0.37529  0.21541  1.0000 -0.1469067787
C   C44       1.0  0.37529  0.21541  0.96188  1.0000 -0.1469067787
C   C45       1.0  0.21541  0.96188  0.37529  1.0000 -0.1469067787
C   C46       1.0  0.62471  0.03812  0.78459  1.0000 -0.1469067787
C   C47       1.0  0.78459  0.62471  0.03812  1.0000 -0.1469067787
C   C48       1.0  0.03812  0.78459  0.62471  1.0000 -0.1469067787
C   C49       1.0  0.99178  0.56613  0.71008  1.0000 0.0900302003
C   C50       1.0  0.56613  0.71008  0.99178  1.0000 0.0900302003
C   C51       1.0  0.71008  0.99178  0.56613  1.0000 0.0900302003
C   C52       1.0  0.43387  0.00822  0.28992  1.0000 0.0900302003
C   C53       1.0  0.28992  0.43387  0.00822  1.0000 0.0900302003
C   C54       1.0  0.00822  0.28992  0.43387  1.0000 0.0900302003
C   C55       1.0  0.00822  0.43387  0.28992  1.0000 0.0900302003
C   C56       1.0  0.43387  0.28992  0.00822  1.0000 0.0900302003
C   C57       1.0  0.28992  0.00822  0.43387  1.0000 0.0900302003
C   C58       1.0  0.56613  0.99178  0.71008  1.0000 0.0900302003
C   C59       1.0  0.71008  0.56613  0.99178  1.0000 0.0900302003
C   C60       1.0  0.99178  0.71008  0.56613  1.0000 0.0900302003
C   C61       1.0  0.94393  0.49467  0.69589  1.0000 -0.1601248823
C   C62       1.0  0.49467  0.69589  0.94393  1.0000 -0.1601248823
C   C63       1.0  0.69589  0.94393  0.49467  1.0000 -0.1601248823
C   C64       1.0  0.50533  0.05607  0.30411  1.0000 -0.1601248823
C   C65       1.0  0.30411  0.50533  0.05607  1.0000 -0.1601248823
C   C66       1.0  0.05607  0.30411  0.50533  1.0000 -0.1601248823
C   C67       1.0  0.05607  0.50533  0.30411  1.0000 -0.1601248823
C   C68       1.0  0.50533  0.30411  0.05607  1.0000 -0.1601248823
C   C69       1.0  0.30411  0.05607  0.50533  1.0000 -0.1601248823
C   C70       1.0  0.49467  0.94393  0.69589  1.0000 -0.1601248823
C   C71       1.0  0.69589  0.49467  0.94393  1.0000 -0.1601248823
C   C72       1.0  0.94393  0.69589  0.49467  1.0000 -0.1601248823
C   C73       1.0  0.94602  0.48244  0.75550  1.0000 -0.0873287378
C   C74       1.0  0.48244  0.75550  0.94602  1.0000 -0.0873287378
C   C75       1.0  0.75550  0.94602  0.48244  1.0000 -0.0873287378
C   C76       1.0  0.51756  0.05398  0.24450  1.0000 -0.0873287378
C   C77       1.0  0.24450  0.51756  0.05398  1.0000 -0.0873287378
C   C78       1.0  0.05398  0.24450  0.51756  1.0000 -0.0873287378
C   C79       1.0  0.05398  0.51756  0.24450  1.0000 -0.0873287378
C   C80       1.0  0.51756  0.24450  0.05398  1.0000 -0.0873287378
C   C81       1.0  0.24450  0.05398  0.51756  1.0000 -0.0873287378
C   C82       1.0  0.48244  0.94602  0.75550  1.0000 -0.0873287378
C   C83       1.0  0.75550  0.48244  0.94602  1.0000 -0.0873287378
C   C84       1.0  0.94602  0.75550  0.48244  1.0000 -0.0873287378
C   C85       1.0  0.99316  0.57659  0.64571  1.0000 -0.0167210612
C   C86       1.0  0.57659  0.64571  0.99316  1.0000 -0.0167210612
C   C87       1.0  0.64571  0.99316  0.57659  1.0000 -0.0167210612
C   C88       1.0  0.42341  0.00684  0.35429  1.0000 -0.0167210612
C   C89       1.0  0.35429  0.42341  0.00684  1.0000 -0.0167210612
C   C90       1.0  0.00684  0.35429  0.42341  1.0000 -0.0167210612
C   C91       1.0  0.00684  0.42341  0.35429  1.0000 -0.0167210612
C   C92       1.0  0.42341  0.35429  0.00684  1.0000 -0.0167210612
C   C93       1.0  0.35429  0.00684  0.42341  1.0000 -0.0167210612
C   C94       1.0  0.57659  0.99316  0.64571  1.0000 -0.0167210612
C   C95       1.0  0.64571  0.57659  0.99316  1.0000 -0.0167210612
C   C96       1.0  0.99316  0.64571  0.57659  1.0000 -0.0167210612
C   C97       1.0  0.99579  0.52352  0.59094  1.0000 -0.1913672405
C   C98       1.0  0.52352  0.59094  0.99579  1.0000 -0.1913672405
C   C99       1.0  0.59094  0.99579  0.52352  1.0000 -0.1913672405
C   C100      1.0  0.47648  0.00421  0.40906  1.0000 -0.1913672405
C   C101      1.0  0.40906  0.47648  0.00421  1.0000 -0.1913672405
C   C102      1.0  0.00421  0.40906  0.47648  1.0000 -0.1913672405
C   C103      1.0  0.00421  0.47648  0.40906  1.0000 -0.1913672405
C   C104      1.0  0.47648  0.40906  0.00421  1.0000 -0.1913672405
C   C105      1.0  0.40906  0.00421  0.47648  1.0000 -0.1913672405
C   C106      1.0  0.52352  0.99579  0.59094  1.0000 -0.1913672405
C   C107      1.0  0.59094  0.52352  0.99579  1.0000 -0.1913672405
C   C108      1.0  0.99579  0.59094  0.52352  1.0000 -0.1913672405
C   C109      1.0  0.99780  0.52846  0.52846  1.0000 0.0697263934
C   C110      1.0  0.52846  0.52846  0.99780  1.0000 0.0697263934
C   C111      1.0  0.52846  0.99780  0.52846  1.0000 0.0697263934
C   C112      1.0  0.47154  0.00220  0.47154  1.0000 0.0697263934
C   C113      1.0  0.47154  0.47154  0.00220  1.0000 0.0697263934
C   C114      1.0  0.00220  0.47154  0.47154  1.0000 0.0697263934
C   C115      1.0  0.99154  0.63794  0.63794  1.0000 0.1671512867
C   C116      1.0  0.63794  0.63794  0.99154  1.0000 0.1671512867
C   C117      1.0  0.63794  0.99154  0.63794  1.0000 0.1671512867
C   C118      1.0  0.36206  0.00846  0.36206  1.0000 0.1671512867
C   C119      1.0  0.36206  0.36206  0.00846  1.0000 0.1671512867
C   C120      1.0  0.00846  0.36206  0.36206  1.0000 0.1671512867
C   C121      1.0  0.91210  0.67520  0.67520  1.0000 0.0163279773
C   C122      1.0  0.67520  0.67520  0.91210  1.0000 0.0142411114
C   C123      1.0  0.67520  0.91210  0.67520  1.0000 0.0142411114
C   C124      1.0  0.32480  0.08790  0.32480  1.0000 0.0142411114
C   C125      1.0  0.32480  0.32480  0.08790  1.0000 0.0142411114
C   C126      1.0  0.08790  0.32480  0.32480  1.0000 0.0142411114
C   C127      1.0  0.92930  0.74505  0.74505  1.0000 -0.3726006627
C   C128      1.0  0.74505  0.74505  0.92930  1.0000 -0.3726006627
C   C129      1.0  0.74505  0.92930  0.74505  1.0000 -0.3726006627
C   C130      1.0  0.25495  0.07070  0.25495  1.0000 -0.3726006627
C   C131      1.0  0.25495  0.25495  0.07070  1.0000 -0.3726006627
C   C132      1.0  0.07070  0.25495  0.25495  1.0000 -0.3726006627
O   O1        1.0  0.95401  0.45853  0.87570  1.0000 -0.5251759569
O   O2        1.0  0.45853  0.87570  0.95401  1.0000 -0.5178705391
O   O3        1.0  0.87570  0.95401  0.45853  1.0000 -0.5251759569
O   O4        1.0  0.54147  0.04599  0.12430  1.0000 -0.5251759569
O   O5        1.0  0.12430  0.54147  0.04599  1.0000 -0.5251759569
O   O6        1.0  0.04599  0.12430  0.54147  1.0000 -0.5178705391
O   O7        1.0  0.04599  0.54147  0.12430  1.0000 -0.5251759569
O   O8        1.0  0.54147  0.12430  0.04599  1.0000 -0.5251759569
O   O9        1.0  0.12430  0.04599  0.54147  1.0000 -0.5251759569
O   O10       1.0  0.45853  0.95401  0.87570  1.0000 -0.5251759569
O   O11       1.0  0.87570  0.45853  0.95401  1.0000 -0.5251759569
O   O12       1.0  0.95401  0.87570  0.45853  1.0000 -0.5251759569
O   O13       1.0  0.03807  0.58208  0.95945  1.0000 -0.5178705391
O   O14       1.0  0.58208  0.95945  0.03807  1.0000 -0.5178705391
O   O15       1.0  0.95945  0.03807  0.58208  1.0000 -0.5138660096
O   O16       1.0  0.41792  0.96193  0.04055  1.0000 -0.5138660096
O   O17       1.0  0.04055  0.41792  0.96193  1.0000 -0.5138660096
O   O18       1.0  0.96193  0.04055  0.41792  1.0000 -0.5138660096
O   O19       1.0  0.96193  0.41792  0.04055  1.0000 -0.5138660096
O   O20       1.0  0.41792  0.04055  0.96193  1.0000 -0.5138660096
O   O21       1.0  0.04055  0.96193  0.41792  1.0000 -0.5138660096
O   O22       1.0  0.58208  0.03807  0.95945  1.0000 -0.5178705391
O   O23       1.0  0.95945  0.58208  0.03807  1.0000 -0.5178705391
O   O24       1.0  0.03807  0.95945  0.58208  1.0000 -0.5178705391
O   O25       1.0  0.98984  0.69297  0.69297  1.0000 -0.2640785555
O   O26       1.0  0.69297  0.69297  0.98984  1.0000 -0.2640785555
O   O27       1.0  0.69297  0.98984  0.69297  1.0000 -0.2640785555
O   O28       1.0  0.30703  0.01016  0.30703  1.0000 -0.2658890565
O   O29       1.0  0.30703  0.30703  0.01016  1.0000 -0.2658890565
O   O30       1.0  0.01016  0.30703  0.30703  1.0000 -0.2658890565
