# DDEC6 charges by PACMAN v1.1 (https://github.com/mtap-research/PACMAN-charge/)
data_2016[Cd][rtl]3[ASR]2
_chemical_formula_sum              "Cd6 H56 C96 N12 O24 F16"
_cell_length_a       10.6945
_cell_length_b       18.576
_cell_length_c       14.9208
_cell_angle_alpha    90
_cell_angle_beta     107.758
_cell_angle_gamma    90

_symmetry_space_group_name_H-M    "P 1"
_symmetry_Int_Tables_number       1

loop_
  _symmetry_equiv_pos_as_xyz
  'x, y, z'

loop_
  _atom_site_type_symbol
  _atom_site_label
  _atom_site_symmetry_multiplicity
  _atom_site_fract_x
  _atom_site_fract_y
  _atom_site_fract_z
  _atom_site_occupancy
  _atom_site_charge
Cd  Cd1       1.0  0.32945  0.98867  0.32988  1.0000 0.9404157651
Cd  Cd2       1.0  0.67055  0.48867  0.17012  1.0000 0.9404157651
Cd  Cd3       1.0  0.67055  0.01133  0.67012  1.0000 0.9404157651
Cd  Cd4       1.0  0.32945  0.51133  0.82988  1.0000 0.9404157651
Cd  Cd5       1.0  0.00000  0.00000  0.00000  1.0000 0.9404157651
Cd  Cd6       1.0  0.00000  0.50000  0.50000  1.0000 0.9404157651
H   H1        1.0  0.29210  0.17430  0.04100  1.0000 0.1189470989
H   H2        1.0  0.70790  0.67430  0.45900  1.0000 0.1189470989
H   H3        1.0  0.70790  0.82570  0.95900  1.0000 0.1189470989
H   H4        1.0  0.29210  0.32570  0.54100  1.0000 0.1189470989
H   H5        1.0  0.88490  0.86470  0.13060  1.0000 0.1414153163
H   H6        1.0  0.11510  0.36470  0.36940  1.0000 0.1414153163
H   H7        1.0  0.11510  0.13530  0.86940  1.0000 0.1414153163
H   H8        1.0  0.88490  0.63530  0.63060  1.0000 0.1414153163
H   H9        1.0  0.45150  0.11350  0.20350  1.0000 0.1414153163
H   H10       1.0  0.54850  0.61350  0.29650  1.0000 0.1414153163
H   H11       1.0  0.54850  0.88650  0.79650  1.0000 0.1414153163
H   H12       1.0  0.45150  0.38650  0.70350  1.0000 0.1414153163
H   H13       1.0  0.09060  0.79160  0.25400  1.0000 0.1102652705
H   H14       1.0  0.90940  0.29160  0.24600  1.0000 0.1102652705
H   H15       1.0  0.90940  0.20840  0.74600  1.0000 0.1102652705
H   H16       1.0  0.09060  0.70840  0.75400  1.0000 0.1102652705
H   H17       1.0  0.38560  0.67630  0.09190  1.0000 0.1189470989
H   H18       1.0  0.61440  0.17630  0.40810  1.0000 0.1189470989
H   H19       1.0  0.61440  0.32370  0.90810  1.0000 0.1189470989
H   H20       1.0  0.38560  0.82370  0.59190  1.0000 0.1189470989
H   H21       1.0  0.91510  0.83960  0.91600  1.0000 0.1302182441
H   H22       1.0  0.08490  0.33960  0.58400  1.0000 0.1302182441
H   H23       1.0  0.08490  0.16040  0.08400  1.0000 0.1302182441
H   H24       1.0  0.91510  0.66040  0.41600  1.0000 0.1302182441
H   H25       1.0  0.17960  0.63660  0.93980  1.0000 0.1414153163
H   H26       1.0  0.82040  0.13660  0.56020  1.0000 0.1414153163
H   H27       1.0  0.82040  0.36340  0.06020  1.0000 0.1414153163
H   H28       1.0  0.17960  0.86340  0.43980  1.0000 0.1414153163
H   H29       1.0  0.34940  0.79170  0.05750  1.0000 0.1302182441
H   H30       1.0  0.65060  0.29170  0.44250  1.0000 0.1302182441
H   H31       1.0  0.65060  0.20830  0.94250  1.0000 0.1302182441
H   H32       1.0  0.34940  0.70830  0.55750  1.0000 0.1302182441
H   H33       1.0  0.74440  0.77030  0.17380  1.0000 0.1414153163
H   H34       1.0  0.25560  0.27030  0.32620  1.0000 0.1414153163
H   H35       1.0  0.25560  0.22970  0.82620  1.0000 0.1414153163
H   H36       1.0  0.74440  0.72970  0.67380  1.0000 0.1414153163
H   H37       1.0  0.26500  0.90440  0.05980  1.0000 0.1189470989
H   H38       1.0  0.73500  0.40440  0.44020  1.0000 0.1189470989
H   H39       1.0  0.73500  0.09560  0.94020  1.0000 0.1189470989
H   H40       1.0  0.26500  0.59560  0.55980  1.0000 0.1189470989
H   H41       1.0  0.63340  0.66370  0.15570  1.0000 0.1102652705
H   H42       1.0  0.36660  0.16370  0.34430  1.0000 0.1102652705
H   H43       1.0  0.36660  0.33630  0.84430  1.0000 0.1102652705
H   H44       1.0  0.63340  0.83630  0.65570  1.0000 0.1102652705
H   H45       1.0  0.40180  0.41230  0.05510  1.0000 0.1481995318
H   H46       1.0  0.59820  0.91230  0.44490  1.0000 0.1481995318
H   H47       1.0  0.59820  0.58770  0.94490  1.0000 0.1481995318
H   H48       1.0  0.40180  0.08770  0.55510  1.0000 0.1481995318
H   H49       1.0  0.69160  0.32630  0.25110  1.0000 0.1302182441
H   H50       1.0  0.30840  0.82630  0.24890  1.0000 0.1302182441
H   H51       1.0  0.30840  0.67370  0.74890  1.0000 0.1302182441
H   H52       1.0  0.69160  0.17370  0.75110  1.0000 0.1302182441
H   H53       1.0  0.95740  0.55510  0.19370  1.0000 0.1481995318
H   H54       1.0  0.04260  0.05510  0.30630  1.0000 0.1481995318
H   H55       1.0  0.04260  0.44490  0.80630  1.0000 0.1481995318
H   H56       1.0  0.95740  0.94490  0.69370  1.0000 0.1481995318
C   C1        1.0  0.29540  0.05050  0.11890  1.0000 0.6291424983
C   C2        1.0  0.70460  0.55050  0.38110  1.0000 0.6291424983
C   C3        1.0  0.70460  0.94950  0.88110  1.0000 0.6291424983
C   C4        1.0  0.29540  0.44950  0.61890  1.0000 0.6291424983
C   C5        1.0  0.92590  0.72890  0.19470  1.0000 0.041039819
C   C6        1.0  0.07410  0.22890  0.30530  1.0000 0.041039819
C   C7        1.0  0.07410  0.27110  0.80530  1.0000 0.041039819
C   C8        1.0  0.92590  0.77110  0.69470  1.0000 0.041039819
C   C9        1.0  0.38830  0.56870  0.05170  1.0000 0.6291424983
C   C10       1.0  0.61170  0.06870  0.44830  1.0000 0.6291424983
C   C11       1.0  0.61170  0.43130  0.94830  1.0000 0.6291424983
C   C12       1.0  0.38830  0.93130  0.55170  1.0000 0.6291424983
C   C13       1.0  0.43070  0.24440  0.12020  1.0000 -0.0994950639
C   C14       1.0  0.56930  0.74440  0.37980  1.0000 -0.0994950639
C   C15       1.0  0.56930  0.75560  0.87980  1.0000 -0.0994950639
C   C16       1.0  0.43070  0.25560  0.62020  1.0000 -0.0994950639
C   C17       1.0  0.05060  0.92510  0.20580  1.0000 0.6217728012
C   C18       1.0  0.94940  0.42510  0.29420  1.0000 0.6217728012
C   C19       1.0  0.94940  0.07490  0.79420  1.0000 0.6217728012
C   C20       1.0  0.05060  0.57490  0.70580  1.0000 0.6217728012
C   C21       1.0  0.36000  0.17580  0.09750  1.0000 -0.0758286662
C   C22       1.0  0.64000  0.67580  0.40250  1.0000 -0.0758286662
C   C23       1.0  0.64000  0.82420  0.90250  1.0000 -0.0758286662
C   C24       1.0  0.36000  0.32420  0.59750  1.0000 -0.0758286662
C   C25       1.0  0.04930  0.76020  0.94630  1.0000 0.1831970621
C   C26       1.0  0.95070  0.26020  0.55370  1.0000 0.1831970621
C   C27       1.0  0.95070  0.23980  0.05370  1.0000 0.1831970621
C   C28       1.0  0.04930  0.73980  0.44630  1.0000 0.1831970621
C   C29       1.0  0.96640  0.86010  0.17590  1.0000 -0.2368614565
C   C30       1.0  0.03360  0.36010  0.32410  1.0000 -0.2368614565
C   C31       1.0  0.03360  0.13990  0.82410  1.0000 -0.2368614565
C   C32       1.0  0.96640  0.63990  0.67590  1.0000 -0.2368614565
C   C33       1.0  0.38140  0.11540  0.14840  1.0000 -0.2368614565
C   C34       1.0  0.61860  0.61540  0.35160  1.0000 -0.2368614565
C   C35       1.0  0.61860  0.88460  0.85160  1.0000 -0.2368614565
C   C36       1.0  0.38140  0.38460  0.64840  1.0000 -0.2368614565
C   C37       1.0  0.00560  0.79520  0.21310  1.0000 -0.0994950639
C   C38       1.0  0.99440  0.29520  0.28690  1.0000 -0.0994950639
C   C39       1.0  0.99440  0.20480  0.78690  1.0000 -0.0994950639
C   C40       1.0  0.00560  0.70480  0.71310  1.0000 -0.0994950639
C   C41       1.0  0.33690  0.64370  0.04750  1.0000 -0.2348491944
C   C42       1.0  0.66310  0.14370  0.45250  1.0000 -0.2348491944
C   C43       1.0  0.66310  0.35630  0.95250  1.0000 -0.2348491944
C   C44       1.0  0.33690  0.85630  0.54750  1.0000 -0.2348491944
C   C45       1.0  0.00330  0.82990  0.94620  1.0000 -0.0474833328
C   C46       1.0  0.99670  0.32990  0.55380  1.0000 -0.0474833328
C   C47       1.0  0.99670  0.17010  0.05380  1.0000 -0.0474833328
C   C48       1.0  0.00330  0.67010  0.44620  1.0000 -0.0474833328
C   C49       1.0  0.22800  0.66790  0.98610  1.0000 -0.0895301622
C   C50       1.0  0.77200  0.16790  0.51390  1.0000 -0.0895301622
C   C51       1.0  0.77200  0.33210  0.01390  1.0000 -0.0895301622
C   C52       1.0  0.22800  0.83210  0.48610  1.0000 -0.0895301622
C   C53       1.0  0.37560  0.30650  0.07070  1.0000 0.2470598422
C   C54       1.0  0.62440  0.80650  0.42930  1.0000 0.2470598422
C   C55       1.0  0.62440  0.69350  0.92930  1.0000 0.2470598422
C   C56       1.0  0.37560  0.19350  0.57070  1.0000 0.2470598422
C   C57       1.0  0.26010  0.79940  0.02930  1.0000 -0.1821826048
C   C58       1.0  0.73990  0.29940  0.47070  1.0000 -0.1821826048
C   C59       1.0  0.73990  0.20060  0.97070  1.0000 -0.1821826048
C   C60       1.0  0.26010  0.70060  0.52930  1.0000 -0.1821826048
C   C61       1.0  0.17950  0.74210  0.98740  1.0000 0.041039819
C   C62       1.0  0.82050  0.24210  0.51260  1.0000 0.041039819
C   C63       1.0  0.82050  0.25790  0.01260  1.0000 0.041039819
C   C64       1.0  0.17950  0.75790  0.48740  1.0000 0.041039819
C   C65       1.0  0.79040  0.72730  0.17810  1.0000 -0.1893835313
C   C66       1.0  0.20960  0.22730  0.32190  1.0000 -0.1893835313
C   C67       1.0  0.20960  0.27270  0.82190  1.0000 -0.1893835313
C   C68       1.0  0.79040  0.77270  0.67810  1.0000 -0.1893835313
C   C69       1.0  0.55220  0.25430  0.18620  1.0000 0.2264470026
C   C70       1.0  0.44780  0.75430  0.31380  1.0000 0.2264470026
C   C71       1.0  0.44780  0.74570  0.81380  1.0000 0.2264470026
C   C72       1.0  0.55220  0.24570  0.68620  1.0000 0.2264470026
C   C73       1.0  0.20880  0.86770  0.02960  1.0000 0.0720363088
C   C74       1.0  0.79120  0.36770  0.47040  1.0000 0.0720363088
C   C75       1.0  0.79120  0.13230  0.97040  1.0000 0.0720363088
C   C76       1.0  0.20880  0.63230  0.52960  1.0000 0.0720363088
C   C77       1.0  0.72400  0.66270  0.16790  1.0000 0.0512416322
C   C78       1.0  0.27600  0.16270  0.33210  1.0000 0.0512416322
C   C79       1.0  0.27600  0.33730  0.83210  1.0000 0.0512416322
C   C80       1.0  0.72400  0.83730  0.66790  1.0000 0.0512416322
C   C81       1.0  0.44100  0.37210  0.08940  1.0000 -0.0895301622
C   C82       1.0  0.55900  0.87210  0.41060  1.0000 -0.0895301622
C   C83       1.0  0.55900  0.62790  0.91060  1.0000 -0.0895301622
C   C84       1.0  0.44100  0.12790  0.58940  1.0000 -0.0895301622
C   C85       1.0  0.61190  0.32160  0.20380  1.0000 -0.0895301622
C   C86       1.0  0.38810  0.82160  0.29620  1.0000 -0.0895301622
C   C87       1.0  0.38810  0.67840  0.79620  1.0000 -0.0895301622
C   C88       1.0  0.61190  0.17840  0.70380  1.0000 -0.0895301622
C   C89       1.0  0.98280  0.66150  0.19910  1.0000 0.1831970621
C   C90       1.0  0.01720  0.16150  0.30090  1.0000 0.1831970621
C   C91       1.0  0.01720  0.33850  0.80090  1.0000 0.1831970621
C   C92       1.0  0.98280  0.83850  0.69910  1.0000 0.1831970621
C   C93       1.0  0.91340  0.59870  0.18960  1.0000 -0.0361047111
C   C94       1.0  0.08660  0.09870  0.31040  1.0000 -0.0361047111
C   C95       1.0  0.08660  0.40130  0.81040  1.0000 -0.0361047111
C   C96       1.0  0.91340  0.90130  0.68960  1.0000 -0.0361047111
N   N1        1.0  0.08240  0.88350  0.98850  1.0000 -0.2039209552
N   N2        1.0  0.91760  0.38350  0.51150  1.0000 -0.2039209552
N   N3        1.0  0.91760  0.11650  0.01150  1.0000 -0.2039209552
N   N4        1.0  0.08240  0.61650  0.48850  1.0000 -0.2039209552
N   N5        1.0  0.55700  0.37990  0.15410  1.0000 -0.1613128059
N   N6        1.0  0.44300  0.87990  0.34590  1.0000 -0.1613128059
N   N7        1.0  0.44300  0.62010  0.84590  1.0000 -0.1613128059
N   N8        1.0  0.55700  0.12010  0.65410  1.0000 -0.1613128059
N   N9        1.0  0.78340  0.59850  0.17460  1.0000 -0.210055346
N   N10       1.0  0.21660  0.09850  0.32540  1.0000 -0.210055346
N   N11       1.0  0.21660  0.40150  0.82540  1.0000 -0.210055346
N   N12       1.0  0.78340  0.90150  0.67460  1.0000 -0.210055346
O   O1        1.0  0.32130  0.99755  0.17470  1.0000 -0.5711059965
O   O2        1.0  0.67870  0.49755  0.32530  1.0000 -0.5711059965
O   O3        1.0  0.67870  0.00245  0.82530  1.0000 -0.5711059965
O   O4        1.0  0.32130  0.50245  0.67470  1.0000 -0.5711059965
O   O5        1.0  0.33530  0.52533  0.98640  1.0000 -0.5711059965
O   O6        1.0  0.66470  0.02533  0.51360  1.0000 -0.5711059965
O   O7        1.0  0.66470  0.47467  0.01360  1.0000 -0.5711059965
O   O8        1.0  0.33530  0.97467  0.48640  1.0000 -0.5711059965
O   O9        1.0  0.01940  0.98074  0.15500  1.0000 -0.5766880758
O   O10       1.0  0.98060  0.48074  0.34500  1.0000 -0.5766880758
O   O11       1.0  0.98060  0.01926  0.84500  1.0000 -0.5766880758
O   O12       1.0  0.01940  0.51926  0.65500  1.0000 -0.5766880758
O   O13       1.0  0.14450  0.92116  0.28010  1.0000 -0.5606516622
O   O14       1.0  0.85550  0.42116  0.21990  1.0000 -0.5606516622
O   O15       1.0  0.85550  0.07884  0.71990  1.0000 -0.5606516622
O   O16       1.0  0.14450  0.57884  0.78010  1.0000 -0.5606516622
O   O17       1.0  0.20450  0.05319  0.04240  1.0000 -0.5606516622
O   O18       1.0  0.79550  0.55319  0.45760  1.0000 -0.5606516622
O   O19       1.0  0.79550  0.94681  0.95760  1.0000 -0.5606516622
O   O20       1.0  0.20450  0.44681  0.54240  1.0000 -0.5606516622
O   O21       1.0  0.48250  0.55515  0.12400  1.0000 -0.5711059965
O   O22       1.0  0.51750  0.05515  0.37600  1.0000 -0.5711059965
O   O23       1.0  0.51750  0.44485  0.87600  1.0000 -0.5711059965
O   O24       1.0  0.48250  0.94485  0.62400  1.0000 -0.5711059965
F   F1        1.0  0.96120  0.70853  0.90540  1.0000 -0.122614263
F   F2        1.0  0.03880  0.20853  0.59460  1.0000 -0.122614263
F   F3        1.0  0.03880  0.29147  0.09460  1.0000 -0.122614263
F   F4        1.0  0.96120  0.79147  0.40540  1.0000 -0.122614263
F   F5        1.0  0.61500  0.20030  0.24000  1.0000 -0.1135321505
F   F6        1.0  0.38500  0.70030  0.26000  1.0000 -0.1135321505
F   F7        1.0  0.38500  0.79970  0.76000  1.0000 -0.1135321505
F   F8        1.0  0.61500  0.29970  0.74000  1.0000 -0.1135321505
F   F9        1.0  0.11440  0.65770  0.21520  1.0000 -0.122614263
F   F10       1.0  0.88560  0.15770  0.28480  1.0000 -0.122614263
F   F11       1.0  0.88560  0.34230  0.78480  1.0000 -0.122614263
F   F12       1.0  0.11440  0.84230  0.71520  1.0000 -0.122614263
F   F13       1.0  0.25690  0.30570  0.01970  1.0000 -0.1135321505
F   F14       1.0  0.74310  0.80570  0.48030  1.0000 -0.1135321505
F   F15       1.0  0.74310  0.69430  0.98030  1.0000 -0.1135321505
F   F16       1.0  0.25690  0.19430  0.51970  1.0000 -0.1135321505
