# DDEC6 charges by PACMAN v1.1 (https://github.com/mtap-research/PACMAN-charge/)
data_2016[Ni][acs]3[ASR]3
_chemical_formula_sum              "Ni2 H6 C6 O12"
_cell_length_a       7.2891
_cell_length_b       7.2891
_cell_length_c       8.04697
_cell_angle_alpha    90
_cell_angle_beta     90
_cell_angle_gamma    120

_symmetry_space_group_name_H-M    "P 1"
_symmetry_Int_Tables_number       1

loop_
  _symmetry_equiv_pos_as_xyz
  'x, y, z'

loop_
  _atom_site_type_symbol
  _atom_site_label
  _atom_site_symmetry_multiplicity
  _atom_site_fract_x
  _atom_site_fract_y
  _atom_site_fract_z
  _atom_site_occupancy
  _atom_site_charge
Ni  Ni1       1.0  0.66667  0.33333  0.25000  1.0000 0.8950581955
Ni  Ni2       1.0  0.33333  0.66667  0.75000  1.0000 0.8945985244
H   H1        1.0  0.43100  0.00000  0.00000  1.0000 0.1229325627
H   H2        1.0  0.00000  0.43100  0.00000  1.0000 0.1229325627
H   H3        1.0  0.56900  0.56900  0.00000  1.0000 0.1229325627
H   H4        1.0  0.56900  0.00000  0.50000  1.0000 0.1229325627
H   H5        1.0  0.00000  0.56900  0.50000  1.0000 0.1229325627
H   H6        1.0  0.43100  0.43100  0.50000  1.0000 0.1229325627
C   C1        1.0  0.55860  0.00000  0.00000  1.0000 0.4915682482
C   C2        1.0  0.00000  0.55860  0.00000  1.0000 0.4915682482
C   C3        1.0  0.44140  0.44140  0.00000  1.0000 0.4915682482
C   C4        1.0  0.44140  0.00000  0.50000  1.0000 0.4915682482
C   C5        1.0  0.00000  0.44140  0.50000  1.0000 0.4915682482
C   C6        1.0  0.55860  0.55860  0.50000  1.0000 0.4915682482
O   O1        1.0  0.69030  0.11070  0.10610  1.0000 -0.4563884654
O   O2        1.0  0.88930  0.57960  0.10610  1.0000 -0.4563884654
O   O3        1.0  0.42040  0.30970  0.10610  1.0000 -0.4563884654
O   O4        1.0  0.30970  0.88930  0.60610  1.0000 -0.4563884654
O   O5        1.0  0.11070  0.42040  0.60610  1.0000 -0.4563884654
O   O6        1.0  0.57960  0.69030  0.60610  1.0000 -0.4563884654
O   O7        1.0  0.11070  0.69030  0.89390  1.0000 -0.4563884654
O   O8        1.0  0.57960  0.88930  0.89390  1.0000 -0.4563884654
O   O9        1.0  0.30970  0.42040  0.89390  1.0000 -0.4563884654
O   O10       1.0  0.88930  0.30970  0.39390  1.0000 -0.4563884654
O   O11       1.0  0.42040  0.11070  0.39390  1.0000 -0.4563884654
O   O12       1.0  0.69030  0.57960  0.39390  1.0000 -0.4563884654
