# DDEC6 charges by PACMAN v1.1 (https://github.com/mtap-research/PACMAN-charge/)
data_2016[Sm][nan]3[ASR]4
_chemical_formula_sum              "Sm4 H18 C42 N6 O24"
_cell_length_a       8.8475
_cell_length_b       10.716
_cell_length_c       18.895
_cell_angle_alpha    75.521
_cell_angle_beta     83.777
_cell_angle_gamma    69.306

_symmetry_space_group_name_H-M    "P 1"
_symmetry_Int_Tables_number       1

loop_
  _symmetry_equiv_pos_as_xyz
  'x, y, z'

loop_
  _atom_site_type_symbol
  _atom_site_label
  _atom_site_symmetry_multiplicity
  _atom_site_fract_x
  _atom_site_fract_y
  _atom_site_fract_z
  _atom_site_occupancy
  _atom_site_charge
Sm  Sm1       1.0  0.00220  0.41200  0.28695  1.0000 2.1525948445
Sm  Sm2       1.0  0.99780  0.58800  0.71305  1.0000 2.1525948445
Sm  Sm3       1.0  0.39655  0.53203  0.22375  1.0000 2.1108442943
Sm  Sm4       1.0  0.60345  0.46797  0.77625  1.0000 2.1108442943
H   H1        1.0  0.55740  0.29240  0.39430  1.0000 0.1114037481
H   H2        1.0  0.44260  0.70760  0.60570  1.0000 0.1114037481
H   H3        1.0  0.20290  0.44140  0.53290  1.0000 0.141062903
H   H4        1.0  0.79710  0.55860  0.46710  1.0000 0.141062903
H   H5        1.0  0.66940  0.29990  0.58700  1.0000 0.1114037481
H   H6        1.0  0.33060  0.70010  0.41300  1.0000 0.1114037481
H   H7        1.0  0.93680  0.71350  0.86820  1.0000 0.1019315875
H   H8        1.0  0.06320  0.28650  0.13180  1.0000 0.1019315875
H   H9        1.0  0.62050  0.58770  0.01120  1.0000 0.141062903
H   H10       1.0  0.37950  0.41230  0.98880  1.0000 0.141062903
H   H11       1.0  0.97560  0.68560  0.07410  1.0000 0.1019315875
H   H12       1.0  0.02440  0.31440  0.92590  1.0000 0.1019315875
H   H13       1.0  0.53420  0.14400  0.24200  1.0000 0.1114037481
H   H14       1.0  0.46580  0.85600  0.75800  1.0000 0.1114037481
H   H15       1.0  0.77330  0.76100  0.24490  1.0000 0.1114037481
H   H16       1.0  0.22670  0.23900  0.75510  1.0000 0.1114037481
H   H17       1.0  0.01520  0.00950  0.24920  1.0000 0.1341375957
H   H18       1.0  0.98480  0.99050  0.75080  1.0000 0.1341375957
C   C1        1.0  0.52600  0.31420  0.43950  1.0000 0.0629123251
C   C2        1.0  0.47400  0.68580  0.56050  1.0000 0.0705471151
C   C3        1.0  0.36140  0.37140  0.45440  1.0000 -0.081578647
C   C4        1.0  0.63860  0.62860  0.54560  1.0000 -0.081578647
C   C5        1.0  0.31200  0.40340  0.52140  1.0000 -0.0547957395
C   C6        1.0  0.68800  0.59660  0.47860  1.0000 -0.0547957395
C   C7        1.0  0.43160  0.37700  0.57210  1.0000 -0.0902200346
C   C8        1.0  0.56840  0.62300  0.42790  1.0000 -0.0902200346
C   C9        1.0  0.59150  0.31920  0.55280  1.0000 0.0629123251
C   C10       1.0  0.40850  0.68080  0.44720  1.0000 0.0629123251
C   C11       1.0  0.24430  0.40010  0.39610  1.0000 0.6079952121
C   C12       1.0  0.75570  0.59990  0.60390  1.0000 0.6079952121
C   C13       1.0  0.38570  0.41630  0.64390  1.0000 0.6558909218
C   C14       1.0  0.61430  0.58370  0.35610  1.0000 0.6558909218
C   C15       1.0  0.90050  0.69140  0.91620  1.0000 0.0705471151
C   C16       1.0  0.09950  0.30860  0.08380  1.0000 0.0705471151
C   C17       1.0  0.76950  0.64310  0.92970  1.0000 -0.081578647
C   C18       1.0  0.23050  0.35690  0.07030  1.0000 -0.081578647
C   C19       1.0  0.71050  0.61540  0.00100  1.0000 -0.0590343916
C   C20       1.0  0.28950  0.38460  0.99900  1.0000 -0.0590343916
C   C21       1.0  0.78930  0.63010  0.05690  1.0000 -0.0902200346
C   C22       1.0  0.21070  0.36990  0.94310  1.0000 -0.0902200346
C   C23       1.0  0.92210  0.67630  0.03710  1.0000 0.0705471151
C   C24       1.0  0.07790  0.32370  0.96290  1.0000 0.0705471151
C   C25       1.0  0.74480  0.59220  0.13600  1.0000 0.6511625151
C   C26       1.0  0.25520  0.40780  0.86400  1.0000 0.6511625151
C   C27       1.0  0.70080  0.61200  0.87020  1.0000 0.6079952121
C   C28       1.0  0.29920  0.38800  0.12980  1.0000 0.6079952121
C   C29       1.0  0.63210  0.07230  0.24390  1.0000 0.0705471151
C   C30       1.0  0.36790  0.92770  0.75610  1.0000 0.0751506935
C   C31       1.0  0.77280  0.84760  0.24570  1.0000 0.0488458953
C   C32       1.0  0.22720  0.15240  0.75430  1.0000 0.0488458953
C   C33       1.0  0.91820  0.86440  0.24980  1.0000 -0.0679352798
C   C34       1.0  0.08180  0.13560  0.75020  1.0000 -0.0679352798
C   C35       1.0  0.91810  0.99420  0.24890  1.0000 -0.0679352798
C   C36       1.0  0.08190  0.00580  0.75110  1.0000 -0.0679352798
C   C37       1.0  0.77250  0.10110  0.24750  1.0000 -0.081578647
C   C38       1.0  0.22750  0.89890  0.75250  1.0000 -0.0902200346
C   C39       1.0  0.76290  0.24410  0.24790  1.0000 0.6511625151
C   C40       1.0  0.23710  0.75590  0.75210  1.0000 0.6511625151
C   C41       1.0  0.07240  0.74230  0.25400  1.0000 0.6079952121
C   C42       1.0  0.92760  0.25770  0.74600  1.0000 0.6079952121
N   N1        1.0  0.64180  0.28870  0.48700  1.0000 -0.2661751409
N   N2        1.0  0.35820  0.71130  0.51300  1.0000 -0.2605719218
N   N3        1.0  0.97510  0.70710  0.96930  1.0000 -0.2605719218
N   N4        1.0  0.02490  0.29290  0.03070  1.0000 -0.2605719218
N   N5        1.0  0.62770  0.95110  0.24290  1.0000 -0.2497397561
N   N6        1.0  0.37230  0.04890  0.75710  1.0000 -0.2497397561
O   O1        1.0  0.09460  0.42930  0.41130  1.0000 -0.6143482526
O   O2        1.0  0.90540  0.57070  0.58870  1.0000 -0.6143482526
O   O3        1.0  0.29680  0.39370  0.33150  1.0000 -0.7289336125
O   O4        1.0  0.70320  0.60630  0.66850  1.0000 -0.7289336125
O   O5        1.0  0.23410  0.46050  0.66010  1.0000 -0.7289336125
O   O6        1.0  0.76590  0.53950  0.33990  1.0000 -0.7235211928
O   O7        1.0  0.49470  0.41040  0.68260  1.0000 -0.6527945597
O   O8        1.0  0.50530  0.58960  0.31740  1.0000 -0.6527945597
O   O9        1.0  0.85150  0.55570  0.18050  1.0000 -0.6344426175
O   O10       1.0  0.14850  0.44430  0.81950  1.0000 -0.6344426175
O   O11       1.0  0.59790  0.60200  0.15040  1.0000 -0.6910813351
O   O12       1.0  0.40210  0.39800  0.84960  1.0000 -0.6910813351
O   O13       1.0  0.56760  0.58930  0.88120  1.0000 -0.6189665695
O   O14       1.0  0.43240  0.41070  0.11880  1.0000 -0.6189665695
O   O15       1.0  0.78020  0.60160  0.81050  1.0000 -0.7558705111
O   O16       1.0  0.21980  0.39840  0.18950  1.0000 -0.7558705111
O   O17       1.0  0.62420  0.32690  0.25650  1.0000 -0.6703797181
O   O18       1.0  0.37580  0.67310  0.74350  1.0000 -0.6703797181
O   O19       1.0  0.89250  0.26780  0.24130  1.0000 -0.6755225261
O   O20       1.0  0.10750  0.73220  0.75870  1.0000 -0.6755225261
O   O21       1.0  0.20430  0.75920  0.25350  1.0000 -0.5912823279
O   O22       1.0  0.79570  0.24080  0.74650  1.0000 -0.5912823279
O   O23       1.0  0.06270  0.62920  0.25560  1.0000 -0.6910813351
O   O24       1.0  0.93730  0.37080  0.74440  1.0000 -0.6910813351
