# DDEC6 charges by PACMAN v1.1 (https://github.com/mtap-research/PACMAN-charge/)
data_2016[Mg][soc]3[ASR]1
_chemical_formula_sum              "Mg24 H72 C192 N24 O104"
_cell_length_a       21.9692
_cell_length_b       21.9692
_cell_length_c       21.9692
_cell_angle_alpha    90
_cell_angle_beta     90
_cell_angle_gamma    90

_symmetry_space_group_name_H-M    "P 1"
_symmetry_Int_Tables_number       1

loop_
  _symmetry_equiv_pos_as_xyz
  'x, y, z'

loop_
  _atom_site_type_symbol
  _atom_site_label
  _atom_site_symmetry_multiplicity
  _atom_site_fract_x
  _atom_site_fract_y
  _atom_site_fract_z
  _atom_site_occupancy
  _atom_site_charge
Mg  Mg1       1.0  0.67826  0.25965  0.19353  1.0000 1.4199651197
Mg  Mg2       1.0  0.32174  0.74035  0.19353  1.0000 1.4199651197
Mg  Mg3       1.0  0.32174  0.25965  0.80647  1.0000 1.4199651197
Mg  Mg4       1.0  0.67826  0.74035  0.80647  1.0000 1.4199651197
Mg  Mg5       1.0  0.19353  0.67826  0.25965  1.0000 1.4199651197
Mg  Mg6       1.0  0.19353  0.32174  0.74035  1.0000 1.4199651197
Mg  Mg7       1.0  0.80647  0.32174  0.25965  1.0000 1.4199651197
Mg  Mg8       1.0  0.80647  0.67826  0.74035  1.0000 1.4199651197
Mg  Mg9       1.0  0.25965  0.19353  0.67826  1.0000 1.4199651197
Mg  Mg10      1.0  0.74035  0.19353  0.32174  1.0000 1.4199651197
Mg  Mg11      1.0  0.25965  0.80647  0.32174  1.0000 1.4199651197
Mg  Mg12      1.0  0.74035  0.80647  0.67826  1.0000 1.4199651197
Mg  Mg13      1.0  0.75965  0.17826  0.69353  1.0000 1.4199651197
Mg  Mg14      1.0  0.24035  0.82174  0.69353  1.0000 1.4199651197
Mg  Mg15      1.0  0.75965  0.82174  0.30647  1.0000 1.4199651197
Mg  Mg16      1.0  0.24035  0.17826  0.30647  1.0000 1.4199651197
Mg  Mg17      1.0  0.17826  0.69353  0.75965  1.0000 1.4199651197
Mg  Mg18      1.0  0.82174  0.69353  0.24035  1.0000 1.4199651197
Mg  Mg19      1.0  0.82174  0.30647  0.75965  1.0000 1.4199651197
Mg  Mg20      1.0  0.17826  0.30647  0.24035  1.0000 1.4199651197
Mg  Mg21      1.0  0.69353  0.75965  0.17826  1.0000 1.4199651197
Mg  Mg22      1.0  0.69353  0.24035  0.82174  1.0000 1.4199651197
Mg  Mg23      1.0  0.30647  0.75965  0.82174  1.0000 1.4199651197
Mg  Mg24      1.0  0.30647  0.24035  0.17826  1.0000 1.4199651197
H   H1        1.0  0.75700  0.28080  0.00820  1.0000 0.1313681991
H   H2        1.0  0.24300  0.71920  0.00820  1.0000 0.1313681991
H   H3        1.0  0.24300  0.28080  0.99180  1.0000 0.1313681991
H   H4        1.0  0.75700  0.71920  0.99180  1.0000 0.1313681991
H   H5        1.0  0.00820  0.75700  0.28080  1.0000 0.1313681991
H   H6        1.0  0.00820  0.24300  0.71920  1.0000 0.1313681991
H   H7        1.0  0.99180  0.24300  0.28080  1.0000 0.1313681991
H   H8        1.0  0.99180  0.75700  0.71920  1.0000 0.1313681991
H   H9        1.0  0.28080  0.00820  0.75700  1.0000 0.1313681991
H   H10       1.0  0.71920  0.00820  0.24300  1.0000 0.1313681991
H   H11       1.0  0.28080  0.99180  0.24300  1.0000 0.1313681991
H   H12       1.0  0.71920  0.99180  0.75700  1.0000 0.1313681991
H   H13       1.0  0.78080  0.25700  0.50820  1.0000 0.1313681991
H   H14       1.0  0.21920  0.74300  0.50820  1.0000 0.1313681991
H   H15       1.0  0.78080  0.74300  0.49180  1.0000 0.1313681991
H   H16       1.0  0.21920  0.25700  0.49180  1.0000 0.1313681991
H   H17       1.0  0.25700  0.50820  0.78080  1.0000 0.1313681991
H   H18       1.0  0.74300  0.50820  0.21920  1.0000 0.1313681991
H   H19       1.0  0.74300  0.49180  0.78080  1.0000 0.1313681991
H   H20       1.0  0.25700  0.49180  0.21920  1.0000 0.1313681991
H   H21       1.0  0.50820  0.78080  0.25700  1.0000 0.1313681991
H   H22       1.0  0.50820  0.21920  0.74300  1.0000 0.1313681991
H   H23       1.0  0.49180  0.78080  0.74300  1.0000 0.1313681991
H   H24       1.0  0.49180  0.21920  0.25700  1.0000 0.1313681991
H   H25       1.0  0.90830  0.30700  0.10400  1.0000 0.1361975189
H   H26       1.0  0.09170  0.69300  0.10400  1.0000 0.1361975189
H   H27       1.0  0.09170  0.30700  0.89600  1.0000 0.1361975189
H   H28       1.0  0.90830  0.69300  0.89600  1.0000 0.1361975189
H   H29       1.0  0.10400  0.90830  0.30700  1.0000 0.1361975189
H   H30       1.0  0.10400  0.09170  0.69300  1.0000 0.1361975189
H   H31       1.0  0.89600  0.09170  0.30700  1.0000 0.1361975189
H   H32       1.0  0.89600  0.90830  0.69300  1.0000 0.1361975189
H   H33       1.0  0.30700  0.10400  0.90830  1.0000 0.1361975189
H   H34       1.0  0.69300  0.10400  0.09170  1.0000 0.1361975189
H   H35       1.0  0.30700  0.89600  0.09170  1.0000 0.1361975189
H   H36       1.0  0.69300  0.89600  0.90830  1.0000 0.1361975189
H   H37       1.0  0.80700  0.40830  0.60400  1.0000 0.1361975189
H   H38       1.0  0.19300  0.59170  0.60400  1.0000 0.1361975189
H   H39       1.0  0.80700  0.59170  0.39600  1.0000 0.1361975189
H   H40       1.0  0.19300  0.40830  0.39600  1.0000 0.1361975189
H   H41       1.0  0.40830  0.60400  0.80700  1.0000 0.1361975189
H   H42       1.0  0.59170  0.60400  0.19300  1.0000 0.1361975189
H   H43       1.0  0.59170  0.39600  0.80700  1.0000 0.1361975189
H   H44       1.0  0.40830  0.39600  0.19300  1.0000 0.1361975189
H   H45       1.0  0.60400  0.80700  0.40830  1.0000 0.1361975189
H   H46       1.0  0.60400  0.19300  0.59170  1.0000 0.1361975189
H   H47       1.0  0.39600  0.80700  0.59170  1.0000 0.1361975189
H   H48       1.0  0.39600  0.19300  0.40830  1.0000 0.1361975189
H   H49       1.0  0.91380  0.30470  0.92330  1.0000 0.1361975189
H   H50       1.0  0.08620  0.69530  0.92330  1.0000 0.1361975189
H   H51       1.0  0.08620  0.30470  0.07670  1.0000 0.1361975189
H   H52       1.0  0.91380  0.69530  0.07670  1.0000 0.1361975189
H   H53       1.0  0.92330  0.91380  0.30470  1.0000 0.1361975189
H   H54       1.0  0.92330  0.08620  0.69530  1.0000 0.1361975189
H   H55       1.0  0.07670  0.08620  0.30470  1.0000 0.1361975189
H   H56       1.0  0.07670  0.91380  0.69530  1.0000 0.1361975189
H   H57       1.0  0.30470  0.92330  0.91380  1.0000 0.1361975189
H   H58       1.0  0.69530  0.92330  0.08620  1.0000 0.1361975189
H   H59       1.0  0.30470  0.07670  0.08620  1.0000 0.1361975189
H   H60       1.0  0.69530  0.07670  0.91380  1.0000 0.1361975189
H   H61       1.0  0.80470  0.41380  0.42330  1.0000 0.1361975189
H   H62       1.0  0.19530  0.58620  0.42330  1.0000 0.1361975189
H   H63       1.0  0.80470  0.58620  0.57670  1.0000 0.1361975189
H   H64       1.0  0.19530  0.41380  0.57670  1.0000 0.1361975189
H   H65       1.0  0.41380  0.42330  0.80470  1.0000 0.1361975189
H   H66       1.0  0.58620  0.42330  0.19530  1.0000 0.1361975189
H   H67       1.0  0.58620  0.57670  0.80470  1.0000 0.1361975189
H   H68       1.0  0.41380  0.57670  0.19530  1.0000 0.1361975189
H   H69       1.0  0.42330  0.80470  0.41380  1.0000 0.1361975189
H   H70       1.0  0.42330  0.19530  0.58620  1.0000 0.1361975189
H   H71       1.0  0.57670  0.80470  0.58620  1.0000 0.1361975189
H   H72       1.0  0.57670  0.19530  0.41380  1.0000 0.1361975189
C   C1        1.0  0.79110  0.29370  0.12540  1.0000 0.6278689817
C   C2        1.0  0.20890  0.70630  0.12540  1.0000 0.6278689817
C   C3        1.0  0.20890  0.29370  0.87460  1.0000 0.6278689817
C   C4        1.0  0.79110  0.70630  0.87460  1.0000 0.6278689817
C   C5        1.0  0.12540  0.79110  0.29370  1.0000 0.6278689817
C   C6        1.0  0.12540  0.20890  0.70630  1.0000 0.6278689817
C   C7        1.0  0.87460  0.20890  0.29370  1.0000 0.6278689817
C   C8        1.0  0.87460  0.79110  0.70630  1.0000 0.6278689817
C   C9        1.0  0.29370  0.12540  0.79110  1.0000 0.6278689817
C   C10       1.0  0.70630  0.12540  0.20890  1.0000 0.6278689817
C   C11       1.0  0.29370  0.87460  0.20890  1.0000 0.6278689817
C   C12       1.0  0.70630  0.87460  0.79110  1.0000 0.6278689817
C   C13       1.0  0.79370  0.29110  0.62540  1.0000 0.6278689817
C   C14       1.0  0.20630  0.70890  0.62540  1.0000 0.6278689817
C   C15       1.0  0.79370  0.70890  0.37460  1.0000 0.6278689817
C   C16       1.0  0.20630  0.29110  0.37460  1.0000 0.6278689817
C   C17       1.0  0.29110  0.62540  0.79370  1.0000 0.6278689817
C   C18       1.0  0.70890  0.62540  0.20630  1.0000 0.6278689817
C   C19       1.0  0.70890  0.37460  0.79370  1.0000 0.6278689817
C   C20       1.0  0.29110  0.37460  0.20630  1.0000 0.6278689817
C   C21       1.0  0.62540  0.79370  0.29110  1.0000 0.6278689817
C   C22       1.0  0.62540  0.20630  0.70890  1.0000 0.6278689817
C   C23       1.0  0.37460  0.79370  0.70890  1.0000 0.6278689817
C   C24       1.0  0.37460  0.20630  0.29110  1.0000 0.6278689817
C   C25       1.0  0.79890  0.28660  0.01020  1.0000 -0.0720984808
C   C26       1.0  0.20110  0.71340  0.01020  1.0000 -0.0720984808
C   C27       1.0  0.20110  0.28660  0.98980  1.0000 -0.0720984808
C   C28       1.0  0.79890  0.71340  0.98980  1.0000 -0.0720984808
C   C29       1.0  0.01020  0.79890  0.28660  1.0000 -0.0720984808
C   C30       1.0  0.01020  0.20110  0.71340  1.0000 -0.0720984808
C   C31       1.0  0.98980  0.20110  0.28660  1.0000 -0.0720984808
C   C32       1.0  0.98980  0.79890  0.71340  1.0000 -0.0720984808
C   C33       1.0  0.28660  0.01020  0.79890  1.0000 -0.0720984808
C   C34       1.0  0.71340  0.01020  0.20110  1.0000 -0.0720984808
C   C35       1.0  0.28660  0.98980  0.20110  1.0000 -0.0720984808
C   C36       1.0  0.71340  0.98980  0.79890  1.0000 -0.0720984808
C   C37       1.0  0.78660  0.29890  0.51020  1.0000 -0.0720984808
C   C38       1.0  0.21340  0.70110  0.51020  1.0000 -0.0720984808
C   C39       1.0  0.78660  0.70110  0.48980  1.0000 -0.0720984808
C   C40       1.0  0.21340  0.29890  0.48980  1.0000 -0.0720984808
C   C41       1.0  0.29890  0.51020  0.78660  1.0000 -0.0720984808
C   C42       1.0  0.70110  0.51020  0.21340  1.0000 -0.0720984808
C   C43       1.0  0.70110  0.48980  0.78660  1.0000 -0.0720984808
C   C44       1.0  0.29890  0.48980  0.21340  1.0000 -0.0720984808
C   C45       1.0  0.51020  0.78660  0.29890  1.0000 -0.0720984808
C   C46       1.0  0.51020  0.21340  0.70110  1.0000 -0.0720984808
C   C47       1.0  0.48980  0.78660  0.70110  1.0000 -0.0720984808
C   C48       1.0  0.48980  0.21340  0.29890  1.0000 -0.0720984808
C   C49       1.0  0.82390  0.29520  0.06670  1.0000 -0.0234431031
C   C50       1.0  0.17610  0.70480  0.06670  1.0000 -0.0234431031
C   C51       1.0  0.17610  0.29520  0.93330  1.0000 -0.0234431031
C   C52       1.0  0.82390  0.70480  0.93330  1.0000 -0.0234431031
C   C53       1.0  0.06670  0.82390  0.29520  1.0000 -0.0234431031
C   C54       1.0  0.06670  0.17610  0.70480  1.0000 -0.0234431031
C   C55       1.0  0.93330  0.17610  0.29520  1.0000 -0.0234431031
C   C56       1.0  0.93330  0.82390  0.70480  1.0000 -0.0234431031
C   C57       1.0  0.29520  0.06670  0.82390  1.0000 -0.0234431031
C   C58       1.0  0.70480  0.06670  0.17610  1.0000 -0.0234431031
C   C59       1.0  0.29520  0.93330  0.17610  1.0000 -0.0234431031
C   C60       1.0  0.70480  0.93330  0.82390  1.0000 -0.0234431031
C   C61       1.0  0.79520  0.32390  0.56670  1.0000 -0.0234431031
C   C62       1.0  0.20480  0.67610  0.56670  1.0000 -0.0234431031
C   C63       1.0  0.79520  0.67610  0.43330  1.0000 -0.0234431031
C   C64       1.0  0.20480  0.32390  0.43330  1.0000 -0.0234431031
C   C65       1.0  0.32390  0.56670  0.79520  1.0000 -0.0234431031
C   C66       1.0  0.67610  0.56670  0.20480  1.0000 -0.0234431031
C   C67       1.0  0.67610  0.43330  0.79520  1.0000 -0.0234431031
C   C68       1.0  0.32390  0.43330  0.20480  1.0000 -0.0234431031
C   C69       1.0  0.56670  0.79520  0.32390  1.0000 -0.0234431031
C   C70       1.0  0.56670  0.20480  0.67610  1.0000 -0.0234431031
C   C71       1.0  0.43330  0.79520  0.67610  1.0000 -0.0234431031
C   C72       1.0  0.43330  0.20480  0.32390  1.0000 -0.0234431031
C   C73       1.0  0.83120  0.28590  0.95540  1.0000 0.0031606583
C   C74       1.0  0.16880  0.71410  0.95540  1.0000 0.0031606583
C   C75       1.0  0.16880  0.28590  0.04460  1.0000 0.0031606583
C   C76       1.0  0.83120  0.71410  0.04460  1.0000 0.0031606583
C   C77       1.0  0.95540  0.83120  0.28590  1.0000 0.0031606583
C   C78       1.0  0.95540  0.16880  0.71410  1.0000 0.0031606583
C   C79       1.0  0.04460  0.16880  0.28590  1.0000 0.0031606583
C   C80       1.0  0.04460  0.83120  0.71410  1.0000 0.0031606583
C   C81       1.0  0.28590  0.95540  0.83120  1.0000 0.0031606583
C   C82       1.0  0.71410  0.95540  0.16880  1.0000 0.0031606583
C   C83       1.0  0.28590  0.04460  0.16880  1.0000 0.0031606583
C   C84       1.0  0.71410  0.04460  0.83120  1.0000 0.0031606583
C   C85       1.0  0.78590  0.33120  0.45540  1.0000 0.0031606583
C   C86       1.0  0.21410  0.66880  0.45540  1.0000 0.0031606583
C   C87       1.0  0.78590  0.66880  0.54460  1.0000 0.0031606583
C   C88       1.0  0.21410  0.33120  0.54460  1.0000 0.0031606583
C   C89       1.0  0.33120  0.45540  0.78590  1.0000 0.0031606583
C   C90       1.0  0.66880  0.45540  0.21410  1.0000 0.0031606583
C   C91       1.0  0.66880  0.54460  0.78590  1.0000 0.0031606583
C   C92       1.0  0.33120  0.54460  0.21410  1.0000 0.0031606583
C   C93       1.0  0.45540  0.78590  0.33120  1.0000 0.0031606583
C   C94       1.0  0.45540  0.21410  0.66880  1.0000 0.0031606583
C   C95       1.0  0.54460  0.78590  0.66880  1.0000 0.0031606583
C   C96       1.0  0.54460  0.21410  0.33120  1.0000 0.0031606583
C   C97       1.0  0.80220  0.28000  0.89320  1.0000 0.6173790858
C   C98       1.0  0.19780  0.72000  0.89320  1.0000 0.6173790858
C   C99       1.0  0.19780  0.28000  0.10680  1.0000 0.6173790858
C   C100      1.0  0.80220  0.72000  0.10680  1.0000 0.6173790858
C   C101      1.0  0.89320  0.80220  0.28000  1.0000 0.6173790858
C   C102      1.0  0.89320  0.19780  0.72000  1.0000 0.6173790858
C   C103      1.0  0.10680  0.19780  0.28000  1.0000 0.6173790858
C   C104      1.0  0.10680  0.80220  0.72000  1.0000 0.6173790858
C   C105      1.0  0.28000  0.89320  0.80220  1.0000 0.6173790858
C   C106      1.0  0.72000  0.89320  0.19780  1.0000 0.6173790858
C   C107      1.0  0.28000  0.10680  0.19780  1.0000 0.6173790858
C   C108      1.0  0.72000  0.10680  0.80220  1.0000 0.6173790858
C   C109      1.0  0.78000  0.30220  0.39320  1.0000 0.6173790858
C   C110      1.0  0.22000  0.69780  0.39320  1.0000 0.6173790858
C   C111      1.0  0.78000  0.69780  0.60680  1.0000 0.6173790858
C   C112      1.0  0.22000  0.30220  0.60680  1.0000 0.6173790858
C   C113      1.0  0.30220  0.39320  0.78000  1.0000 0.6173790858
C   C114      1.0  0.69780  0.39320  0.22000  1.0000 0.6173790858
C   C115      1.0  0.69780  0.60680  0.78000  1.0000 0.6173790858
C   C116      1.0  0.30220  0.60680  0.22000  1.0000 0.6173790858
C   C117      1.0  0.39320  0.78000  0.30220  1.0000 0.6173790858
C   C118      1.0  0.39320  0.22000  0.69780  1.0000 0.6173790858
C   C119      1.0  0.60680  0.78000  0.69780  1.0000 0.6173790858
C   C120      1.0  0.60680  0.22000  0.30220  1.0000 0.6173790858
C   C121      1.0  0.92170  0.30540  0.01540  1.0000 0.1515772222
C   C122      1.0  0.07830  0.69460  0.01540  1.0000 0.1515772222
C   C123      1.0  0.07830  0.30540  0.98460  1.0000 0.1515772222
C   C124      1.0  0.92170  0.69460  0.98460  1.0000 0.1515772222
C   C125      1.0  0.01540  0.92170  0.30540  1.0000 0.1515772222
C   C126      1.0  0.01540  0.07830  0.69460  1.0000 0.1515772222
C   C127      1.0  0.98460  0.07830  0.30540  1.0000 0.1515772222
C   C128      1.0  0.98460  0.92170  0.69460  1.0000 0.1515772222
C   C129      1.0  0.30540  0.01540  0.92170  1.0000 0.1515772222
C   C130      1.0  0.69460  0.01540  0.07830  1.0000 0.1515772222
C   C131      1.0  0.30540  0.98460  0.07830  1.0000 0.1515772222
C   C132      1.0  0.69460  0.98460  0.92170  1.0000 0.1515772222
C   C133      1.0  0.80540  0.42170  0.51540  1.0000 0.1515772222
C   C134      1.0  0.19460  0.57830  0.51540  1.0000 0.1515772222
C   C135      1.0  0.80540  0.57830  0.48460  1.0000 0.1515772222
C   C136      1.0  0.19460  0.42170  0.48460  1.0000 0.1515772222
C   C137      1.0  0.42170  0.51540  0.80540  1.0000 0.1515772222
C   C138      1.0  0.57830  0.51540  0.19460  1.0000 0.1515772222
C   C139      1.0  0.57830  0.48460  0.80540  1.0000 0.1515772222
C   C140      1.0  0.42170  0.48460  0.19460  1.0000 0.1515772222
C   C141      1.0  0.51540  0.80540  0.42170  1.0000 0.1515772222
C   C142      1.0  0.51540  0.19460  0.57830  1.0000 0.1515772222
C   C143      1.0  0.48460  0.80540  0.57830  1.0000 0.1515772222
C   C144      1.0  0.48460  0.19460  0.42170  1.0000 0.1515772222
C   C145      1.0  0.88840  0.30320  0.06680  1.0000 -0.1279787354
C   C146      1.0  0.11160  0.69680  0.06680  1.0000 -0.1279787354
C   C147      1.0  0.11160  0.30320  0.93320  1.0000 -0.1279787354
C   C148      1.0  0.88840  0.69680  0.93320  1.0000 -0.1279787354
C   C149      1.0  0.06680  0.88840  0.30320  1.0000 -0.1279787354
C   C150      1.0  0.06680  0.11160  0.69680  1.0000 -0.1279787354
C   C151      1.0  0.93320  0.11160  0.30320  1.0000 -0.1279787354
C   C152      1.0  0.93320  0.88840  0.69680  1.0000 -0.1279787354
C   C153      1.0  0.30320  0.06680  0.88840  1.0000 -0.1279787354
C   C154      1.0  0.69680  0.06680  0.11160  1.0000 -0.1279787354
C   C155      1.0  0.30320  0.93320  0.11160  1.0000 -0.1279787354
C   C156      1.0  0.69680  0.93320  0.88840  1.0000 -0.1279787354
C   C157      1.0  0.80320  0.38840  0.56680  1.0000 -0.1279787354
C   C158      1.0  0.19680  0.61160  0.56680  1.0000 -0.1279787354
C   C159      1.0  0.80320  0.61160  0.43320  1.0000 -0.1279787354
C   C160      1.0  0.19680  0.38840  0.43320  1.0000 -0.1279787354
C   C161      1.0  0.38840  0.56680  0.80320  1.0000 -0.1279787354
C   C162      1.0  0.61160  0.56680  0.19680  1.0000 -0.1279787354
C   C163      1.0  0.61160  0.43320  0.80320  1.0000 -0.1279787354
C   C164      1.0  0.38840  0.43320  0.19680  1.0000 -0.1279787354
C   C165      1.0  0.56680  0.80320  0.38840  1.0000 -0.1279787354
C   C166      1.0  0.56680  0.19680  0.61160  1.0000 -0.1279787354
C   C167      1.0  0.43320  0.80320  0.61160  1.0000 -0.1279787354
C   C168      1.0  0.43320  0.19680  0.38840  1.0000 -0.1279787354
C   C169      1.0  0.89170  0.29940  0.95900  1.0000 -0.1279787354
C   C170      1.0  0.10830  0.70060  0.95900  1.0000 -0.1279787354
C   C171      1.0  0.10830  0.29940  0.04100  1.0000 -0.1279787354
C   C172      1.0  0.89170  0.70060  0.04100  1.0000 -0.1279787354
C   C173      1.0  0.95900  0.89170  0.29940  1.0000 -0.1279787354
C   C174      1.0  0.95900  0.10830  0.70060  1.0000 -0.1279787354
C   C175      1.0  0.04100  0.10830  0.29940  1.0000 -0.1279787354
C   C176      1.0  0.04100  0.89170  0.70060  1.0000 -0.1279787354
C   C177      1.0  0.29940  0.95900  0.89170  1.0000 -0.1279787354
C   C178      1.0  0.70060  0.95900  0.10830  1.0000 -0.1279787354
C   C179      1.0  0.29940  0.04100  0.10830  1.0000 -0.1279787354
C   C180      1.0  0.70060  0.04100  0.89170  1.0000 -0.1279787354
C   C181      1.0  0.79940  0.39170  0.45900  1.0000 -0.1279787354
C   C182      1.0  0.20060  0.60830  0.45900  1.0000 -0.1279787354
C   C183      1.0  0.79940  0.60830  0.54100  1.0000 -0.1279787354
C   C184      1.0  0.20060  0.39170  0.54100  1.0000 -0.1279787354
C   C185      1.0  0.39170  0.45900  0.79940  1.0000 -0.1279787354
C   C186      1.0  0.60830  0.45900  0.20060  1.0000 -0.1279787354
C   C187      1.0  0.60830  0.54100  0.79940  1.0000 -0.1279787354
C   C188      1.0  0.39170  0.54100  0.20060  1.0000 -0.1279787354
C   C189      1.0  0.45900  0.79940  0.39170  1.0000 -0.1279787354
C   C190      1.0  0.45900  0.20060  0.60830  1.0000 -0.1279787354
C   C191      1.0  0.54100  0.79940  0.60830  1.0000 -0.1279787354
C   C192      1.0  0.54100  0.20060  0.39170  1.0000 -0.1279787354
N   N1        1.0  0.98440  0.30870  0.02420  1.0000 -0.1279787354
N   N2        1.0  0.01560  0.69130  0.02420  1.0000 -0.1279787354
N   N3        1.0  0.01560  0.30870  0.97580  1.0000 -0.1279787354
N   N4        1.0  0.98440  0.69130  0.97580  1.0000 -0.1279787354
N   N5        1.0  0.02420  0.98440  0.30870  1.0000 -0.1279787354
N   N6        1.0  0.02420  0.01560  0.69130  1.0000 -0.1279787354
N   N7        1.0  0.97580  0.01560  0.30870  1.0000 -0.1279787354
N   N8        1.0  0.97580  0.98440  0.69130  1.0000 -0.1279787354
N   N9        1.0  0.30870  0.02420  0.98440  1.0000 -0.1279787354
N   N10       1.0  0.69130  0.02420  0.01560  1.0000 -0.1279787354
N   N11       1.0  0.30870  0.97580  0.01560  1.0000 -0.1279787354
N   N12       1.0  0.69130  0.97580  0.98440  1.0000 -0.1279787354
N   N13       1.0  0.80870  0.48440  0.52420  1.0000 -0.1279787354
N   N14       1.0  0.19130  0.51560  0.52420  1.0000 -0.1279787354
N   N15       1.0  0.80870  0.51560  0.47580  1.0000 -0.1279787354
N   N16       1.0  0.19130  0.48440  0.47580  1.0000 -0.1279787354
N   N17       1.0  0.48440  0.52420  0.80870  1.0000 -0.1279787354
N   N18       1.0  0.51560  0.52420  0.19130  1.0000 -0.1279787354
N   N19       1.0  0.51560  0.47580  0.80870  1.0000 -0.1279787354
N   N20       1.0  0.48440  0.47580  0.19130  1.0000 -0.1279787354
N   N21       1.0  0.52420  0.80870  0.48440  1.0000 -0.1279787354
N   N22       1.0  0.52420  0.19130  0.51560  1.0000 -0.1279787354
N   N23       1.0  0.47580  0.80870  0.51560  1.0000 -0.1279787354
N   N24       1.0  0.47580  0.19130  0.48440  1.0000 -0.1279787354
O   O1        1.0  0.74040  0.25960  0.25960  1.0000 -1.1132428332
O   O2        1.0  0.25960  0.74040  0.25960  1.0000 -1.1132428332
O   O3        1.0  0.25960  0.25960  0.74040  1.0000 -1.1132428332
O   O4        1.0  0.74040  0.74040  0.74040  1.0000 -1.1132428332
O   O5        1.0  0.75960  0.24040  0.75960  1.0000 -1.1132428332
O   O6        1.0  0.24040  0.75960  0.75960  1.0000 -1.1132428332
O   O7        1.0  0.75960  0.75960  0.24040  1.0000 -1.1132428332
O   O8        1.0  0.24040  0.24040  0.24040  1.0000 -1.1132428332
O   O9        1.0  0.75010  0.25940  0.89344  1.0000 -0.5717785367
O   O10       1.0  0.24990  0.74060  0.89344  1.0000 -0.5717785367
O   O11       1.0  0.24990  0.25940  0.10656  1.0000 -0.5717785367
O   O12       1.0  0.75010  0.74060  0.10656  1.0000 -0.5717785367
O   O13       1.0  0.89344  0.75010  0.25940  1.0000 -0.5717785367
O   O14       1.0  0.89344  0.24990  0.74060  1.0000 -0.5717785367
O   O15       1.0  0.10656  0.24990  0.25940  1.0000 -0.5717785367
O   O16       1.0  0.10656  0.75010  0.74060  1.0000 -0.5717785367
O   O17       1.0  0.25940  0.89344  0.75010  1.0000 -0.5717785367
O   O18       1.0  0.74060  0.89344  0.24990  1.0000 -0.5717785367
O   O19       1.0  0.25940  0.10656  0.24990  1.0000 -0.5717785367
O   O20       1.0  0.74060  0.10656  0.75010  1.0000 -0.5717785367
O   O21       1.0  0.75940  0.25010  0.39344  1.0000 -0.5717785367
O   O22       1.0  0.24060  0.74990  0.39344  1.0000 -0.5717785367
O   O23       1.0  0.75940  0.74990  0.60656  1.0000 -0.5717785367
O   O24       1.0  0.24060  0.25010  0.60656  1.0000 -0.5717785367
O   O25       1.0  0.25010  0.39344  0.75940  1.0000 -0.5717785367
O   O26       1.0  0.74990  0.39344  0.24060  1.0000 -0.5717785367
O   O27       1.0  0.74990  0.60656  0.75940  1.0000 -0.5717785367
O   O28       1.0  0.25010  0.60656  0.24060  1.0000 -0.5717785367
O   O29       1.0  0.39344  0.75940  0.25010  1.0000 -0.5717785367
O   O30       1.0  0.39344  0.24060  0.74990  1.0000 -0.5717785367
O   O31       1.0  0.60656  0.75940  0.74990  1.0000 -0.5717785367
O   O32       1.0  0.60656  0.24060  0.25010  1.0000 -0.5717785367
O   O33       1.0  0.73490  0.27687  0.12387  1.0000 -0.6228552942
O   O34       1.0  0.26510  0.72313  0.12387  1.0000 -0.6228552942
O   O35       1.0  0.26510  0.27687  0.87613  1.0000 -0.6228552942
O   O36       1.0  0.73490  0.72313  0.87613  1.0000 -0.6228552942
O   O37       1.0  0.12387  0.73490  0.27687  1.0000 -0.6228552942
O   O38       1.0  0.12387  0.26510  0.72313  1.0000 -0.6228552942
O   O39       1.0  0.87613  0.26510  0.27687  1.0000 -0.6228552942
O   O40       1.0  0.87613  0.73490  0.72313  1.0000 -0.6228552942
O   O41       1.0  0.27687  0.12387  0.73490  1.0000 -0.6228552942
O   O42       1.0  0.72313  0.12387  0.26510  1.0000 -0.6228552942
O   O43       1.0  0.27687  0.87613  0.26510  1.0000 -0.6228552942
O   O44       1.0  0.72313  0.87613  0.73490  1.0000 -0.6228552942
O   O45       1.0  0.77687  0.23490  0.62387  1.0000 -0.6228552942
O   O46       1.0  0.22313  0.76510  0.62387  1.0000 -0.6228552942
O   O47       1.0  0.77687  0.76510  0.37613  1.0000 -0.6228552942
O   O48       1.0  0.22313  0.23490  0.37613  1.0000 -0.6228552942
O   O49       1.0  0.23490  0.62387  0.77687  1.0000 -0.6228552942
O   O50       1.0  0.76510  0.62387  0.22313  1.0000 -0.6228552942
O   O51       1.0  0.76510  0.37613  0.77687  1.0000 -0.6228552942
O   O52       1.0  0.23490  0.37613  0.22313  1.0000 -0.6228552942
O   O53       1.0  0.62387  0.77687  0.23490  1.0000 -0.6228552942
O   O54       1.0  0.62387  0.22313  0.76510  1.0000 -0.6228552942
O   O55       1.0  0.37613  0.77687  0.76510  1.0000 -0.6228552942
O   O56       1.0  0.37613  0.22313  0.23490  1.0000 -0.6228552942
O   O57       1.0  0.83590  0.29620  0.84970  1.0000 -0.5892608696
O   O58       1.0  0.16410  0.70380  0.84970  1.0000 -0.5892608696
O   O59       1.0  0.16410  0.29620  0.15030  1.0000 -0.5892608696
O   O60       1.0  0.83590  0.70380  0.15030  1.0000 -0.5892608696
O   O61       1.0  0.84970  0.83590  0.29620  1.0000 -0.5892608696
O   O62       1.0  0.84970  0.16410  0.70380  1.0000 -0.5892608696
O   O63       1.0  0.15030  0.16410  0.29620  1.0000 -0.5892608696
O   O64       1.0  0.15030  0.83590  0.70380  1.0000 -0.5892608696
O   O65       1.0  0.29620  0.84970  0.83590  1.0000 -0.5892608696
O   O66       1.0  0.70380  0.84970  0.16410  1.0000 -0.5892608696
O   O67       1.0  0.29620  0.15030  0.16410  1.0000 -0.5892608696
O   O68       1.0  0.70380  0.15030  0.83590  1.0000 -0.5892608696
O   O69       1.0  0.79620  0.33590  0.34970  1.0000 -0.5892608696
O   O70       1.0  0.20380  0.66410  0.34970  1.0000 -0.5892608696
O   O71       1.0  0.79620  0.66410  0.65030  1.0000 -0.5892608696
O   O72       1.0  0.20380  0.33590  0.65030  1.0000 -0.5892608696
O   O73       1.0  0.33590  0.34970  0.79620  1.0000 -0.5892608696
O   O74       1.0  0.66410  0.34970  0.20380  1.0000 -0.5892608696
O   O75       1.0  0.66410  0.65030  0.79620  1.0000 -0.5892608696
O   O76       1.0  0.33590  0.65030  0.20380  1.0000 -0.5892608696
O   O77       1.0  0.34970  0.79620  0.33590  1.0000 -0.5892608696
O   O78       1.0  0.34970  0.20380  0.66410  1.0000 -0.5892608696
O   O79       1.0  0.65030  0.79620  0.66410  1.0000 -0.5892608696
O   O80       1.0  0.65030  0.20380  0.33590  1.0000 -0.5892608696
O   O81       1.0  0.82000  0.30961  0.17180  1.0000 -0.5892608696
O   O82       1.0  0.18000  0.69039  0.17180  1.0000 -0.5892608696
O   O83       1.0  0.18000  0.30961  0.82820  1.0000 -0.5892608696
O   O84       1.0  0.82000  0.69039  0.82820  1.0000 -0.5892608696
O   O85       1.0  0.17180  0.82000  0.30961  1.0000 -0.5892608696
O   O86       1.0  0.17180  0.18000  0.69039  1.0000 -0.5892608696
O   O87       1.0  0.82820  0.18000  0.30961  1.0000 -0.5892608696
O   O88       1.0  0.82820  0.82000  0.69039  1.0000 -0.5892608696
O   O89       1.0  0.30961  0.17180  0.82000  1.0000 -0.5892608696
O   O90       1.0  0.69039  0.17180  0.18000  1.0000 -0.5892608696
O   O91       1.0  0.30961  0.82820  0.18000  1.0000 -0.5892608696
O   O92       1.0  0.69039  0.82820  0.82000  1.0000 -0.5892608696
O   O93       1.0  0.80961  0.32000  0.67180  1.0000 -0.5892608696
O   O94       1.0  0.19039  0.68000  0.67180  1.0000 -0.5892608696
O   O95       1.0  0.80961  0.68000  0.32820  1.0000 -0.5892608696
O   O96       1.0  0.19039  0.32000  0.32820  1.0000 -0.5892608696
O   O97       1.0  0.32000  0.67180  0.80961  1.0000 -0.5892608696
O   O98       1.0  0.68000  0.67180  0.19039  1.0000 -0.5892608696
O   O99       1.0  0.68000  0.32820  0.80961  1.0000 -0.5892608696
O   O100      1.0  0.32000  0.32820  0.19039  1.0000 -0.5892608696
O   O101      1.0  0.67180  0.80961  0.32000  1.0000 -0.5892608696
O   O102      1.0  0.67180  0.19039  0.68000  1.0000 -0.5892608696
O   O103      1.0  0.32820  0.80961  0.68000  1.0000 -0.5892608696
O   O104      1.0  0.32820  0.19039  0.32000  1.0000 -0.5892608696
