# DDEC6 charges by PACMAN v1.1 (https://github.com/mtap-research/PACMAN-charge/)
data_2016[Pr][pcu]3[ASR]1
_chemical_formula_sum              "Pr2 H24 C48 O12"
_cell_length_a       10.4477
_cell_length_b       11.4945
_cell_length_c       12.9583
_cell_angle_alpha    106.639
_cell_angle_beta     90.322
_cell_angle_gamma    93.194

_symmetry_space_group_name_H-M    "P 1"
_symmetry_Int_Tables_number       1

loop_
  _symmetry_equiv_pos_as_xyz
  'x, y, z'

loop_
  _atom_site_type_symbol
  _atom_site_label
  _atom_site_symmetry_multiplicity
  _atom_site_fract_x
  _atom_site_fract_y
  _atom_site_fract_z
  _atom_site_occupancy
  _atom_site_charge
Pr  Pr1       1.0  0.47424  0.45386  0.33549  1.0000 2.0502279728
Pr  Pr2       1.0  0.52576  0.54614  0.66451  1.0000 2.0502279728
H   H1        1.0  0.39730  0.07570  0.26000  1.0000 0.1186486555
H   H2        1.0  0.60270  0.92430  0.74000  1.0000 0.1186486555
H   H3        1.0  0.27970  0.79610  0.55360  1.0000 0.1186486555
H   H4        1.0  0.72030  0.20390  0.44640  1.0000 0.1186486555
H   H5        1.0  0.23110  0.30160  0.40460  1.0000 0.1096744616
H   H6        1.0  0.76890  0.69840  0.59540  1.0000 0.1096744616
H   H7        1.0  0.31470  0.90250  0.28900  1.0000 0.099695855
H   H8        1.0  0.68530  0.09750  0.71100  1.0000 0.099695855
H   H9        1.0  0.09420  0.89110  0.58500  1.0000 0.099695855
H   H10       1.0  0.90580  0.10890  0.41500  1.0000 0.099695855
H   H11       1.0  0.14390  0.15690  0.25820  1.0000 0.1186486555
H   H12       1.0  0.85610  0.84310  0.74180  1.0000 0.1186486555
H   H13       1.0  0.31100  0.71790  0.15300  1.0000 0.1096744616
H   H14       1.0  0.68900  0.28210  0.84700  1.0000 0.1096744616
H   H15       1.0  0.08600  0.09460  0.58460  1.0000 0.1096744616
H   H16       1.0  0.91400  0.90540  0.41540  1.0000 0.1096744616
H   H17       1.0  0.92930  0.16560  0.20390  1.0000 0.1186486555
H   H18       1.0  0.07070  0.83440  0.79610  1.0000 0.1186486555
H   H19       1.0  0.38900  0.70970  0.98640  1.0000 0.1186486555
H   H20       1.0  0.61100  0.29030  0.01360  1.0000 0.1186486555
H   H21       1.0  0.26000  0.19410  0.53940  1.0000 0.1186486555
H   H22       1.0  0.74000  0.80590  0.46060  1.0000 0.1186486555
H   H23       1.0  0.80870  0.31770  0.29560  1.0000 0.1303759247
H   H24       1.0  0.19130  0.68230  0.70440  1.0000 0.1303759247
C   C1        1.0  0.49340  0.23160  0.16590  1.0000 0.5740539759
C   C2        1.0  0.50660  0.76840  0.83410  1.0000 0.5740539759
C   C3        1.0  0.51250  0.74800  0.50460  1.0000 0.6416529148
C   C4        1.0  0.48750  0.25200  0.49540  1.0000 0.6416529148
C   C5        1.0  0.26420  0.48900  0.56660  1.0000 0.6080059737
C   C6        1.0  0.73580  0.51100  0.43340  1.0000 0.6080059737
C   C7        1.0  0.49820  0.11330  0.08210  1.0000 -0.1164806679
C   C8        1.0  0.50180  0.88670  0.91790  1.0000 -0.1164806679
C   C9        1.0  0.50690  0.87980  0.50480  1.0000 -0.107978192
C   C10       1.0  0.49310  0.12020  0.49520  1.0000 -0.107978192
C   C11       1.0  0.12870  0.49320  0.53190  1.0000 -0.1164806679
C   C12       1.0  0.87130  0.50680  0.46810  1.0000 -0.1164806679
C   C13       1.0  0.44740  0.00530  0.10120  1.0000 0.0651679814
C   C14       1.0  0.55260  0.99470  0.89880  1.0000 0.0651679814
C   C15       1.0  0.39130  0.93620  0.52630  1.0000 0.0585614522
C   C16       1.0  0.60870  0.06380  0.47370  1.0000 0.0585614522
C   C17       1.0  0.07540  0.40420  0.44280  1.0000 0.0529856153
C   C18       1.0  0.92460  0.59580  0.55720  1.0000 0.0529856153
C   C19       1.0  0.39630  0.00360  0.20440  1.0000 -0.1459439814
C   C20       1.0  0.60370  0.99640  0.79560  1.0000 -0.1459439814
C   C21       1.0  0.27760  0.87600  0.55090  1.0000 -0.1381323606
C   C22       1.0  0.72240  0.12400  0.44910  1.0000 -0.1381323606
C   C23       1.0  0.14680  0.30640  0.38340  1.0000 -0.1730901942
C   C24       1.0  0.85320  0.69360  0.61660  1.0000 -0.1730901942
C   C25       1.0  0.34730  0.90030  0.22190  1.0000 -0.0973126318
C   C26       1.0  0.65270  0.09970  0.77810  1.0000 -0.0973126318
C   C27       1.0  0.16760  0.93250  0.57020  1.0000 -0.0895405904
C   C28       1.0  0.83240  0.06750  0.42980  1.0000 -0.0895405904
C   C29       1.0  0.09500  0.21970  0.29630  1.0000 -0.082353656
C   C30       1.0  0.90500  0.78030  0.70370  1.0000 -0.082353656
C   C31       1.0  0.34490  0.78850  0.13950  1.0000 -0.0973126318
C   C32       1.0  0.65510  0.21150  0.86050  1.0000 -0.0973126318
C   C33       1.0  0.16190  0.05530  0.56820  1.0000 -0.0973126318
C   C34       1.0  0.83810  0.94470  0.43180  1.0000 -0.0973126318
C   C35       1.0  0.96470  0.22510  0.26330  1.0000 -0.0973126318
C   C36       1.0  0.03530  0.77490  0.73670  1.0000 -0.0973126318
C   C37       1.0  0.39210  0.78360  0.04000  1.0000 -0.1381323606
C   C38       1.0  0.60790  0.21640  0.96000  1.0000 -0.1381323606
C   C39       1.0  0.26600  0.11480  0.54270  1.0000 -0.1381323606
C   C40       1.0  0.73400  0.88520  0.45730  1.0000 -0.1381323606
C   C41       1.0  0.89310  0.31600  0.31790  1.0000 -0.131594722
C   C42       1.0  0.10690  0.68400  0.68210  1.0000 -0.131594722
C   C43       1.0  0.44670  0.89160  0.01720  1.0000 0.0585614522
C   C44       1.0  0.55330  0.10840  0.98280  1.0000 0.0585614522
C   C45       1.0  0.38540  0.05900  0.52050  1.0000 0.0529856153
C   C46       1.0  0.61460  0.94100  0.47950  1.0000 0.0529856153
C   C47       1.0  0.94430  0.41000  0.40960  1.0000 0.0585614522
C   C48       1.0  0.05570  0.59000  0.59040  1.0000 0.0585614522
O   O1        1.0  0.38540  0.27750  0.18460  1.0000 -0.6374278635
O   O2        1.0  0.61460  0.72250  0.81540  1.0000 -0.6374278635
O   O3        1.0  0.48970  0.67160  0.41440  1.0000 -0.6554539174
O   O4        1.0  0.51030  0.32840  0.58560  1.0000 -0.6554539174
O   O5        1.0  0.35460  0.50990  0.50770  1.0000 -0.7360333175
O   O6        1.0  0.64540  0.49010  0.49230  1.0000 -0.7360333175
O   O7        1.0  0.59510  0.28380  0.21380  1.0000 -0.618787852
O   O8        1.0  0.40490  0.71620  0.78620  1.0000 -0.618787852
O   O9        1.0  0.53880  0.72610  0.59040  1.0000 -0.618787852
O   O10       1.0  0.46120  0.27390  0.40960  1.0000 -0.618787852
O   O11       1.0  0.28470  0.47430  0.65600  1.0000 -0.557846275
O   O12       1.0  0.71530  0.52570  0.34400  1.0000 -0.557846275
