# DDEC6 charges by PACMAN v1.1 (https://github.com/mtap-research/PACMAN-charge/)
data_2016[Th][bcu]3[ASR]1
_chemical_formula_sum              "Th24 H192 C192 N48 O176"
_cell_length_a       17.0105
_cell_length_b       21.9594
_cell_length_c       24.8081
_cell_angle_alpha    90
_cell_angle_beta     90
_cell_angle_gamma    90

_symmetry_space_group_name_H-M    "P 1"
_symmetry_Int_Tables_number       1

loop_
  _symmetry_equiv_pos_as_xyz
  'x, y, z'

loop_
  _atom_site_type_symbol
  _atom_site_label
  _atom_site_symmetry_multiplicity
  _atom_site_fract_x
  _atom_site_fract_y
  _atom_site_fract_z
  _atom_site_occupancy
  _atom_site_charge
Th  Th1       1.0  0.43088  0.59800  0.55477  1.0000 2.4117275002
Th  Th2       1.0  0.06912  0.40200  0.05477  1.0000 2.4117275002
Th  Th3       1.0  0.56912  0.09800  0.94523  1.0000 2.4117275002
Th  Th4       1.0  0.93088  0.90200  0.44523  1.0000 2.4117275002
Th  Th5       1.0  0.56912  0.40200  0.44523  1.0000 2.4117275002
Th  Th6       1.0  0.93088  0.59800  0.94523  1.0000 2.4117275002
Th  Th7       1.0  0.43088  0.90200  0.05477  1.0000 2.4117275002
Th  Th8       1.0  0.06912  0.09800  0.55477  1.0000 2.4117275002
Th  Th9       1.0  0.45300  0.54819  0.39889  1.0000 2.4117275002
Th  Th10      1.0  0.04700  0.45181  0.89889  1.0000 2.4117275002
Th  Th11      1.0  0.54700  0.04819  0.10111  1.0000 2.4117275002
Th  Th12      1.0  0.95300  0.95181  0.60111  1.0000 2.4117275002
Th  Th13      1.0  0.54700  0.45181  0.60111  1.0000 2.4117275002
Th  Th14      1.0  0.95300  0.54819  0.10111  1.0000 2.4117275002
Th  Th15      1.0  0.45300  0.95181  0.89889  1.0000 2.4117275002
Th  Th16      1.0  0.04700  0.04819  0.39889  1.0000 2.4117275002
Th  Th17      1.0  0.64543  0.56241  0.49495  1.0000 2.390017462
Th  Th18      1.0  0.85457  0.43759  0.99495  1.0000 2.390017462
Th  Th19      1.0  0.35457  0.06241  0.00505  1.0000 2.390017462
Th  Th20      1.0  0.14543  0.93759  0.50505  1.0000 2.390017462
Th  Th21      1.0  0.35457  0.43759  0.50505  1.0000 2.390017462
Th  Th22      1.0  0.14543  0.56241  0.00505  1.0000 2.390017462
Th  Th23      1.0  0.64543  0.93759  0.99495  1.0000 2.390017462
Th  Th24      1.0  0.85457  0.06241  0.49495  1.0000 2.390017462
H   H1        1.0  0.44120  0.56200  0.76660  1.0000 0.1495783844
H   H2        1.0  0.05880  0.43800  0.26660  1.0000 0.1495783844
H   H3        1.0  0.55880  0.06200  0.73340  1.0000 0.1495783844
H   H4        1.0  0.94120  0.93800  0.23340  1.0000 0.1495783844
H   H5        1.0  0.55880  0.43800  0.23340  1.0000 0.1495783844
H   H6        1.0  0.94120  0.56200  0.73340  1.0000 0.1495783844
H   H7        1.0  0.44120  0.93800  0.26660  1.0000 0.1495783844
H   H8        1.0  0.05880  0.06200  0.76660  1.0000 0.1495783844
H   H9        1.0  0.53160  0.58090  0.76010  1.0000 0.1495783844
H   H10       1.0  0.96840  0.41910  0.26010  1.0000 0.1495783844
H   H11       1.0  0.46840  0.08090  0.73990  1.0000 0.1495783844
H   H12       1.0  0.03160  0.91910  0.23990  1.0000 0.1495783844
H   H13       1.0  0.46840  0.41910  0.23990  1.0000 0.1495783844
H   H14       1.0  0.03160  0.58090  0.73990  1.0000 0.1495783844
H   H15       1.0  0.53160  0.91910  0.26010  1.0000 0.1495783844
H   H16       1.0  0.96840  0.08090  0.76010  1.0000 0.1495783844
H   H17       1.0  0.48500  0.67510  0.71910  1.0000 0.1126755644
H   H18       1.0  0.01500  0.32490  0.21910  1.0000 0.1126755644
H   H19       1.0  0.51500  0.17510  0.78090  1.0000 0.1126755644
H   H20       1.0  0.98500  0.82490  0.28090  1.0000 0.1126755644
H   H21       1.0  0.51500  0.32490  0.28090  1.0000 0.1126755644
H   H22       1.0  0.98500  0.67510  0.78090  1.0000 0.1126755644
H   H23       1.0  0.48500  0.82490  0.21910  1.0000 0.1126755644
H   H24       1.0  0.01500  0.17510  0.71910  1.0000 0.1126755644
H   H25       1.0  0.39890  0.65640  0.73960  1.0000 0.1126755644
H   H26       1.0  0.10110  0.34360  0.23960  1.0000 0.1126755644
H   H27       1.0  0.60110  0.15640  0.76040  1.0000 0.1126755644
H   H28       1.0  0.89890  0.84360  0.26040  1.0000 0.1126755644
H   H29       1.0  0.60110  0.34360  0.26040  1.0000 0.1126755644
H   H30       1.0  0.89890  0.65640  0.76040  1.0000 0.1126755644
H   H31       1.0  0.39890  0.84360  0.23960  1.0000 0.1126755644
H   H32       1.0  0.10110  0.15640  0.73960  1.0000 0.1126755644
H   H33       1.0  0.40260  0.71200  0.96510  1.0000 0.1175970252
H   H34       1.0  0.09740  0.28800  0.46510  1.0000 0.1175970252
H   H35       1.0  0.59740  0.21200  0.53490  1.0000 0.1175970252
H   H36       1.0  0.90260  0.78800  0.03490  1.0000 0.1175970252
H   H37       1.0  0.59740  0.28800  0.03490  1.0000 0.1175970252
H   H38       1.0  0.90260  0.71200  0.53490  1.0000 0.1175970252
H   H39       1.0  0.40260  0.78800  0.46510  1.0000 0.1175970252
H   H40       1.0  0.09740  0.21200  0.96510  1.0000 0.1175970252
H   H41       1.0  0.34710  0.67000  0.92870  1.0000 0.1175970252
H   H42       1.0  0.15290  0.33000  0.42870  1.0000 0.1175970252
H   H43       1.0  0.65290  0.17000  0.57130  1.0000 0.1175970252
H   H44       1.0  0.84710  0.83000  0.07130  1.0000 0.1175970252
H   H45       1.0  0.65290  0.33000  0.07130  1.0000 0.1175970252
H   H46       1.0  0.84710  0.67000  0.57130  1.0000 0.1175970252
H   H47       1.0  0.34710  0.83000  0.42870  1.0000 0.1175970252
H   H48       1.0  0.15290  0.17000  0.92870  1.0000 0.1175970252
H   H49       1.0  0.29720  0.76510  0.88860  1.0000 0.1582261272
H   H50       1.0  0.20280  0.23490  0.38860  1.0000 0.1582261272
H   H51       1.0  0.70280  0.26510  0.61140  1.0000 0.1582261272
H   H52       1.0  0.79720  0.73490  0.11140  1.0000 0.1582261272
H   H53       1.0  0.70280  0.23490  0.11140  1.0000 0.1582261272
H   H54       1.0  0.79720  0.76510  0.61140  1.0000 0.1582261272
H   H55       1.0  0.29720  0.73490  0.38860  1.0000 0.1582261272
H   H56       1.0  0.20280  0.26510  0.88860  1.0000 0.1582261272
H   H57       1.0  0.26970  0.75160  0.94930  1.0000 0.1495783844
H   H58       1.0  0.23030  0.24840  0.44930  1.0000 0.1495783844
H   H59       1.0  0.73030  0.25160  0.55070  1.0000 0.1495783844
H   H60       1.0  0.76970  0.74840  0.05070  1.0000 0.1495783844
H   H61       1.0  0.73030  0.24840  0.05070  1.0000 0.1495783844
H   H62       1.0  0.76970  0.75160  0.55070  1.0000 0.1495783844
H   H63       1.0  0.26970  0.74840  0.44930  1.0000 0.1495783844
H   H64       1.0  0.23030  0.25160  0.94930  1.0000 0.1495783844
H   H65       1.0  0.68230  0.72070  0.85480  1.0000 0.1175970252
H   H66       1.0  0.81770  0.27930  0.35480  1.0000 0.1175970252
H   H67       1.0  0.31770  0.22070  0.64520  1.0000 0.1175970252
H   H68       1.0  0.18230  0.77930  0.14520  1.0000 0.1175970252
H   H69       1.0  0.31770  0.27930  0.14520  1.0000 0.1175970252
H   H70       1.0  0.18230  0.72070  0.64520  1.0000 0.1175970252
H   H71       1.0  0.68230  0.77930  0.35480  1.0000 0.1175970252
H   H72       1.0  0.81770  0.22070  0.85480  1.0000 0.1175970252
H   H73       1.0  0.65140  0.75610  0.90720  1.0000 0.1175970252
H   H74       1.0  0.84860  0.24390  0.40720  1.0000 0.1175970252
H   H75       1.0  0.34860  0.25610  0.59280  1.0000 0.1175970252
H   H76       1.0  0.15140  0.74390  0.09280  1.0000 0.1175970252
H   H77       1.0  0.34860  0.24390  0.09280  1.0000 0.1175970252
H   H78       1.0  0.15140  0.75610  0.59280  1.0000 0.1175970252
H   H79       1.0  0.65140  0.74390  0.40720  1.0000 0.1175970252
H   H80       1.0  0.84860  0.25610  0.90720  1.0000 0.1175970252
H   H81       1.0  0.71450  0.81960  0.83610  1.0000 0.1495783844
H   H82       1.0  0.78550  0.18040  0.33610  1.0000 0.1495783844
H   H83       1.0  0.28550  0.31960  0.66390  1.0000 0.1495783844
H   H84       1.0  0.21450  0.68040  0.16390  1.0000 0.1495783844
H   H85       1.0  0.28550  0.18040  0.16390  1.0000 0.1495783844
H   H86       1.0  0.21450  0.81960  0.66390  1.0000 0.1495783844
H   H87       1.0  0.71450  0.68040  0.33610  1.0000 0.1495783844
H   H88       1.0  0.78550  0.31960  0.83610  1.0000 0.1495783844
H   H89       1.0  0.63440  0.81070  0.80290  1.0000 0.1495783844
H   H90       1.0  0.86560  0.18930  0.30290  1.0000 0.1495783844
H   H91       1.0  0.36560  0.31070  0.69710  1.0000 0.1495783844
H   H92       1.0  0.13440  0.68930  0.19710  1.0000 0.1495783844
H   H93       1.0  0.36560  0.18930  0.19710  1.0000 0.1495783844
H   H94       1.0  0.13440  0.81070  0.69710  1.0000 0.1495783844
H   H95       1.0  0.63440  0.68930  0.30290  1.0000 0.1495783844
H   H96       1.0  0.86560  0.31070  0.80290  1.0000 0.1495783844
H   H97       1.0  0.16610  0.54120  0.64150  1.0000 0.1582261272
H   H98       1.0  0.33390  0.45880  0.14150  1.0000 0.1582261272
H   H99       1.0  0.83390  0.04120  0.85850  1.0000 0.1582261272
H   H100      1.0  0.66610  0.95880  0.35850  1.0000 0.1582261272
H   H101      1.0  0.83390  0.45880  0.35850  1.0000 0.1582261272
H   H102      1.0  0.66610  0.54120  0.85850  1.0000 0.1582261272
H   H103      1.0  0.16610  0.95880  0.14150  1.0000 0.1582261272
H   H104      1.0  0.33390  0.04120  0.64150  1.0000 0.1582261272
H   H105      1.0  0.15410  0.60020  0.60470  1.0000 0.1495783844
H   H106      1.0  0.34590  0.39980  0.10470  1.0000 0.1495783844
H   H107      1.0  0.84590  0.10020  0.89530  1.0000 0.1495783844
H   H108      1.0  0.65410  0.89980  0.39530  1.0000 0.1495783844
H   H109      1.0  0.84590  0.39980  0.39530  1.0000 0.1495783844
H   H110      1.0  0.65410  0.60020  0.89530  1.0000 0.1495783844
H   H111      1.0  0.15410  0.89980  0.10470  1.0000 0.1495783844
H   H112      1.0  0.34590  0.10020  0.60470  1.0000 0.1495783844
H   H113      1.0  0.10220  0.48060  0.57710  1.0000 0.1175970252
H   H114      1.0  0.39780  0.51940  0.07710  1.0000 0.1175970252
H   H115      1.0  0.89780  0.98060  0.92290  1.0000 0.1175970252
H   H116      1.0  0.60220  0.01940  0.42290  1.0000 0.1175970252
H   H117      1.0  0.89780  0.51940  0.42290  1.0000 0.1175970252
H   H118      1.0  0.60220  0.48060  0.92290  1.0000 0.1175970252
H   H119      1.0  0.10220  0.01940  0.07710  1.0000 0.1175970252
H   H120      1.0  0.39780  0.98060  0.57710  1.0000 0.1175970252
H   H121      1.0  0.04580  0.53500  0.59570  1.0000 0.0936792191
H   H122      1.0  0.45420  0.46500  0.09570  1.0000 0.0936792191
H   H123      1.0  0.95420  0.03500  0.90430  1.0000 0.0936792191
H   H124      1.0  0.54580  0.96500  0.40430  1.0000 0.0936792191
H   H125      1.0  0.95420  0.46500  0.40430  1.0000 0.0936792191
H   H126      1.0  0.54580  0.53500  0.90430  1.0000 0.0936792191
H   H127      1.0  0.04580  0.96500  0.09570  1.0000 0.0936792191
H   H128      1.0  0.45420  0.03500  0.59570  1.0000 0.0936792191
H   H129      1.0  0.06950  0.48910  0.35420  1.0000 0.0936792191
H   H130      1.0  0.43050  0.51090  0.85420  1.0000 0.0936792191
H   H131      1.0  0.93050  0.98910  0.14580  1.0000 0.0936792191
H   H132      1.0  0.56950  0.01090  0.64580  1.0000 0.0936792191
H   H133      1.0  0.93050  0.51090  0.64580  1.0000 0.0936792191
H   H134      1.0  0.56950  0.48910  0.14580  1.0000 0.0936792191
H   H135      1.0  0.06950  0.01090  0.85420  1.0000 0.0936792191
H   H136      1.0  0.43050  0.98910  0.35420  1.0000 0.0936792191
H   H137      1.0  0.11100  0.44180  0.39430  1.0000 0.1126755644
H   H138      1.0  0.38900  0.55820  0.89430  1.0000 0.1126755644
H   H139      1.0  0.88900  0.94180  0.10570  1.0000 0.1126755644
H   H140      1.0  0.61100  0.05820  0.60570  1.0000 0.1126755644
H   H141      1.0  0.88900  0.55820  0.60570  1.0000 0.1126755644
H   H142      1.0  0.61100  0.44180  0.10570  1.0000 0.1126755644
H   H143      1.0  0.11100  0.05820  0.89430  1.0000 0.1126755644
H   H144      1.0  0.38900  0.94180  0.39430  1.0000 0.1126755644
H   H145      1.0  0.19520  0.46880  0.32300  1.0000 0.1582261272
H   H146      1.0  0.30480  0.53120  0.82300  1.0000 0.1582261272
H   H147      1.0  0.80480  0.96880  0.17700  1.0000 0.1582261272
H   H148      1.0  0.69520  0.03120  0.67700  1.0000 0.1582261272
H   H149      1.0  0.80480  0.53120  0.67700  1.0000 0.1582261272
H   H150      1.0  0.69520  0.46880  0.17700  1.0000 0.1582261272
H   H151      1.0  0.19520  0.03120  0.82300  1.0000 0.1582261272
H   H152      1.0  0.30480  0.96880  0.32300  1.0000 0.1582261272
H   H153      1.0  0.18940  0.53870  0.34000  1.0000 0.1495783844
H   H154      1.0  0.31060  0.46130  0.84000  1.0000 0.1495783844
H   H155      1.0  0.81060  0.03870  0.16000  1.0000 0.1495783844
H   H156      1.0  0.68940  0.96130  0.66000  1.0000 0.1495783844
H   H157      1.0  0.81060  0.46130  0.66000  1.0000 0.1495783844
H   H158      1.0  0.68940  0.53870  0.16000  1.0000 0.1495783844
H   H159      1.0  0.18940  0.96130  0.84000  1.0000 0.1495783844
H   H160      1.0  0.31060  0.03870  0.34000  1.0000 0.1495783844
H   H161      1.0  0.99630  0.69980  0.47320  1.0000 0.1126755644
H   H162      1.0  0.50370  0.30020  0.97320  1.0000 0.1126755644
H   H163      1.0  0.00370  0.19980  0.02680  1.0000 0.1126755644
H   H164      1.0  0.49630  0.80020  0.52680  1.0000 0.1126755644
H   H165      1.0  0.00370  0.30020  0.52680  1.0000 0.1126755644
H   H166      1.0  0.49630  0.69980  0.02680  1.0000 0.1126755644
H   H167      1.0  0.99630  0.80020  0.97320  1.0000 0.1126755644
H   H168      1.0  0.50370  0.19980  0.47320  1.0000 0.1126755644
H   H169      1.0  0.01390  0.69050  0.41030  1.0000 0.1126755644
H   H170      1.0  0.48610  0.30950  0.91030  1.0000 0.1126755644
H   H171      1.0  0.98610  0.19050  0.08970  1.0000 0.1126755644
H   H172      1.0  0.51390  0.80950  0.58970  1.0000 0.1126755644
H   H173      1.0  0.98610  0.30950  0.58970  1.0000 0.1126755644
H   H174      1.0  0.51390  0.69050  0.08970  1.0000 0.1126755644
H   H175      1.0  0.01390  0.80950  0.91030  1.0000 0.1126755644
H   H176      1.0  0.48610  0.19050  0.41030  1.0000 0.1126755644
H   H177      1.0  0.14250  0.72180  0.42050  1.0000 0.1495783844
H   H178      1.0  0.35750  0.27820  0.92050  1.0000 0.1495783844
H   H179      1.0  0.85750  0.22180  0.07950  1.0000 0.1495783844
H   H180      1.0  0.64250  0.77820  0.57950  1.0000 0.1495783844
H   H181      1.0  0.85750  0.27820  0.57950  1.0000 0.1495783844
H   H182      1.0  0.64250  0.72180  0.07950  1.0000 0.1495783844
H   H183      1.0  0.14250  0.77820  0.92050  1.0000 0.1495783844
H   H184      1.0  0.35750  0.22180  0.42050  1.0000 0.1495783844
H   H185      1.0  0.13550  0.72040  0.48480  1.0000 0.1495783844
H   H186      1.0  0.36450  0.27960  0.98480  1.0000 0.1495783844
H   H187      1.0  0.86450  0.22040  0.01520  1.0000 0.1495783844
H   H188      1.0  0.63550  0.77960  0.51520  1.0000 0.1495783844
H   H189      1.0  0.86450  0.27960  0.51520  1.0000 0.1495783844
H   H190      1.0  0.63550  0.72040  0.01520  1.0000 0.1495783844
H   H191      1.0  0.13550  0.77960  0.98480  1.0000 0.1495783844
H   H192      1.0  0.36450  0.22040  0.48480  1.0000 0.1495783844
C   C1        1.0  0.47830  0.56200  0.68770  1.0000 0.6990516904
C   C2        1.0  0.02170  0.43800  0.18770  1.0000 0.6990516904
C   C3        1.0  0.52170  0.06200  0.81230  1.0000 0.6990516904
C   C4        1.0  0.97830  0.93800  0.31230  1.0000 0.6990516904
C   C5        1.0  0.52170  0.43800  0.31230  1.0000 0.6990516904
C   C6        1.0  0.97830  0.56200  0.81230  1.0000 0.6990516904
C   C7        1.0  0.47830  0.93800  0.18770  1.0000 0.6990516904
C   C8        1.0  0.02170  0.06200  0.68770  1.0000 0.6990516904
C   C9        1.0  0.47850  0.58610  0.74450  1.0000 -0.3471922839
C   C10       1.0  0.02150  0.41390  0.24450  1.0000 -0.3471922839
C   C11       1.0  0.52150  0.08610  0.75550  1.0000 -0.3471922839
C   C12       1.0  0.97850  0.91390  0.25550  1.0000 -0.3471922839
C   C13       1.0  0.52150  0.41390  0.25550  1.0000 -0.3471922839
C   C14       1.0  0.97850  0.58610  0.75550  1.0000 -0.3471922839
C   C15       1.0  0.47850  0.91390  0.24450  1.0000 -0.3471922839
C   C16       1.0  0.02150  0.08610  0.74450  1.0000 -0.3471922839
C   C17       1.0  0.45580  0.65210  0.74710  1.0000 -0.030905325
C   C18       1.0  0.04420  0.34790  0.24710  1.0000 -0.030905325
C   C19       1.0  0.54420  0.15210  0.75290  1.0000 -0.030905325
C   C20       1.0  0.95580  0.84790  0.25290  1.0000 -0.030905325
C   C21       1.0  0.54420  0.34790  0.25290  1.0000 -0.030905325
C   C22       1.0  0.95580  0.65210  0.75290  1.0000 -0.030905325
C   C23       1.0  0.45580  0.84790  0.24710  1.0000 -0.030905325
C   C24       1.0  0.04420  0.15210  0.74710  1.0000 -0.030905325
C   C25       1.0  0.41530  0.68050  0.83980  1.0000 0.539202734
C   C26       1.0  0.08470  0.31950  0.33980  1.0000 0.539202734
C   C27       1.0  0.58470  0.18050  0.66020  1.0000 0.539202734
C   C28       1.0  0.91530  0.81950  0.16020  1.0000 0.539202734
C   C29       1.0  0.58470  0.31950  0.16020  1.0000 0.539202734
C   C30       1.0  0.91530  0.68050  0.66020  1.0000 0.539202734
C   C31       1.0  0.41530  0.81950  0.33980  1.0000 0.539202734
C   C32       1.0  0.08470  0.18050  0.83980  1.0000 0.539202734
C   C33       1.0  0.37530  0.70940  0.92990  1.0000 -0.030905325
C   C34       1.0  0.12470  0.29060  0.42990  1.0000 -0.030905325
C   C35       1.0  0.62470  0.20940  0.57010  1.0000 -0.030905325
C   C36       1.0  0.87530  0.79060  0.07010  1.0000 -0.030905325
C   C37       1.0  0.62470  0.29060  0.07010  1.0000 -0.030905325
C   C38       1.0  0.87530  0.70940  0.57010  1.0000 -0.030905325
C   C39       1.0  0.37530  0.79060  0.42990  1.0000 -0.030905325
C   C40       1.0  0.12470  0.20940  0.92990  1.0000 -0.030905325
C   C41       1.0  0.31570  0.76080  0.92620  1.0000 -0.3471922839
C   C42       1.0  0.18430  0.23920  0.42620  1.0000 -0.3471922839
C   C43       1.0  0.68430  0.26080  0.57380  1.0000 -0.3471922839
C   C44       1.0  0.81570  0.73920  0.07380  1.0000 -0.3471922839
C   C45       1.0  0.68430  0.23920  0.07380  1.0000 -0.3471922839
C   C46       1.0  0.81570  0.76080  0.57380  1.0000 -0.3471922839
C   C47       1.0  0.31570  0.73920  0.42620  1.0000 -0.3471922839
C   C48       1.0  0.18430  0.26080  0.92620  1.0000 -0.3471922839
C   C49       1.0  0.35400  0.81930  0.94460  1.0000 0.6990516904
C   C50       1.0  0.14600  0.18070  0.44460  1.0000 0.6990516904
C   C51       1.0  0.64600  0.31930  0.55540  1.0000 0.6990516904
C   C52       1.0  0.85400  0.68070  0.05540  1.0000 0.6990516904
C   C53       1.0  0.64600  0.18070  0.05540  1.0000 0.6990516904
C   C54       1.0  0.85400  0.81930  0.55540  1.0000 0.6990516904
C   C55       1.0  0.35400  0.68070  0.44460  1.0000 0.6990516904
C   C56       1.0  0.14600  0.31930  0.94460  1.0000 0.6990516904
C   C57       1.0  0.50500  0.73840  0.89580  1.0000 0.548651931
C   C58       1.0  0.99500  0.26160  0.39580  1.0000 0.548651931
C   C59       1.0  0.49500  0.23840  0.60420  1.0000 0.548651931
C   C60       1.0  0.00500  0.76160  0.10420  1.0000 0.548651931
C   C61       1.0  0.49500  0.26160  0.10420  1.0000 0.548651931
C   C62       1.0  0.00500  0.73840  0.60420  1.0000 0.548651931
C   C63       1.0  0.50500  0.76160  0.39580  1.0000 0.548651931
C   C64       1.0  0.99500  0.23840  0.89580  1.0000 0.548651931
C   C65       1.0  0.64360  0.75100  0.86790  1.0000 -0.030905325
C   C66       1.0  0.85640  0.24900  0.36790  1.0000 -0.030905325
C   C67       1.0  0.35640  0.25100  0.63210  1.0000 -0.030905325
C   C68       1.0  0.14360  0.74900  0.13210  1.0000 -0.030905325
C   C69       1.0  0.35640  0.24900  0.13210  1.0000 -0.030905325
C   C70       1.0  0.14360  0.75100  0.63210  1.0000 -0.030905325
C   C71       1.0  0.64360  0.74900  0.36790  1.0000 -0.030905325
C   C72       1.0  0.85640  0.25100  0.86790  1.0000 -0.030905325
C   C73       1.0  0.65740  0.81200  0.83950  1.0000 -0.3335364712
C   C74       1.0  0.84260  0.18800  0.33950  1.0000 -0.3335364712
C   C75       1.0  0.34260  0.31200  0.66050  1.0000 -0.3335364712
C   C76       1.0  0.15740  0.68800  0.16050  1.0000 -0.3335364712
C   C77       1.0  0.34260  0.18800  0.16050  1.0000 -0.3335364712
C   C78       1.0  0.15740  0.81200  0.66050  1.0000 -0.3335364712
C   C79       1.0  0.65740  0.68800  0.33950  1.0000 -0.3335364712
C   C80       1.0  0.84260  0.31200  0.83950  1.0000 -0.3335364712
C   C81       1.0  0.61970  0.86260  0.87170  1.0000 0.6990516904
C   C82       1.0  0.88030  0.13740  0.37170  1.0000 0.6990516904
C   C83       1.0  0.38030  0.36260  0.62830  1.0000 0.6990516904
C   C84       1.0  0.11970  0.63740  0.12830  1.0000 0.6990516904
C   C85       1.0  0.38030  0.13740  0.12830  1.0000 0.6990516904
C   C86       1.0  0.11970  0.86260  0.62830  1.0000 0.6990516904
C   C87       1.0  0.61970  0.63740  0.37170  1.0000 0.6990516904
C   C88       1.0  0.88030  0.36260  0.87170  1.0000 0.6990516904
C   C89       1.0  0.54850  0.69860  0.80950  1.0000 0.539202734
C   C90       1.0  0.95150  0.30140  0.30950  1.0000 0.539202734
C   C91       1.0  0.45150  0.19860  0.69050  1.0000 0.539202734
C   C92       1.0  0.04850  0.80140  0.19050  1.0000 0.539202734
C   C93       1.0  0.45150  0.30140  0.19050  1.0000 0.539202734
C   C94       1.0  0.04850  0.69860  0.69050  1.0000 0.539202734
C   C95       1.0  0.54850  0.80140  0.30950  1.0000 0.539202734
C   C96       1.0  0.95150  0.19860  0.80950  1.0000 0.539202734
C   C97       1.0  0.24150  0.54360  0.57650  1.0000 0.6887968304
C   C98       1.0  0.25850  0.45640  0.07650  1.0000 0.6887968304
C   C99       1.0  0.75850  0.04360  0.92350  1.0000 0.6887968304
C   C100      1.0  0.74150  0.95640  0.42350  1.0000 0.6887968304
C   C101      1.0  0.75850  0.45640  0.42350  1.0000 0.6887968304
C   C102      1.0  0.74150  0.54360  0.92350  1.0000 0.6887968304
C   C103      1.0  0.24150  0.95640  0.07650  1.0000 0.6887968304
C   C104      1.0  0.25850  0.04360  0.57650  1.0000 0.6887968304
C   C105      1.0  0.16340  0.55570  0.60380  1.0000 -0.3424923596
C   C106      1.0  0.33660  0.44430  0.10380  1.0000 -0.3424923596
C   C107      1.0  0.83660  0.05570  0.89620  1.0000 -0.3424923596
C   C108      1.0  0.66340  0.94430  0.39620  1.0000 -0.3424923596
C   C109      1.0  0.83660  0.44430  0.39620  1.0000 -0.3424923596
C   C110      1.0  0.66340  0.55570  0.89620  1.0000 -0.3424923596
C   C111      1.0  0.16340  0.94430  0.10380  1.0000 -0.3424923596
C   C112      1.0  0.33660  0.05570  0.60380  1.0000 -0.3424923596
C   C113      1.0  0.09490  0.52530  0.57610  1.0000 -0.030905325
C   C114      1.0  0.40510  0.47470  0.07610  1.0000 -0.030905325
C   C115      1.0  0.90510  0.02530  0.92390  1.0000 -0.030905325
C   C116      1.0  0.59490  0.97470  0.42390  1.0000 -0.030905325
C   C117      1.0  0.90510  0.47470  0.42390  1.0000 -0.030905325
C   C118      1.0  0.59490  0.52530  0.92390  1.0000 -0.030905325
C   C119      1.0  0.09490  0.97470  0.07610  1.0000 -0.030905325
C   C120      1.0  0.40510  0.02530  0.57610  1.0000 -0.030905325
C   C121      1.0  0.09430  0.50300  0.47810  1.0000 0.539202734
C   C122      1.0  0.40570  0.49700  0.97810  1.0000 0.539202734
C   C123      1.0  0.90570  0.00300  0.02190  1.0000 0.539202734
C   C124      1.0  0.59430  0.99700  0.52190  1.0000 0.539202734
C   C125      1.0  0.90570  0.49700  0.52190  1.0000 0.539202734
C   C126      1.0  0.59430  0.50300  0.02190  1.0000 0.539202734
C   C127      1.0  0.09430  0.99700  0.97810  1.0000 0.539202734
C   C128      1.0  0.40570  0.00300  0.47810  1.0000 0.539202734
C   C129      1.0  0.11200  0.48440  0.38110  1.0000 -0.0402040343
C   C130      1.0  0.38800  0.51560  0.88110  1.0000 -0.0402040343
C   C131      1.0  0.88800  0.98440  0.11890  1.0000 -0.0402040343
C   C132      1.0  0.61200  0.01560  0.61890  1.0000 -0.0402040343
C   C133      1.0  0.88800  0.51560  0.61890  1.0000 -0.0402040343
C   C134      1.0  0.61200  0.48440  0.11890  1.0000 -0.0402040343
C   C135      1.0  0.11200  0.01560  0.88110  1.0000 -0.0402040343
C   C136      1.0  0.38800  0.98440  0.38110  1.0000 -0.0402040343
C   C137      1.0  0.19040  0.49660  0.35430  1.0000 -0.3471922839
C   C138      1.0  0.30960  0.50340  0.85430  1.0000 -0.3471922839
C   C139      1.0  0.80960  0.99660  0.14570  1.0000 -0.3471922839
C   C140      1.0  0.69040  0.00340  0.64570  1.0000 -0.3471922839
C   C141      1.0  0.80960  0.50340  0.64570  1.0000 -0.3471922839
C   C142      1.0  0.69040  0.49660  0.14570  1.0000 -0.3471922839
C   C143      1.0  0.19040  0.00340  0.85430  1.0000 -0.3471922839
C   C144      1.0  0.30960  0.99660  0.35430  1.0000 -0.3471922839
C   C145      1.0  0.26280  0.48990  0.38790  1.0000 0.6990516904
C   C146      1.0  0.23720  0.51010  0.88790  1.0000 0.6990516904
C   C147      1.0  0.73720  0.98990  0.11210  1.0000 0.6990516904
C   C148      1.0  0.76280  0.01010  0.61210  1.0000 0.6990516904
C   C149      1.0  0.73720  0.51010  0.61210  1.0000 0.6990516904
C   C150      1.0  0.76280  0.48990  0.11210  1.0000 0.6990516904
C   C151      1.0  0.26280  0.01010  0.88790  1.0000 0.6990516904
C   C152      1.0  0.23720  0.98990  0.38790  1.0000 0.6990516904
C   C153      1.0  0.07930  0.58610  0.41340  1.0000 0.5343327644
C   C154      1.0  0.42070  0.41390  0.91340  1.0000 0.5343327644
C   C155      1.0  0.92070  0.08610  0.08660  1.0000 0.5343327644
C   C156      1.0  0.57930  0.91390  0.58660  1.0000 0.5343327644
C   C157      1.0  0.92070  0.41390  0.58660  1.0000 0.5343327644
C   C158      1.0  0.57930  0.58610  0.08660  1.0000 0.5343327644
C   C159      1.0  0.07930  0.91390  0.91340  1.0000 0.5343327644
C   C160      1.0  0.42070  0.08610  0.41340  1.0000 0.5343327644
C   C161      1.0  0.03700  0.68750  0.44680  1.0000 -0.0402040343
C   C162      1.0  0.46300  0.31250  0.94680  1.0000 -0.0402040343
C   C163      1.0  0.96300  0.18750  0.05320  1.0000 -0.0402040343
C   C164      1.0  0.53700  0.81250  0.55320  1.0000 -0.0402040343
C   C165      1.0  0.96300  0.31250  0.55320  1.0000 -0.0402040343
C   C166      1.0  0.53700  0.68750  0.05320  1.0000 -0.0402040343
C   C167      1.0  0.03700  0.81250  0.94680  1.0000 -0.0402040343
C   C168      1.0  0.46300  0.18750  0.44680  1.0000 -0.0402040343
C   C169      1.0  0.10660  0.72960  0.45110  1.0000 -0.3424923596
C   C170      1.0  0.39340  0.27040  0.95110  1.0000 -0.3424923596
C   C171      1.0  0.89340  0.22960  0.04890  1.0000 -0.3424923596
C   C172      1.0  0.60660  0.77040  0.54890  1.0000 -0.3424923596
C   C173      1.0  0.89340  0.27040  0.54890  1.0000 -0.3424923596
C   C174      1.0  0.60660  0.72960  0.04890  1.0000 -0.3424923596
C   C175      1.0  0.10660  0.77040  0.95110  1.0000 -0.3424923596
C   C176      1.0  0.39340  0.22960  0.45110  1.0000 -0.3424923596
C   C177      1.0  0.08330  0.79700  0.45110  1.0000 0.6990516904
C   C178      1.0  0.41670  0.20300  0.95110  1.0000 0.6990516904
C   C179      1.0  0.91670  0.29700  0.04890  1.0000 0.6990516904
C   C180      1.0  0.58330  0.70300  0.54890  1.0000 0.6990516904
C   C181      1.0  0.91670  0.20300  0.54890  1.0000 0.6990516904
C   C182      1.0  0.58330  0.79700  0.04890  1.0000 0.6990516904
C   C183      1.0  0.08330  0.70300  0.95110  1.0000 0.6990516904
C   C184      1.0  0.41670  0.29700  0.45110  1.0000 0.6990516904
C   C185      1.0  0.06530  0.60520  0.51060  1.0000 0.539202734
C   C186      1.0  0.43470  0.39480  0.01060  1.0000 0.539202734
C   C187      1.0  0.93470  0.10520  0.98940  1.0000 0.539202734
C   C188      1.0  0.56530  0.89480  0.48940  1.0000 0.539202734
C   C189      1.0  0.93470  0.39480  0.48940  1.0000 0.539202734
C   C190      1.0  0.56530  0.60520  0.98940  1.0000 0.539202734
C   C191      1.0  0.06530  0.89480  0.01060  1.0000 0.539202734
C   C192      1.0  0.43470  0.10520  0.51060  1.0000 0.539202734
N   N1        1.0  0.47390  0.67820  0.80150  1.0000 -0.2492426959
N   N2        1.0  0.02610  0.32180  0.30150  1.0000 -0.2492426959
N   N3        1.0  0.52610  0.17820  0.69850  1.0000 -0.2492426959
N   N4        1.0  0.97390  0.82180  0.19850  1.0000 -0.2492426959
N   N5        1.0  0.52610  0.32180  0.19850  1.0000 -0.2492426959
N   N6        1.0  0.97390  0.67820  0.69850  1.0000 -0.2492426959
N   N7        1.0  0.47390  0.82180  0.30150  1.0000 -0.2492426959
N   N8        1.0  0.02610  0.17820  0.80150  1.0000 -0.2492426959
N   N9        1.0  0.43440  0.71060  0.88650  1.0000 -0.2315016857
N   N10       1.0  0.06560  0.28940  0.38650  1.0000 -0.2315016857
N   N11       1.0  0.56560  0.21060  0.61350  1.0000 -0.2315016857
N   N12       1.0  0.93440  0.78940  0.11350  1.0000 -0.2315016857
N   N13       1.0  0.56560  0.28940  0.11350  1.0000 -0.2315016857
N   N14       1.0  0.93440  0.71060  0.61350  1.0000 -0.2315016857
N   N15       1.0  0.43440  0.78940  0.38650  1.0000 -0.2315016857
N   N16       1.0  0.06560  0.21060  0.88650  1.0000 -0.2315016857
N   N17       1.0  0.56230  0.72810  0.85740  1.0000 -0.2359952358
N   N18       1.0  0.93770  0.27190  0.35740  1.0000 -0.2359952358
N   N19       1.0  0.43770  0.22810  0.64260  1.0000 -0.2359952358
N   N20       1.0  0.06230  0.77190  0.14260  1.0000 -0.2359952358
N   N21       1.0  0.43770  0.27190  0.14260  1.0000 -0.2359952358
N   N22       1.0  0.06230  0.72810  0.64260  1.0000 -0.2359952358
N   N23       1.0  0.56230  0.77190  0.35740  1.0000 -0.2359952358
N   N24       1.0  0.93770  0.22810  0.85740  1.0000 -0.2359952358
N   N25       1.0  0.08750  0.54530  0.51960  1.0000 -0.2315016857
N   N26       1.0  0.41250  0.45470  0.01960  1.0000 -0.2315016857
N   N27       1.0  0.91250  0.04530  0.98040  1.0000 -0.2315016857
N   N28       1.0  0.58750  0.95470  0.48040  1.0000 -0.2315016857
N   N29       1.0  0.91250  0.45470  0.48040  1.0000 -0.2315016857
N   N30       1.0  0.58750  0.54530  0.98040  1.0000 -0.2315016857
N   N31       1.0  0.08750  0.95470  0.01960  1.0000 -0.2315016857
N   N32       1.0  0.41250  0.04530  0.51960  1.0000 -0.2315016857
N   N33       1.0  0.09690  0.52600  0.42690  1.0000 -0.2359952358
N   N34       1.0  0.40310  0.47400  0.92690  1.0000 -0.2359952358
N   N35       1.0  0.90310  0.02600  0.07310  1.0000 -0.2359952358
N   N36       1.0  0.59690  0.97400  0.57310  1.0000 -0.2359952358
N   N37       1.0  0.90310  0.47400  0.57310  1.0000 -0.2359952358
N   N38       1.0  0.59690  0.52600  0.07310  1.0000 -0.2359952358
N   N39       1.0  0.09690  0.97400  0.92690  1.0000 -0.2359952358
N   N40       1.0  0.40310  0.02600  0.42690  1.0000 -0.2359952358
N   N41       1.0  0.06140  0.62330  0.45740  1.0000 -0.2315016857
N   N42       1.0  0.43860  0.37670  0.95740  1.0000 -0.2315016857
N   N43       1.0  0.93860  0.12330  0.04260  1.0000 -0.2315016857
N   N44       1.0  0.56140  0.87670  0.54260  1.0000 -0.2315016857
N   N45       1.0  0.93860  0.37670  0.54260  1.0000 -0.2315016857
N   N46       1.0  0.56140  0.62330  0.04260  1.0000 -0.2315016857
N   N47       1.0  0.06140  0.87670  0.95740  1.0000 -0.2315016857
N   N48       1.0  0.43860  0.12330  0.45740  1.0000 -0.2315016857
O   O1        1.0  0.44690  0.59620  0.65270  1.0000 -0.5993899358
O   O2        1.0  0.05310  0.40380  0.15270  1.0000 -0.5993899358
O   O3        1.0  0.55310  0.09620  0.84730  1.0000 -0.5993899358
O   O4        1.0  0.94690  0.90380  0.34730  1.0000 -0.5993899358
O   O5        1.0  0.55310  0.40380  0.34730  1.0000 -0.5993899358
O   O6        1.0  0.94690  0.59620  0.84730  1.0000 -0.5993899358
O   O7        1.0  0.44690  0.90380  0.15270  1.0000 -0.5993899358
O   O8        1.0  0.05310  0.09620  0.65270  1.0000 -0.5993899358
O   O9        1.0  0.50790  0.51130  0.67960  1.0000 -0.5750411031
O   O10       1.0  0.99210  0.48870  0.17960  1.0000 -0.5692295211
O   O11       1.0  0.49210  0.01130  0.82040  1.0000 -0.5692295211
O   O12       1.0  0.00790  0.98870  0.32040  1.0000 -0.5750411031
O   O13       1.0  0.49210  0.48870  0.32040  1.0000 -0.5692295211
O   O14       1.0  0.00790  0.51130  0.82040  1.0000 -0.5750411031
O   O15       1.0  0.50790  0.98870  0.17960  1.0000 -0.5750411031
O   O16       1.0  0.99210  0.01130  0.67960  1.0000 -0.5692295211
O   O17       1.0  0.36210  0.82730  0.99600  1.0000 -0.6361109567
O   O18       1.0  0.13790  0.17270  0.49600  1.0000 -0.6361109567
O   O19       1.0  0.63790  0.32730  0.50400  1.0000 -0.6361109567
O   O20       1.0  0.86210  0.67270  0.00400  1.0000 -0.6361109567
O   O21       1.0  0.63790  0.17270  0.00400  1.0000 -0.6361109567
O   O22       1.0  0.86210  0.82730  0.50400  1.0000 -0.6361109567
O   O23       1.0  0.36210  0.67270  0.49600  1.0000 -0.6361109567
O   O24       1.0  0.13790  0.32730  0.99600  1.0000 -0.6361109567
O   O25       1.0  0.37750  0.85560  0.90790  1.0000 -0.5993899358
O   O26       1.0  0.12250  0.14440  0.40790  1.0000 -0.5993899358
O   O27       1.0  0.62250  0.35560  0.59210  1.0000 -0.5993899358
O   O28       1.0  0.87750  0.64440  0.09210  1.0000 -0.5993899358
O   O29       1.0  0.62250  0.14440  0.09210  1.0000 -0.5993899358
O   O30       1.0  0.87750  0.85560  0.59210  1.0000 -0.5993899358
O   O31       1.0  0.37750  0.64440  0.40790  1.0000 -0.5993899358
O   O32       1.0  0.12250  0.35560  0.90790  1.0000 -0.5993899358
O   O33       1.0  0.65800  0.87890  0.91310  1.0000 -0.610962714
O   O34       1.0  0.84200  0.12110  0.41310  1.0000 -0.610962714
O   O35       1.0  0.34200  0.37890  0.58690  1.0000 -0.610962714
O   O36       1.0  0.15800  0.62110  0.08690  1.0000 -0.610962714
O   O37       1.0  0.34200  0.12110  0.08690  1.0000 -0.610962714
O   O38       1.0  0.15800  0.87890  0.58690  1.0000 -0.610962714
O   O39       1.0  0.65800  0.62110  0.41310  1.0000 -0.610962714
O   O40       1.0  0.84200  0.37890  0.91310  1.0000 -0.610962714
O   O41       1.0  0.55360  0.88300  0.85810  1.0000 -0.5993899358
O   O42       1.0  0.94640  0.11700  0.35810  1.0000 -0.5993899358
O   O43       1.0  0.44640  0.38300  0.64190  1.0000 -0.5993899358
O   O44       1.0  0.05360  0.61700  0.14190  1.0000 -0.5993899358
O   O45       1.0  0.44640  0.11700  0.14190  1.0000 -0.5993899358
O   O46       1.0  0.05360  0.88300  0.64190  1.0000 -0.5993899358
O   O47       1.0  0.55360  0.61700  0.35810  1.0000 -0.5993899358
O   O48       1.0  0.94640  0.38300  0.85810  1.0000 -0.5993899358
O   O49       1.0  0.35130  0.65660  0.83280  1.0000 -0.4646224308
O   O50       1.0  0.14870  0.34340  0.33280  1.0000 -0.4646224308
O   O51       1.0  0.64870  0.15660  0.66720  1.0000 -0.4646224308
O   O52       1.0  0.85130  0.84340  0.16720  1.0000 -0.4646224308
O   O53       1.0  0.64870  0.34340  0.16720  1.0000 -0.4646224308
O   O54       1.0  0.85130  0.65660  0.66720  1.0000 -0.4646224308
O   O55       1.0  0.35130  0.84340  0.33280  1.0000 -0.4646224308
O   O56       1.0  0.14870  0.15660  0.83280  1.0000 -0.4646224308
O   O57       1.0  0.51840  0.76910  0.93610  1.0000 -0.4080345807
O   O58       1.0  0.98160  0.23090  0.43610  1.0000 -0.4080345807
O   O59       1.0  0.48160  0.26910  0.56390  1.0000 -0.4080345807
O   O60       1.0  0.01840  0.73090  0.06390  1.0000 -0.4080345807
O   O61       1.0  0.48160  0.23090  0.06390  1.0000 -0.4080345807
O   O62       1.0  0.01840  0.76910  0.56390  1.0000 -0.4080345807
O   O63       1.0  0.51840  0.73090  0.43610  1.0000 -0.4080345807
O   O64       1.0  0.98160  0.26910  0.93610  1.0000 -0.4080345807
O   O65       1.0  0.60000  0.69260  0.77600  1.0000 -0.4528863588
O   O66       1.0  0.90000  0.30740  0.27600  1.0000 -0.4528863588
O   O67       1.0  0.40000  0.19260  0.72400  1.0000 -0.4528863588
O   O68       1.0  0.10000  0.80740  0.22400  1.0000 -0.4528863588
O   O69       1.0  0.40000  0.30740  0.22400  1.0000 -0.4528863588
O   O70       1.0  0.10000  0.69260  0.72400  1.0000 -0.4528863588
O   O71       1.0  0.60000  0.80740  0.27600  1.0000 -0.4528863588
O   O72       1.0  0.90000  0.19260  0.77600  1.0000 -0.4528863588
O   O73       1.0  0.29500  0.58330  0.58350  1.0000 -0.610962714
O   O74       1.0  0.20500  0.41670  0.08350  1.0000 -0.610962714
O   O75       1.0  0.70500  0.08330  0.91650  1.0000 -0.610962714
O   O76       1.0  0.79500  0.91670  0.41650  1.0000 -0.610962714
O   O77       1.0  0.70500  0.41670  0.41650  1.0000 -0.610962714
O   O78       1.0  0.79500  0.58330  0.91650  1.0000 -0.610962714
O   O79       1.0  0.29500  0.91670  0.08350  1.0000 -0.610962714
O   O80       1.0  0.20500  0.08330  0.58350  1.0000 -0.610962714
O   O81       1.0  0.24880  0.49660  0.54970  1.0000 -0.5692295211
O   O82       1.0  0.25120  0.50340  0.04970  1.0000 -0.5692295211
O   O83       1.0  0.75120  0.99660  0.95030  1.0000 -0.5692295211
O   O84       1.0  0.74880  0.00340  0.45030  1.0000 -0.5692295211
O   O85       1.0  0.75120  0.50340  0.45030  1.0000 -0.5692295211
O   O86       1.0  0.74880  0.49660  0.95030  1.0000 -0.5692295211
O   O87       1.0  0.24880  0.00340  0.04970  1.0000 -0.5692295211
O   O88       1.0  0.25120  0.99660  0.54970  1.0000 -0.5692295211
O   O89       1.0  0.32350  0.51470  0.37020  1.0000 -0.5993899358
O   O90       1.0  0.17650  0.48530  0.87020  1.0000 -0.5993899358
O   O91       1.0  0.67650  0.01470  0.12980  1.0000 -0.5993899358
O   O92       1.0  0.82350  0.98530  0.62980  1.0000 -0.5993899358
O   O93       1.0  0.67650  0.48530  0.62980  1.0000 -0.5993899358
O   O94       1.0  0.82350  0.51470  0.12980  1.0000 -0.5993899358
O   O95       1.0  0.32350  0.98530  0.87020  1.0000 -0.5993899358
O   O96       1.0  0.17650  0.01470  0.37020  1.0000 -0.5993899358
O   O97       1.0  0.25940  0.45970  0.43090  1.0000 -0.5993899358
O   O98       1.0  0.24060  0.54030  0.93090  1.0000 -0.5993899358
O   O99       1.0  0.74060  0.95970  0.06910  1.0000 -0.5993899358
O   O100      1.0  0.75940  0.04030  0.56910  1.0000 -0.5993899358
O   O101      1.0  0.74060  0.54030  0.56910  1.0000 -0.5993899358
O   O102      1.0  0.75940  0.45970  0.06910  1.0000 -0.5993899358
O   O103      1.0  0.25940  0.04030  0.93090  1.0000 -0.5993899358
O   O104      1.0  0.24060  0.95970  0.43090  1.0000 -0.5993899358
O   O105      1.0  0.01570  0.81060  0.43680  1.0000 -0.5503164408
O   O106      1.0  0.48430  0.18940  0.93680  1.0000 -0.5503164408
O   O107      1.0  0.98430  0.31060  0.06320  1.0000 -0.5503164408
O   O108      1.0  0.51570  0.68940  0.56320  1.0000 -0.5503164408
O   O109      1.0  0.98430  0.18940  0.56320  1.0000 -0.5503164408
O   O110      1.0  0.51570  0.81060  0.06320  1.0000 -0.5503164408
O   O111      1.0  0.01570  0.68940  0.93680  1.0000 -0.5503164408
O   O112      1.0  0.48430  0.31060  0.43680  1.0000 -0.5503164408
O   O113      1.0  0.13630  0.83370  0.46630  1.0000 -0.610962714
O   O114      1.0  0.36370  0.16630  0.96630  1.0000 -0.610962714
O   O115      1.0  0.86370  0.33370  0.03370  1.0000 -0.610962714
O   O116      1.0  0.63630  0.66630  0.53370  1.0000 -0.610962714
O   O117      1.0  0.86370  0.16630  0.53370  1.0000 -0.610962714
O   O118      1.0  0.63630  0.83370  0.03370  1.0000 -0.610962714
O   O119      1.0  0.13630  0.66630  0.96630  1.0000 -0.610962714
O   O120      1.0  0.36370  0.33370  0.46630  1.0000 -0.610962714
O   O121      1.0  0.09580  0.44840  0.48750  1.0000 -0.4646224308
O   O122      1.0  0.40420  0.55160  0.98750  1.0000 -0.4646224308
O   O123      1.0  0.90420  0.94840  0.01250  1.0000 -0.4646224308
O   O124      1.0  0.59580  0.05160  0.51250  1.0000 -0.4646224308
O   O125      1.0  0.90420  0.55160  0.51250  1.0000 -0.4646224308
O   O126      1.0  0.59580  0.44840  0.01250  1.0000 -0.4646224308
O   O127      1.0  0.09580  0.05160  0.98750  1.0000 -0.4646224308
O   O128      1.0  0.40420  0.94840  0.48750  1.0000 -0.4646224308
O   O129      1.0  0.07710  0.60440  0.36770  1.0000 -0.4528863588
O   O130      1.0  0.42290  0.39560  0.86770  1.0000 -0.4528863588
O   O131      1.0  0.92290  0.10440  0.13230  1.0000 -0.4528863588
O   O132      1.0  0.57710  0.89560  0.63230  1.0000 -0.4528863588
O   O133      1.0  0.92290  0.39560  0.63230  1.0000 -0.4528863588
O   O134      1.0  0.57710  0.60440  0.13230  1.0000 -0.4528863588
O   O135      1.0  0.07710  0.89560  0.86770  1.0000 -0.4528863588
O   O136      1.0  0.42290  0.10440  0.36770  1.0000 -0.4528863588
O   O137      1.0  0.05040  0.63880  0.54790  1.0000 -0.4646224308
O   O138      1.0  0.44960  0.36120  0.04790  1.0000 -0.4646224308
O   O139      1.0  0.94960  0.13880  0.95210  1.0000 -0.4646224308
O   O140      1.0  0.55040  0.86120  0.45210  1.0000 -0.4646224308
O   O141      1.0  0.94960  0.36120  0.45210  1.0000 -0.4646224308
O   O142      1.0  0.55040  0.63880  0.95210  1.0000 -0.4646224308
O   O143      1.0  0.05040  0.86120  0.04790  1.0000 -0.4646224308
O   O144      1.0  0.44960  0.13880  0.54790  1.0000 -0.4646224308
O   O145      1.0  0.51420  0.60650  0.47300  1.0000 -0.9985023392
O   O146      1.0  0.98580  0.39350  0.97300  1.0000 -0.9985023392
O   O147      1.0  0.48580  0.10650  0.02700  1.0000 -0.9985023392
O   O148      1.0  0.01420  0.89350  0.52700  1.0000 -0.9985023392
O   O149      1.0  0.48580  0.39350  0.52700  1.0000 -0.9985023392
O   O150      1.0  0.01420  0.60650  0.02700  1.0000 -0.9985023392
O   O151      1.0  0.51420  0.89350  0.97300  1.0000 -0.9985023392
O   O152      1.0  0.98580  0.10650  0.47300  1.0000 -0.9985023392
O   O153      1.0  0.38230  0.53890  0.48120  1.0000 -1.0824328688
O   O154      1.0  0.11770  0.46110  0.98120  1.0000 -1.0824328688
O   O155      1.0  0.61770  0.03890  0.01880  1.0000 -1.0824328688
O   O156      1.0  0.88230  0.96110  0.51880  1.0000 -1.0824328688
O   O157      1.0  0.61770  0.46110  0.51880  1.0000 -1.0824328688
O   O158      1.0  0.88230  0.53890  0.01880  1.0000 -1.0824328688
O   O159      1.0  0.38230  0.96110  0.98120  1.0000 -1.0824328688
O   O160      1.0  0.11770  0.03890  0.48120  1.0000 -1.0824328688
O   O161      1.0  0.58090  0.50680  0.42160  1.0000 -1.0883902487
O   O162      1.0  0.91910  0.49320  0.92160  1.0000 -1.0883902487
O   O163      1.0  0.41910  0.00680  0.07840  1.0000 -1.0883902487
O   O164      1.0  0.08090  0.99320  0.57840  1.0000 -1.0883902487
O   O165      1.0  0.41910  0.49320  0.57840  1.0000 -1.0883902487
O   O166      1.0  0.08090  0.50680  0.07840  1.0000 -1.0883902487
O   O167      1.0  0.58090  0.99320  0.92160  1.0000 -1.0883902487
O   O168      1.0  0.91910  0.00680  0.42160  1.0000 -1.0883902487
O   O169      1.0  0.55840  0.55540  0.57080  1.0000 -1.0824328688
O   O170      1.0  0.94160  0.44460  0.07080  1.0000 -1.0824328688
O   O171      1.0  0.44160  0.05540  0.92920  1.0000 -1.0824328688
O   O172      1.0  0.05840  0.94460  0.42920  1.0000 -1.0824328688
O   O173      1.0  0.44160  0.44460  0.42920  1.0000 -1.0824328688
O   O174      1.0  0.05840  0.55540  0.92920  1.0000 -1.0824328688
O   O175      1.0  0.55840  0.94460  0.07080  1.0000 -1.0824328688
O   O176      1.0  0.94160  0.05540  0.57080  1.0000 -1.0824328688
