# DDEC6 charges by PACMAN v1.1 (https://github.com/mtap-research/PACMAN-charge/)
data_2017[Zn][nan]3[ASR]8
_chemical_formula_sum              "Zn8 H24 C56 N4 O28"
_cell_length_a       10.997
_cell_length_b       14.914
_cell_length_c       14.368
_cell_angle_alpha    90
_cell_angle_beta     109.31
_cell_angle_gamma    90

_symmetry_space_group_name_H-M    "P 1"
_symmetry_Int_Tables_number       1

loop_
  _symmetry_equiv_pos_as_xyz
  'x, y, z'

loop_
  _atom_site_type_symbol
  _atom_site_label
  _atom_site_symmetry_multiplicity
  _atom_site_fract_x
  _atom_site_fract_y
  _atom_site_fract_z
  _atom_site_occupancy
  _atom_site_charge
Zn  Zn1       1.0  0.37966  0.97001  0.03366  1.0000 0.9659582039
Zn  Zn2       1.0  0.62034  0.47001  0.46634  1.0000 0.9659582039
Zn  Zn3       1.0  0.62034  0.02999  0.96634  1.0000 0.9659582039
Zn  Zn4       1.0  0.37966  0.52999  0.53366  1.0000 0.9659582039
Zn  Zn5       1.0  0.92763  0.84993  0.83899  1.0000 0.797307398
Zn  Zn6       1.0  0.07237  0.34993  0.66101  1.0000 0.797307398
Zn  Zn7       1.0  0.07237  0.15007  0.16101  1.0000 0.797307398
Zn  Zn8       1.0  0.92763  0.65007  0.33899  1.0000 0.797307398
H   H1        1.0  0.20160  0.75250  0.73860  1.0000 0.1052552149
H   H2        1.0  0.79840  0.25250  0.76140  1.0000 0.10439812
H   H3        1.0  0.79840  0.24750  0.26140  1.0000 0.1052552149
H   H4        1.0  0.20160  0.74750  0.23860  1.0000 0.1052552149
H   H5        1.0  0.56660  0.74350  0.74770  1.0000 0.1265582701
H   H6        1.0  0.43340  0.24350  0.75230  1.0000 0.1265582701
H   H7        1.0  0.43340  0.25650  0.25230  1.0000 0.1265582701
H   H8        1.0  0.56660  0.75650  0.24770  1.0000 0.1265582701
H   H9        1.0  0.00890  0.75350  0.03760  1.0000 0.1211476908
H   H10       1.0  0.99110  0.25350  0.46240  1.0000 0.1211476908
H   H11       1.0  0.99110  0.24650  0.96240  1.0000 0.1211476908
H   H12       1.0  0.00890  0.74650  0.53760  1.0000 0.1211476908
H   H13       1.0  0.97230  0.51330  0.84070  1.0000 0.1433986461
H   H14       1.0  0.02770  0.01330  0.65930  1.0000 0.1433986461
H   H15       1.0  0.02770  0.48670  0.15930  1.0000 0.1433986461
H   H16       1.0  0.97230  0.98670  0.34070  1.0000 0.1433986461
H   H17       1.0  0.96050  0.65590  0.77970  1.0000 0.1211476908
H   H18       1.0  0.03950  0.15590  0.72030  1.0000 0.1211476908
H   H19       1.0  0.03950  0.34410  0.22030  1.0000 0.1211476908
H   H20       1.0  0.96050  0.84410  0.27970  1.0000 0.1211476908
H   H21       1.0  0.03520  0.61390  0.10750  1.0000 0.1433986461
H   H22       1.0  0.96480  0.11390  0.39250  1.0000 0.1433986461
H   H23       1.0  0.96480  0.38610  0.89250  1.0000 0.1433986461
H   H24       1.0  0.03520  0.88610  0.60750  1.0000 0.1433986461
C   C1        1.0  0.53500  0.83850  0.83570  1.0000 -0.1765788857
C   C2        1.0  0.46500  0.33850  0.66430  1.0000 -0.1765788857
C   C3        1.0  0.46500  0.16150  0.16430  1.0000 -0.1743551085
C   C4        1.0  0.53500  0.66150  0.33570  1.0000 -0.1743551085
C   C5        1.0  0.37830  0.73560  0.73040  1.0000 -0.0382712159
C   C6        1.0  0.62170  0.23560  0.76960  1.0000 -0.0382712159
C   C7        1.0  0.62170  0.26440  0.26960  1.0000 -0.0382712159
C   C8        1.0  0.37830  0.76440  0.23040  1.0000 -0.0382712159
C   C9        1.0  0.44000  0.87770  0.86860  1.0000 0.3322598299
C   C10       1.0  0.56000  0.37770  0.63140  1.0000 0.3322598299
C   C11       1.0  0.56000  0.12230  0.13140  1.0000 0.3322598299
C   C12       1.0  0.44000  0.62230  0.36860  1.0000 0.3322598299
C   C13       1.0  0.67310  0.86640  0.87120  1.0000 0.613916274
C   C14       1.0  0.32690  0.36640  0.62880  1.0000 0.613916274
C   C15       1.0  0.32690  0.13360  0.12880  1.0000 0.613916274
C   C16       1.0  0.67310  0.63360  0.37120  1.0000 0.613916274
C   C17       1.0  0.28540  0.77450  0.76260  1.0000 -0.0890382362
C   C18       1.0  0.71460  0.27450  0.73740  1.0000 -0.0890382362
C   C19       1.0  0.71460  0.22550  0.23740  1.0000 -0.0890382362
C   C20       1.0  0.28540  0.72550  0.26260  1.0000 -0.0890382362
C   C21       1.0  0.50250  0.76890  0.76830  1.0000 -0.0682873467
C   C22       1.0  0.49750  0.26890  0.73170  1.0000 -0.0682873467
C   C23       1.0  0.49750  0.23110  0.23170  1.0000 -0.0682873467
C   C24       1.0  0.50250  0.73110  0.26830  1.0000 -0.0682873467
C   C25       1.0  0.31160  0.84440  0.82870  1.0000 -0.1765788857
C   C26       1.0  0.68840  0.34440  0.67130  1.0000 -0.1765788857
C   C27       1.0  0.68840  0.15560  0.17130  1.0000 -0.1765788857
C   C28       1.0  0.31160  0.65560  0.32870  1.0000 -0.1765788857
C   C29       1.0  0.20220  0.88130  0.85630  1.0000 0.5988224557
C   C30       1.0  0.79780  0.38130  0.64370  1.0000 0.5988224557
C   C31       1.0  0.79780  0.11870  0.14370  1.0000 0.5988224557
C   C32       1.0  0.20220  0.61870  0.35630  1.0000 0.5988224557
C   C33       1.0  0.34470  0.65790  0.66140  1.0000 0.5513792446
C   C34       1.0  0.65530  0.15790  0.83860  1.0000 0.5513792446
C   C35       1.0  0.65530  0.34210  0.33860  1.0000 0.5513792446
C   C36       1.0  0.34470  0.84210  0.16140  1.0000 0.5513792446
C   C37       1.0  0.99660  0.54590  0.98030  1.0000 0.1211476908
C   C38       1.0  0.00340  0.04590  0.51970  1.0000 0.1211476908
C   C39       1.0  0.00340  0.45410  0.01970  1.0000 0.1211476908
C   C40       1.0  0.99660  0.95410  0.48030  1.0000 0.1211476908
C   C41       1.0  0.00140  0.70390  0.99690  1.0000 0.0897227282
C   C42       1.0  0.99860  0.20390  0.50310  1.0000 0.0897227282
C   C43       1.0  0.99860  0.29610  0.00310  1.0000 0.0897227282
C   C44       1.0  0.00140  0.79610  0.49690  1.0000 0.0897227282
C   C45       1.0  0.97910  0.56170  0.88300  1.0000 -0.1869392471
C   C46       1.0  0.02090  0.06170  0.61700  1.0000 -0.1869392471
C   C47       1.0  0.02090  0.43830  0.11700  1.0000 -0.1869392471
C   C48       1.0  0.97910  0.93830  0.38300  1.0000 -0.1869392471
C   C49       1.0  0.97130  0.64760  0.84610  1.0000 0.0897227282
C   C50       1.0  0.02870  0.14760  0.65390  1.0000 0.0897227282
C   C51       1.0  0.02870  0.35240  0.15390  1.0000 0.0897227282
C   C52       1.0  0.97130  0.85240  0.34610  1.0000 0.0897227282
C   C53       1.0  0.01450  0.62000  0.03960  1.0000 -0.1869392471
C   C54       1.0  0.98550  0.12000  0.46040  1.0000 -0.1869392471
C   C55       1.0  0.98550  0.38000  0.96040  1.0000 -0.1869392471
C   C56       1.0  0.01450  0.88000  0.53960  1.0000 -0.1869392471
N   N1        1.0  0.97880  0.71820  0.90270  1.0000 -0.2079043874
N   N2        1.0  0.02120  0.21820  0.59730  1.0000 -0.2079043874
N   N3        1.0  0.02120  0.28180  0.09730  1.0000 -0.2079043874
N   N4        1.0  0.97880  0.78180  0.40270  1.0000 -0.2079043874
O   O1        1.0  0.09180  0.85810  0.80370  1.0000 -0.5615713734
O   O2        1.0  0.90820  0.35810  0.69630  1.0000 -0.5615713734
O   O3        1.0  0.90820  0.14190  0.19630  1.0000 -0.5615713734
O   O4        1.0  0.09180  0.64190  0.30370  1.0000 -0.5615713734
O   O5        1.0  0.43370  0.62780  0.63020  1.0000 -0.5615713734
O   O6        1.0  0.56630  0.12780  0.86980  1.0000 -0.5615713734
O   O7        1.0  0.56630  0.37220  0.36980  1.0000 -0.5615713734
O   O8        1.0  0.43370  0.87220  0.13020  1.0000 -0.5615713734
O   O9        1.0  0.46740  0.94380  0.93110  1.0000 -0.5615713734
O   O10       1.0  0.53260  0.44380  0.56890  1.0000 -0.5615713734
O   O11       1.0  0.53260  0.05620  0.06890  1.0000 -0.5615713734
O   O12       1.0  0.46740  0.55620  0.43110  1.0000 -0.5615713734
O   O13       1.0  0.74780  0.82090  0.84240  1.0000 -0.5348822066
O   O14       1.0  0.25220  0.32090  0.65760  1.0000 -0.5360740015
O   O15       1.0  0.25220  0.17910  0.15760  1.0000 -0.5348822066
O   O16       1.0  0.74780  0.67910  0.34240  1.0000 -0.5360740015
O   O17       1.0  0.21960  0.93400  0.92690  1.0000 -0.5077402034
O   O18       1.0  0.78040  0.43400  0.57310  1.0000 -0.5077402034
O   O19       1.0  0.78040  0.06600  0.07310  1.0000 -0.5077402034
O   O20       1.0  0.21960  0.56600  0.42690  1.0000 -0.5077402034
O   O21       1.0  0.23580  0.62610  0.63730  1.0000 -0.5471080431
O   O22       1.0  0.76420  0.12610  0.86270  1.0000 -0.5471080431
O   O23       1.0  0.76420  0.37390  0.36270  1.0000 -0.5471080431
O   O24       1.0  0.23580  0.87390  0.13730  1.0000 -0.5471080431
O   O25       1.0  0.71220  0.93080  0.92820  1.0000 -0.5164624044
O   O26       1.0  0.28780  0.43080  0.57180  1.0000 -0.5164624044
O   O27       1.0  0.28780  0.06920  0.07180  1.0000 -0.5164624044
O   O28       1.0  0.71220  0.56920  0.42820  1.0000 -0.5164624044
