# DDEC6 charges by PACMAN v1.1 (https://github.com/mtap-research/PACMAN-charge/)
data_2017[Co][rtl]3[ASR]1
_chemical_formula_sum              "Co8 H40 C88 O36"
_cell_length_a       13.452
_cell_length_b       14.733
_cell_length_c       16.715
_cell_angle_alpha    90
_cell_angle_beta     90
_cell_angle_gamma    90

_symmetry_space_group_name_H-M    "P 1"
_symmetry_Int_Tables_number       1

loop_
  _symmetry_equiv_pos_as_xyz
  'x, y, z'

loop_
  _atom_site_type_symbol
  _atom_site_label
  _atom_site_symmetry_multiplicity
  _atom_site_fract_x
  _atom_site_fract_y
  _atom_site_fract_z
  _atom_site_occupancy
  _atom_site_charge
Co  Co1       1.0  0.28846  0.50970  0.00000  1.0000 1.0293720604
Co  Co2       1.0  0.71154  0.49030  0.00000  1.0000 1.0293720604
Co  Co3       1.0  0.21154  0.00970  0.50000  1.0000 1.0293720604
Co  Co4       1.0  0.78846  0.99030  0.50000  1.0000 1.0293720604
Co  Co5       1.0  0.50000  0.50000  0.11320  1.0000 1.0898896992
Co  Co6       1.0  0.00000  0.00000  0.38680  1.0000 1.0898896992
Co  Co7       1.0  0.50000  0.50000  0.88680  1.0000 1.0898896992
Co  Co8       1.0  0.00000  0.00000  0.61320  1.0000 1.0898896992
H   H1        1.0  0.41120  0.29580  0.25110  1.0000 0.1296802899
H   H2        1.0  0.11630  0.14710  0.19590  1.0000 0.1296802899
H   H3        1.0  0.34530  0.19670  0.34500  1.0000 0.124552501
H   H4        1.0  0.02520  0.26660  0.12000  1.0000 0.1139251456
H   H5        1.0  0.58880  0.70420  0.25110  1.0000 0.1296802899
H   H6        1.0  0.88370  0.85290  0.19590  1.0000 0.1296802899
H   H7        1.0  0.65470  0.80330  0.34500  1.0000 0.124552501
H   H8        1.0  0.97480  0.73340  0.12000  1.0000 0.1139251456
H   H9        1.0  0.08880  0.79580  0.24890  1.0000 0.1296802899
H   H10       1.0  0.38370  0.64710  0.30410  1.0000 0.1296802899
H   H11       1.0  0.15470  0.69670  0.15500  1.0000 0.124552501
H   H12       1.0  0.47480  0.76660  0.38000  1.0000 0.1139251456
H   H13       1.0  0.91120  0.20420  0.24890  1.0000 0.1296802899
H   H14       1.0  0.61630  0.35290  0.30410  1.0000 0.1296802899
H   H15       1.0  0.84530  0.30330  0.15500  1.0000 0.124552501
H   H16       1.0  0.52520  0.23340  0.38000  1.0000 0.1139251456
H   H17       1.0  0.58880  0.70420  0.74890  1.0000 0.1296802899
H   H18       1.0  0.88370  0.85290  0.80410  1.0000 0.1296802899
H   H19       1.0  0.65470  0.80330  0.65500  1.0000 0.124552501
H   H20       1.0  0.97480  0.73340  0.88000  1.0000 0.1139251456
H   H21       1.0  0.41120  0.29580  0.74890  1.0000 0.1296802899
H   H22       1.0  0.11630  0.14710  0.80410  1.0000 0.1296802899
H   H23       1.0  0.34530  0.19670  0.65500  1.0000 0.124552501
H   H24       1.0  0.02520  0.26660  0.88000  1.0000 0.1139251456
H   H25       1.0  0.91120  0.20420  0.75110  1.0000 0.1296802899
H   H26       1.0  0.61630  0.35290  0.69590  1.0000 0.1296802899
H   H27       1.0  0.84530  0.30330  0.84500  1.0000 0.124552501
H   H28       1.0  0.52520  0.23340  0.62000  1.0000 0.1139251456
H   H29       1.0  0.08880  0.79580  0.75110  1.0000 0.1296802899
H   H30       1.0  0.38370  0.64710  0.69590  1.0000 0.1296802899
H   H31       1.0  0.15470  0.69670  0.84500  1.0000 0.124552501
H   H32       1.0  0.47480  0.76660  0.62000  1.0000 0.1139251456
H   H33       1.0  0.27870  0.22630  0.00000  1.0000 0.1296802899
H   H34       1.0  0.94000  0.28610  0.00000  1.0000 0.1296802899
H   H35       1.0  0.72130  0.77370  0.00000  1.0000 0.1296802899
H   H36       1.0  0.06000  0.71390  0.00000  1.0000 0.1296802899
H   H37       1.0  0.22130  0.72630  0.50000  1.0000 0.1296802899
H   H38       1.0  0.56000  0.78610  0.50000  1.0000 0.1296802899
H   H39       1.0  0.77870  0.27370  0.50000  1.0000 0.1296802899
H   H40       1.0  0.44000  0.21390  0.50000  1.0000 0.1296802899
C   C1        1.0  0.34480  0.35800  0.11730  1.0000 0.6067492381
C   C2        1.0  0.30470  0.28240  0.16890  1.0000 -0.0475371278
C   C3        1.0  0.21550  0.23670  0.15030  1.0000 0.0580985716
C   C4        1.0  0.35160  0.26640  0.24010  1.0000 -0.109656893
C   C5        1.0  0.16310  0.24750  0.07290  1.0000 0.0874745871
C   C6        1.0  0.17530  0.17740  0.20700  1.0000 -0.1501608177
C   C7        1.0  0.31200  0.20670  0.29700  1.0000 -0.109656893
C   C8        1.0  0.05960  0.26300  0.07190  1.0000 -0.1389407258
C   C9        1.0  0.22430  0.16300  0.28200  1.0000 -0.0115288531
C   C10       1.0  0.17580  0.10240  0.34210  1.0000 0.6067492381
C   C11       1.0  0.65520  0.64200  0.11730  1.0000 0.6067492381
C   C12       1.0  0.69530  0.71760  0.16890  1.0000 -0.0475371278
C   C13       1.0  0.78450  0.76330  0.15030  1.0000 0.0580985716
C   C14       1.0  0.64840  0.73360  0.24010  1.0000 -0.109656893
C   C15       1.0  0.83690  0.75250  0.07290  1.0000 0.0874745871
C   C16       1.0  0.82470  0.82260  0.20700  1.0000 -0.1501608177
C   C17       1.0  0.68800  0.79330  0.29700  1.0000 -0.109656893
C   C18       1.0  0.94040  0.73700  0.07190  1.0000 -0.1389407258
C   C19       1.0  0.77570  0.83700  0.28200  1.0000 -0.0115288531
C   C20       1.0  0.82420  0.89760  0.34210  1.0000 0.6067492381
C   C21       1.0  0.15520  0.85800  0.38270  1.0000 0.6067492381
C   C22       1.0  0.19530  0.78240  0.33110  1.0000 -0.0475371278
C   C23       1.0  0.28450  0.73670  0.34970  1.0000 0.0580985716
C   C24       1.0  0.14840  0.76640  0.25990  1.0000 -0.109656893
C   C25       1.0  0.33690  0.74750  0.42710  1.0000 0.0874745871
C   C26       1.0  0.32470  0.67740  0.29300  1.0000 -0.1501608177
C   C27       1.0  0.18800  0.70670  0.20300  1.0000 -0.109656893
C   C28       1.0  0.44040  0.76300  0.42810  1.0000 -0.1389407258
C   C29       1.0  0.27570  0.66300  0.21800  1.0000 -0.0115288531
C   C30       1.0  0.32420  0.60240  0.15790  1.0000 0.6067492381
C   C31       1.0  0.84480  0.14200  0.38270  1.0000 0.6067492381
C   C32       1.0  0.80470  0.21760  0.33110  1.0000 -0.0475371278
C   C33       1.0  0.71550  0.26330  0.34970  1.0000 0.0580985716
C   C34       1.0  0.85160  0.23360  0.25990  1.0000 -0.109656893
C   C35       1.0  0.66310  0.25250  0.42710  1.0000 0.0874745871
C   C36       1.0  0.67530  0.32260  0.29300  1.0000 -0.1501608177
C   C37       1.0  0.81200  0.29330  0.20300  1.0000 -0.109656893
C   C38       1.0  0.55960  0.23700  0.42810  1.0000 -0.1389407258
C   C39       1.0  0.72430  0.33700  0.21800  1.0000 -0.0115288531
C   C40       1.0  0.67580  0.39760  0.15790  1.0000 0.6067492381
C   C41       1.0  0.65520  0.64200  0.88270  1.0000 0.6067492381
C   C42       1.0  0.69530  0.71760  0.83110  1.0000 -0.0475371278
C   C43       1.0  0.78450  0.76330  0.84970  1.0000 0.0580985716
C   C44       1.0  0.64840  0.73360  0.75990  1.0000 -0.109656893
C   C45       1.0  0.83690  0.75250  0.92710  1.0000 0.0874745871
C   C46       1.0  0.82470  0.82260  0.79300  1.0000 -0.1501608177
C   C47       1.0  0.68800  0.79330  0.70300  1.0000 -0.109656893
C   C48       1.0  0.94040  0.73700  0.92810  1.0000 -0.1389407258
C   C49       1.0  0.77570  0.83700  0.71800  1.0000 -0.0115288531
C   C50       1.0  0.82420  0.89760  0.65790  1.0000 0.6067492381
C   C51       1.0  0.34480  0.35800  0.88270  1.0000 0.6067492381
C   C52       1.0  0.30470  0.28240  0.83110  1.0000 -0.0475371278
C   C53       1.0  0.21550  0.23670  0.84970  1.0000 0.0580985716
C   C54       1.0  0.35160  0.26640  0.75990  1.0000 -0.109656893
C   C55       1.0  0.16310  0.24750  0.92710  1.0000 0.0874745871
C   C56       1.0  0.17530  0.17740  0.79300  1.0000 -0.1501608177
C   C57       1.0  0.31200  0.20670  0.70300  1.0000 -0.109656893
C   C58       1.0  0.05960  0.26300  0.92810  1.0000 -0.1389407258
C   C59       1.0  0.22430  0.16300  0.71800  1.0000 -0.0115288531
C   C60       1.0  0.17580  0.10240  0.65790  1.0000 0.6067492381
C   C61       1.0  0.84480  0.14200  0.61730  1.0000 0.6067492381
C   C62       1.0  0.80470  0.21760  0.66890  1.0000 -0.0475371278
C   C63       1.0  0.71550  0.26330  0.65030  1.0000 0.0580985716
C   C64       1.0  0.85160  0.23360  0.74010  1.0000 -0.109656893
C   C65       1.0  0.66310  0.25250  0.57290  1.0000 0.0874745871
C   C66       1.0  0.67530  0.32260  0.70700  1.0000 -0.1501608177
C   C67       1.0  0.81200  0.29330  0.79700  1.0000 -0.109656893
C   C68       1.0  0.55960  0.23700  0.57190  1.0000 -0.1389407258
C   C69       1.0  0.72430  0.33700  0.78200  1.0000 -0.0115288531
C   C70       1.0  0.67580  0.39760  0.84210  1.0000 0.6067492381
C   C71       1.0  0.15520  0.85800  0.61730  1.0000 0.6067492381
C   C72       1.0  0.19530  0.78240  0.66890  1.0000 -0.0475371278
C   C73       1.0  0.28450  0.73670  0.65030  1.0000 0.0580985716
C   C74       1.0  0.14840  0.76640  0.74010  1.0000 -0.109656893
C   C75       1.0  0.33690  0.74750  0.57290  1.0000 0.0874745871
C   C76       1.0  0.32470  0.67740  0.70700  1.0000 -0.1501608177
C   C77       1.0  0.18800  0.70670  0.79700  1.0000 -0.109656893
C   C78       1.0  0.44040  0.76300  0.57190  1.0000 -0.1389407258
C   C79       1.0  0.27570  0.66300  0.78200  1.0000 -0.0115288531
C   C80       1.0  0.32420  0.60240  0.84210  1.0000 0.6067492381
C   C81       1.0  0.21090  0.23870  0.00000  1.0000 -0.1672459006
C   C82       1.0  0.00760  0.27300  0.00000  1.0000 -0.084025117
C   C83       1.0  0.78910  0.76130  0.00000  1.0000 -0.1672459006
C   C84       1.0  0.99240  0.72700  0.00000  1.0000 -0.084025117
C   C85       1.0  0.28910  0.73870  0.50000  1.0000 -0.1672459006
C   C86       1.0  0.49240  0.77300  0.50000  1.0000 -0.084025117
C   C87       1.0  0.71090  0.26130  0.50000  1.0000 -0.1672459006
C   C88       1.0  0.50760  0.22700  0.50000  1.0000 -0.084025117
O   O1        1.0  0.28350  0.40900  0.08510  1.0000 -0.5436940624
O   O2        1.0  0.29610  0.60700  0.08820  1.0000 -0.532673905
O   O3        1.0  0.43770  0.36990  0.11500  1.0000 -0.532673905
O   O4        1.0  0.60600  0.44910  0.18390  1.0000 -0.548805265
O   O5        1.0  0.71650  0.59100  0.08510  1.0000 -0.5436940624
O   O6        1.0  0.70390  0.39300  0.08820  1.0000 -0.532673905
O   O7        1.0  0.56230  0.63010  0.11500  1.0000 -0.532673905
O   O8        1.0  0.39400  0.55090  0.18390  1.0000 -0.548805265
O   O9        1.0  0.21650  0.90900  0.41490  1.0000 -0.5436940624
O   O10       1.0  0.20390  0.10700  0.41180  1.0000 -0.532673905
O   O11       1.0  0.06230  0.86990  0.38500  1.0000 -0.532673905
O   O12       1.0  0.89400  0.94910  0.31610  1.0000 -0.548805265
O   O13       1.0  0.78350  0.09100  0.41490  1.0000 -0.5436940624
O   O14       1.0  0.79610  0.89300  0.41180  1.0000 -0.532673905
O   O15       1.0  0.93770  0.13010  0.38500  1.0000 -0.532673905
O   O16       1.0  0.10600  0.05090  0.31610  1.0000 -0.548805265
O   O17       1.0  0.71650  0.59100  0.91490  1.0000 -0.5436940624
O   O18       1.0  0.70390  0.39300  0.91180  1.0000 -0.532673905
O   O19       1.0  0.56230  0.63010  0.88500  1.0000 -0.532673905
O   O20       1.0  0.39400  0.55090  0.81610  1.0000 -0.548805265
O   O21       1.0  0.28350  0.40900  0.91490  1.0000 -0.5436940624
O   O22       1.0  0.29610  0.60700  0.91180  1.0000 -0.532673905
O   O23       1.0  0.43770  0.36990  0.88500  1.0000 -0.532673905
O   O24       1.0  0.60600  0.44910  0.81610  1.0000 -0.548805265
O   O25       1.0  0.78350  0.09100  0.58510  1.0000 -0.5436940624
O   O26       1.0  0.79610  0.89300  0.58820  1.0000 -0.532673905
O   O27       1.0  0.93770  0.13010  0.61500  1.0000 -0.532673905
O   O28       1.0  0.10600  0.05090  0.68390  1.0000 -0.548805265
O   O29       1.0  0.21650  0.90900  0.58510  1.0000 -0.5436940624
O   O30       1.0  0.20390  0.10700  0.58820  1.0000 -0.532673905
O   O31       1.0  0.06230  0.86990  0.61500  1.0000 -0.532673905
O   O32       1.0  0.89400  0.94910  0.68390  1.0000 -0.548805265
O   O33       1.0  0.45380  0.52600  0.00000  1.0000 -0.3905141487
O   O34       1.0  0.54620  0.47400  0.00000  1.0000 -0.3905141487
O   O35       1.0  0.04620  0.02600  0.50000  1.0000 -0.3905141487
O   O36       1.0  0.95380  0.97400  0.50000  1.0000 -0.3905141487
