# DDEC6 charges by PACMAN v1.1 (https://github.com/mtap-research/PACMAN-charge/)
data_2017[Zn][ant]3[ASR]2
_chemical_formula_sum              "Zn4 H24 C44 N8 O16"
_cell_length_a       10.8448
_cell_length_b       10.8448
_cell_length_c       17.339
_cell_angle_alpha    72.1197
_cell_angle_beta     107.88
_cell_angle_gamma    92.7536

_symmetry_space_group_name_H-M    "P 1"
_symmetry_Int_Tables_number       1

loop_
  _symmetry_equiv_pos_as_xyz
  'x, y, z'

loop_
  _atom_site_type_symbol
  _atom_site_label
  _atom_site_symmetry_multiplicity
  _atom_site_fract_x
  _atom_site_fract_y
  _atom_site_fract_z
  _atom_site_occupancy
  _atom_site_charge
Zn  Zn1       1.0  0.00631  0.09511  0.65484  1.0000 0.8375226501
Zn  Zn2       1.0  0.09511  0.00631  0.84516  1.0000 0.8375226501
Zn  Zn3       1.0  0.99369  0.90489  0.34516  1.0000 0.8375226501
Zn  Zn4       1.0  0.90489  0.99369  0.15484  1.0000 0.8375226501
H   H1        1.0  0.05990  0.28970  0.49360  1.0000 0.1300463676
H   H2        1.0  0.28970  0.05990  0.00640  1.0000 0.1188156638
H   H3        1.0  0.94010  0.71030  0.50640  1.0000 0.1300463676
H   H4        1.0  0.71030  0.94010  0.99360  1.0000 0.1300463676
H   H5        1.0  0.78950  0.03710  0.49850  1.0000 0.1408743058
H   H6        1.0  0.03710  0.78950  0.00150  1.0000 0.1408743058
H   H7        1.0  0.21050  0.96290  0.50150  1.0000 0.1408743058
H   H8        1.0  0.96290  0.21050  0.99850  1.0000 0.1408743058
H   H9        1.0  0.76700  0.15100  0.35080  1.0000 0.1300463676
H   H10       1.0  0.15100  0.76700  0.14920  1.0000 0.1300463676
H   H11       1.0  0.23300  0.84900  0.64920  1.0000 0.1300463676
H   H12       1.0  0.84900  0.23300  0.85080  1.0000 0.1300463676
H   H13       1.0  0.93170  0.49650  0.37180  1.0000 0.1300463676
H   H14       1.0  0.49650  0.93170  0.12820  1.0000 0.1300463676
H   H15       1.0  0.06830  0.50350  0.62820  1.0000 0.1300463676
H   H16       1.0  0.50350  0.06830  0.87180  1.0000 0.1300463676
H   H17       1.0  0.94740  0.61480  0.13250  1.0000 0.1188156638
H   H18       1.0  0.61480  0.94740  0.36750  1.0000 0.1188156638
H   H19       1.0  0.05260  0.38520  0.86750  1.0000 0.1188156638
H   H20       1.0  0.38520  0.05260  0.63250  1.0000 0.1188156638
H   H21       1.0  0.94040  0.40080  0.13310  1.0000 0.1300463676
H   H22       1.0  0.40080  0.94040  0.36690  1.0000 0.1300463676
H   H23       1.0  0.05960  0.59920  0.86690  1.0000 0.1300463676
H   H24       1.0  0.59920  0.05960  0.63310  1.0000 0.1300463676
C   C1        1.0  0.98990  0.24070  0.47700  1.0000 0.1116139684
C   C2        1.0  0.24070  0.98990  0.02300  1.0000 0.1116139684
C   C3        1.0  0.01010  0.75930  0.52300  1.0000 0.1116139684
C   C4        1.0  0.75930  0.01010  0.97700  1.0000 0.1116139684
C   C5        1.0  0.84170  0.10190  0.47870  1.0000 -0.0455606598
C   C6        1.0  0.10190  0.84170  0.02130  1.0000 -0.0455606598
C   C7        1.0  0.15830  0.89810  0.52130  1.0000 -0.0455606598
C   C8        1.0  0.89810  0.15830  0.97870  1.0000 -0.0455606598
C   C9        1.0  0.82810  0.16530  0.39790  1.0000 -0.0809569713
C   C10       1.0  0.16530  0.82810  0.10210  1.0000 -0.0809569713
C   C11       1.0  0.17190  0.83470  0.60210  1.0000 -0.0809569713
C   C12       1.0  0.83470  0.17190  0.89790  1.0000 -0.0809569713
C   C13       1.0  0.93440  0.35140  0.32350  1.0000 0.1300463676
C   C14       1.0  0.35140  0.93440  0.17650  1.0000 0.1300463676
C   C15       1.0  0.06560  0.64860  0.67650  1.0000 0.1300463676
C   C16       1.0  0.64860  0.06560  0.82350  1.0000 0.1300463676
C   C17       1.0  0.93570  0.47730  0.32390  1.0000 -0.1811729204
C   C18       1.0  0.47730  0.93570  0.17610  1.0000 -0.1811729204
C   C19       1.0  0.06430  0.52270  0.67610  1.0000 -0.1811729204
C   C20       1.0  0.52270  0.06430  0.82390  1.0000 -0.1811729204
C   C21       1.0  0.94290  0.57490  0.25340  1.0000 0.0014845073
C   C22       1.0  0.57490  0.94290  0.24660  1.0000 0.0014845073
C   C23       1.0  0.05710  0.42510  0.74660  1.0000 0.0014845073
C   C24       1.0  0.42510  0.05710  0.75340  1.0000 0.0014845073
C   C25       1.0  0.94460  0.54840  0.18090  1.0000 -0.1247424539
C   C26       1.0  0.54840  0.94460  0.31910  1.0000 -0.1247424539
C   C27       1.0  0.05540  0.45160  0.81910  1.0000 -0.1247424539
C   C28       1.0  0.45160  0.05540  0.68090  1.0000 -0.1247424539
C   C29       1.0  0.94200  0.41960  0.18220  1.0000 -0.0942520778
C   C30       1.0  0.41960  0.94200  0.31780  1.0000 -0.0942520778
C   C31       1.0  0.05800  0.58040  0.81780  1.0000 -0.0942520778
C   C32       1.0  0.58040  0.05800  0.68220  1.0000 -0.0942520778
C   C33       1.0  0.94180  0.31940  0.25320  1.0000 -0.0954166259
C   C34       1.0  0.31940  0.94180  0.24680  1.0000 -0.0954166259
C   C35       1.0  0.05820  0.68060  0.74680  1.0000 -0.0954166259
C   C36       1.0  0.68060  0.05820  0.75320  1.0000 -0.0954166259
C   C37       1.0  0.95060  0.18340  0.25070  1.0000 0.5854479019
C   C38       1.0  0.18340  0.95060  0.24930  1.0000 0.5854479019
C   C39       1.0  0.04940  0.81660  0.74930  1.0000 0.5854479019
C   C40       1.0  0.81660  0.04940  0.75070  1.0000 0.5776181046
C   C41       1.0  0.94520  0.71440  0.25420  1.0000 0.5776181046
C   C42       1.0  0.71440  0.94520  0.24580  1.0000 0.5776181046
C   C43       1.0  0.05480  0.28560  0.74580  1.0000 0.5776181046
C   C44       1.0  0.28560  0.05480  0.75420  1.0000 0.5776181046
N   N1        1.0  0.94730  0.14890  0.52900  1.0000 -0.2607505824
N   N2        1.0  0.14890  0.94730  0.97100  1.0000 -0.2607505824
N   N3        1.0  0.05270  0.85110  0.47100  1.0000 -0.2607505824
N   N4        1.0  0.85110  0.05270  0.02900  1.0000 -0.2607505824
N   N5        1.0  0.91940  0.25520  0.39610  1.0000 0.0158189219
N   N6        1.0  0.25520  0.91940  0.10390  1.0000 0.0158189219
N   N7        1.0  0.08060  0.74480  0.60390  1.0000 0.0158189219
N   N8        1.0  0.74480  0.08060  0.89610  1.0000 0.0158189219
O   O1        1.0  0.01470  0.10130  0.31860  1.0000 -0.5455626305
O   O2        1.0  0.10130  0.01470  0.18140  1.0000 -0.5455626305
O   O3        1.0  0.98530  0.89870  0.68140  1.0000 -0.5455626305
O   O4        1.0  0.89870  0.98530  0.81860  1.0000 -0.5455626305
O   O5        1.0  0.89420  0.16320  0.18260  1.0000 -0.5195478257
O   O6        1.0  0.16320  0.89420  0.31740  1.0000 -0.5195478257
O   O7        1.0  0.10580  0.83680  0.81740  1.0000 -0.5195478257
O   O8        1.0  0.83680  0.10580  0.68260  1.0000 -0.5195478257
O   O9        1.0  0.94090  0.80030  0.18580  1.0000 -0.5583943929
O   O10       1.0  0.80030  0.94090  0.31420  1.0000 -0.5583943929
O   O11       1.0  0.05910  0.19970  0.81420  1.0000 -0.5583943929
O   O12       1.0  0.19970  0.05910  0.68580  1.0000 -0.5583943929
O   O13       1.0  0.95340  0.73200  0.32290  1.0000 -0.5283055957
O   O14       1.0  0.73200  0.95340  0.17710  1.0000 -0.5283055957
O   O15       1.0  0.04660  0.26800  0.67710  1.0000 -0.5283055957
O   O16       1.0  0.26800  0.04660  0.82290  1.0000 -0.5283055957
