# DDEC6 charges by PACMAN v1.1 (https://github.com/mtap-research/PACMAN-charge/)
data_2017[Zn][pcu]3[ASR]14
_chemical_formula_sum              "Zn8 H96 C108 O50"
_cell_length_a       16.8289
_cell_length_b       16.9625
_cell_length_c       17.0341
_cell_angle_alpha    94.812
_cell_angle_beta     95.549
_cell_angle_gamma    91.609

_symmetry_space_group_name_H-M    "P 1"
_symmetry_Int_Tables_number       1

loop_
  _symmetry_equiv_pos_as_xyz
  'x, y, z'

loop_
  _atom_site_type_symbol
  _atom_site_label
  _atom_site_symmetry_multiplicity
  _atom_site_fract_x
  _atom_site_fract_y
  _atom_site_fract_z
  _atom_site_occupancy
  _atom_site_charge
Zn  Zn1       1.0  0.67066  0.76596  0.78772  1.0000 0.9365747641
Zn  Zn2       1.0  0.81526  0.64802  0.77110  1.0000 0.9903154144
Zn  Zn3       1.0  0.65218  0.63504  0.64544  1.0000 0.9365747641
Zn  Zn4       1.0  0.77028  0.77512  0.64543  1.0000 0.9365747641
Zn  Zn5       1.0  0.32934  0.23404  0.21228  1.0000 0.9365747641
Zn  Zn6       1.0  0.18474  0.35198  0.22890  1.0000 0.9903154144
Zn  Zn7       1.0  0.34782  0.36496  0.35456  1.0000 0.9365747641
Zn  Zn8       1.0  0.22972  0.22488  0.35457  1.0000 0.9365747641
H   H1        1.0  0.41200  0.68540  0.57100  1.0000 0.1288265365
H   H2        1.0  0.42130  0.78720  0.79430  1.0000 0.1288265365
H   H3        1.0  0.58080  0.39800  0.68730  1.0000 0.1288265365
H   H4        1.0  0.83040  0.62280  0.01980  1.0000 0.1288265365
H   H5        1.0  0.60760  0.70510  0.01120  1.0000 0.1288265365
H   H6        1.0  0.02420  0.62130  0.68480  1.0000 0.1288265365
H   H7        1.0  0.95950  0.57430  0.17920  1.0000 0.1288265365
H   H8        1.0  0.90930  0.54730  0.09860  1.0000 0.119583469
H   H9        1.0  0.93950  0.63580  0.11720  1.0000 0.119583469
H   H10       1.0  0.18320  0.50430  0.73310  1.0000 0.1288265365
H   H11       1.0  0.11950  0.55750  0.77040  1.0000 0.119583469
H   H12       1.0  0.10410  0.52190  0.68210  1.0000 0.119583469
H   H13       1.0  0.81510  0.40670  0.76580  1.0000 0.1288265365
H   H14       1.0  0.94000  0.25910  0.82360  1.0000 0.1288265365
H   H15       1.0  0.91650  0.32120  0.76310  1.0000 0.119583469
H   H16       1.0  0.89430  0.33450  0.85040  1.0000 0.1129513341
H   H17       1.0  0.44310  0.24170  0.64730  1.0000 0.1365477364
H   H18       1.0  0.47080  0.32070  0.69810  1.0000 0.119583469
H   H19       1.0  0.49600  0.30490  0.61210  1.0000 0.119583469
H   H20       1.0  0.25290  0.64240  0.42810  1.0000 0.1288265365
H   H21       1.0  0.32740  0.69900  0.45560  1.0000 0.119583469
H   H22       1.0  0.32380  0.61350  0.48380  1.0000 0.1288265365
H   H23       1.0  0.17080  0.98390  0.61050  1.0000 0.1288265365
H   H24       1.0  0.09610  0.93140  0.57370  1.0000 0.119583469
H   H25       1.0  0.10620  0.95800  0.66460  1.0000 0.119583469
H   H26       1.0  0.59030  0.42840  0.23040  1.0000 0.1365477364
H   H27       1.0  0.65420  0.44320  0.30390  1.0000 0.119583469
H   H28       1.0  0.57180  0.48420  0.30400  1.0000 0.119583469
H   H29       1.0  0.60830  0.17150  0.96750  1.0000 0.119583469
H   H30       1.0  0.57870  0.09730  0.90980  1.0000 0.119583469
H   H31       1.0  0.66710  0.10380  0.94900  1.0000 0.119583469
H   H32       1.0  0.48130  0.74250  0.15640  1.0000 0.1288265365
H   H33       1.0  0.53700  0.77780  0.09840  1.0000 0.119583469
H   H34       1.0  0.49840  0.69240  0.07870  1.0000 0.119583469
H   H35       1.0  0.27360  0.85170  0.90720  1.0000 0.1288265365
H   H36       1.0  0.33900  0.78980  0.89210  1.0000 0.119583469
H   H37       1.0  0.34600  0.87380  0.86090  1.0000 0.119583469
H   H38       1.0  0.01920  0.84730  0.62970  1.0000 0.1365477364
H   H39       1.0  0.65130  0.56080  0.39430  1.0000 0.1288265365
H   H40       1.0  0.77580  0.76790  0.41170  1.0000 0.1288265365
H   H41       1.0  0.86450  0.86700  0.27580  1.0000 0.1288265365
H   H42       1.0  0.80360  0.86280  0.33950  1.0000 0.119583469
H   H43       1.0  0.87870  0.81010  0.34330  1.0000 0.119583469
H   H44       1.0  0.73480  0.01180  0.62230  1.0000 0.1288265365
H   H45       1.0  0.66210  0.01710  0.84090  1.0000 0.1288265365
H   H46       1.0  0.77380  0.16200  0.50520  1.0000 0.1288265365
H   H47       1.0  0.81210  0.09990  0.55940  1.0000 0.119583469
H   H48       1.0  0.72450  0.08550  0.51920  1.0000 0.119583469
H   H49       1.0  0.58800  0.31460  0.42900  1.0000 0.1288265365
H   H50       1.0  0.57870  0.21280  0.20570  1.0000 0.1288265365
H   H51       1.0  0.41920  0.60200  0.31270  1.0000 0.1288265365
H   H52       1.0  0.16960  0.37720  0.98020  1.0000 0.1288265365
H   H53       1.0  0.39240  0.29490  0.98880  1.0000 0.1288265365
H   H54       1.0  0.97580  0.37870  0.31520  1.0000 0.1288265365
H   H55       1.0  0.04050  0.42570  0.82080  1.0000 0.1288265365
H   H56       1.0  0.09070  0.45270  0.90140  1.0000 0.119583469
H   H57       1.0  0.06050  0.36420  0.88280  1.0000 0.119583469
H   H58       1.0  0.81680  0.49570  0.26690  1.0000 0.1288265365
H   H59       1.0  0.88050  0.44250  0.22960  1.0000 0.119583469
H   H60       1.0  0.89590  0.47810  0.31790  1.0000 0.119583469
H   H61       1.0  0.18490  0.59330  0.23420  1.0000 0.1288265365
H   H62       1.0  0.06000  0.74090  0.17640  1.0000 0.1288265365
H   H63       1.0  0.08350  0.67880  0.23690  1.0000 0.119583469
H   H64       1.0  0.10570  0.66550  0.14960  1.0000 0.1129513341
H   H65       1.0  0.55690  0.75830  0.35270  1.0000 0.1365477364
H   H66       1.0  0.52920  0.67930  0.30190  1.0000 0.119583469
H   H67       1.0  0.50400  0.69510  0.38790  1.0000 0.119583469
H   H68       1.0  0.74710  0.35760  0.57190  1.0000 0.1288265365
H   H69       1.0  0.67260  0.30100  0.54440  1.0000 0.119583469
H   H70       1.0  0.67620  0.38650  0.51620  1.0000 0.1288265365
H   H71       1.0  0.82920  0.01610  0.38950  1.0000 0.1288265365
H   H72       1.0  0.90390  0.06860  0.42630  1.0000 0.119583469
H   H73       1.0  0.89380  0.04200  0.33540  1.0000 0.119583469
H   H74       1.0  0.40970  0.57160  0.76960  1.0000 0.1365477364
H   H75       1.0  0.34580  0.55680  0.69610  1.0000 0.119583469
H   H76       1.0  0.42820  0.51580  0.69600  1.0000 0.119583469
H   H77       1.0  0.39170  0.82850  0.03250  1.0000 0.119583469
H   H78       1.0  0.42130  0.90270  0.09020  1.0000 0.119583469
H   H79       1.0  0.33290  0.89620  0.05100  1.0000 0.119583469
H   H80       1.0  0.51870  0.25750  0.84360  1.0000 0.1288265365
H   H81       1.0  0.46300  0.22220  0.90160  1.0000 0.119583469
H   H82       1.0  0.50160  0.30760  0.92130  1.0000 0.119583469
H   H83       1.0  0.72640  0.14830  0.09280  1.0000 0.1288265365
H   H84       1.0  0.66100  0.21020  0.10790  1.0000 0.119583469
H   H85       1.0  0.65400  0.12620  0.13910  1.0000 0.119583469
H   H86       1.0  0.98080  0.15270  0.37030  1.0000 0.1288265365
H   H87       1.0  0.34870  0.43920  0.60570  1.0000 0.1288265365
H   H88       1.0  0.22420  0.23210  0.58830  1.0000 0.1288265365
H   H89       1.0  0.13550  0.13300  0.72420  1.0000 0.119583469
H   H90       1.0  0.19640  0.13720  0.66050  1.0000 0.119583469
H   H91       1.0  0.12130  0.18990  0.65670  1.0000 0.119583469
H   H92       1.0  0.26520  0.98820  0.37770  1.0000 0.1288265365
H   H93       1.0  0.33790  0.98290  0.15910  1.0000 0.1288265365
H   H94       1.0  0.22620  0.83800  0.49480  1.0000 0.1288265365
H   H95       1.0  0.18790  0.90010  0.44060  1.0000 0.119583469
H   H96       1.0  0.27550  0.91450  0.48080  1.0000 0.119583469
C   C1        1.0  0.76190  0.29740  0.75860  1.0000 0.2002424798
C   C2        1.0  0.38630  0.70660  0.61340  1.0000 -0.259830599
C   C3        1.0  0.67100  0.12480  0.80000  1.0000 0.2002424798
C   C4        1.0  0.51800  0.72340  0.69530  1.0000 0.5903434823
C   C5        1.0  0.70480  0.50090  0.71120  1.0000 0.5903434823
C   C6        1.0  0.68010  0.59360  0.28780  1.0000 0.2096530626
C   C7        1.0  0.13430  0.67150  0.68000  1.0000 0.217092983
C   C8        1.0  0.39160  0.76740  0.74750  1.0000 -0.2705804094
C   C9        1.0  0.78440  0.63150  0.12660  1.0000 0.2096530626
C   C10       1.0  0.26370  0.74380  0.66920  1.0000 -0.1114552982
C   C11       1.0  0.69900  0.41430  0.72430  1.0000 0.0178137741
C   C12       1.0  0.42930  0.73320  0.68420  1.0000 0.0096724886
C   C13       1.0  0.62640  0.37220  0.70440  1.0000 -0.2705804094
C   C14       1.0  0.72040  0.66600  0.00360  1.0000 0.0178137741
C   C15       1.0  0.65130  0.67810  0.12000  1.0000 0.217092983
C   C16       1.0  0.69180  0.25270  0.73800  1.0000 -0.1018547085
C   C17       1.0  0.78590  0.63760  0.04510  1.0000 -0.259830599
C   C18       1.0  0.65180  0.68640  0.04010  1.0000 -0.259830599
C   C19       1.0  0.17500  0.74130  0.66450  1.0000 -0.1018547085
C   C20       1.0  0.13090  0.80660  0.64680  1.0000 0.2002424798
C   C21       1.0  0.69030  0.16550  0.73620  1.0000 -0.1018547085
C   C22       1.0  0.05140  0.66760  0.67560  1.0000 -0.259830599
C   C23       1.0  0.72330  0.67980  0.91840  1.0000 0.5991822104
C   C24       1.0  0.71830  0.65130  0.16440  1.0000 -0.1114552982
C   C25       1.0  0.92000  0.58980  0.13950  1.0000 -0.259830599
C   C26       1.0  0.71920  0.65280  0.25180  1.0000 -0.1114552982
C   C27       1.0  0.14410  0.54330  0.72290  1.0000 -0.2302935567
C   C28       1.0  0.30890  0.77120  0.73930  1.0000 0.2096530626
C   C29       1.0  0.62340  0.29140  0.71080  1.0000 0.2002424798
C   C30       1.0  0.76720  0.37790  0.75200  1.0000 -0.259830599
C   C31       1.0  0.90020  0.29550  0.80730  1.0000 -0.2416898762
C   C32       1.0  0.30320  0.71210  0.60670  1.0000 0.2096530626
C   C33       1.0  0.48570  0.28090  0.65940  1.0000 -0.2302935567
C   C34       1.0  0.29290  0.65820  0.47100  1.0000 -0.2302935567
C   C35       1.0  0.13390  0.94210  0.61950  1.0000 -0.2504305223
C   C36       1.0  0.61280  0.46670  0.27180  1.0000 -0.2302935567
C   C37       1.0  0.62330  0.13300  0.92750  1.0000 -0.259830599
C   C38       1.0  0.52070  0.73040  0.12050  1.0000 -0.2416898762
C   C39       1.0  0.30950  0.83190  0.87040  1.0000 -0.2504305223
C   C40       1.0  0.01010  0.73410  0.65720  1.0000 0.0178137741
C   C41       1.0  0.92090  0.73080  0.65470  1.0000 0.5815125178
C   C42       1.0  0.04830  0.80360  0.64240  1.0000 -0.259830599
C   C43       1.0  0.67660  0.60040  0.37010  1.0000 -0.2705804094
C   C44       1.0  0.71070  0.66600  0.41450  1.0000 0.0096724886
C   C45       1.0  0.70400  0.67730  0.50170  1.0000 0.5903434823
C   C46       1.0  0.75170  0.72440  0.38060  1.0000 -0.2705804094
C   C47       1.0  0.75600  0.71680  0.29900  1.0000 0.2096530626
C   C48       1.0  0.83890  0.83280  0.30860  1.0000 -0.2416898762
C   C49       1.0  0.71600  0.12190  0.67000  1.0000 0.217092983
C   C50       1.0  0.71950  0.04060  0.66690  1.0000 -0.2705804094
C   C51       1.0  0.67540  0.04370  0.79810  1.0000 -0.2504305223
C   C52       1.0  0.69960  0.00260  0.73240  1.0000 0.0178137741
C   C53       1.0  0.70690  0.91390  0.72840  1.0000 0.5991822104
C   C54       1.0  0.76350  0.12500  0.54300  1.0000 -0.2302935567
C   C55       1.0  0.23810  0.70260  0.24140  1.0000 0.2002424798
C   C56       1.0  0.61370  0.29340  0.38660  1.0000 -0.2705804094
C   C57       1.0  0.32900  0.87520  0.20000  1.0000 0.2002424798
C   C58       1.0  0.48200  0.27660  0.30470  1.0000 0.5903434823
C   C59       1.0  0.29520  0.49910  0.28880  1.0000 0.5903434823
C   C60       1.0  0.31990  0.40640  0.71220  1.0000 0.2096530626
C   C61       1.0  0.86570  0.32850  0.32000  1.0000 0.217092983
C   C62       1.0  0.60840  0.23260  0.25250  1.0000 -0.2705804094
C   C63       1.0  0.21560  0.36850  0.87340  1.0000 0.2096530626
C   C64       1.0  0.73630  0.25620  0.33080  1.0000 -0.1114552982
C   C65       1.0  0.30100  0.58570  0.27570  1.0000 0.0178137741
C   C66       1.0  0.57070  0.26680  0.31580  1.0000 0.0096724886
C   C67       1.0  0.37360  0.62780  0.29560  1.0000 -0.2705804094
C   C68       1.0  0.27960  0.33400  0.99640  1.0000 0.0178137741
C   C69       1.0  0.34870  0.32190  0.88000  1.0000 0.217092983
C   C70       1.0  0.30820  0.74730  0.26200  1.0000 -0.1018547085
C   C71       1.0  0.21410  0.36240  0.95490  1.0000 -0.259830599
C   C72       1.0  0.34820  0.31360  0.95990  1.0000 -0.259830599
C   C73       1.0  0.82500  0.25870  0.33550  1.0000 -0.1018547085
C   C74       1.0  0.86910  0.19340  0.35320  1.0000 0.2002424798
C   C75       1.0  0.30970  0.83450  0.26380  1.0000 -0.1018547085
C   C76       1.0  0.94860  0.33240  0.32440  1.0000 -0.259830599
C   C77       1.0  0.27670  0.32020  0.08160  1.0000 0.5991822104
C   C78       1.0  0.28170  0.34870  0.83560  1.0000 -0.1114552982
C   C79       1.0  0.08000  0.41020  0.86050  1.0000 -0.259830599
C   C80       1.0  0.28080  0.34720  0.74820  1.0000 -0.1114552982
C   C81       1.0  0.85590  0.45670  0.27710  1.0000 -0.2245918592
C   C82       1.0  0.69110  0.22880  0.26070  1.0000 0.2096530626
C   C83       1.0  0.37660  0.70860  0.28920  1.0000 0.2002424798
C   C84       1.0  0.23280  0.62210  0.24800  1.0000 -0.259830599
C   C85       1.0  0.09980  0.70450  0.19270  1.0000 -0.2416898762
C   C86       1.0  0.69680  0.28790  0.39330  1.0000 0.2096530626
C   C87       1.0  0.51430  0.71910  0.34060  1.0000 -0.2302935567
C   C88       1.0  0.70710  0.34180  0.52900  1.0000 -0.2302935567
C   C89       1.0  0.86610  0.05790  0.38050  1.0000 -0.2504305223
C   C90       1.0  0.38720  0.53330  0.72820  1.0000 -0.2302935567
C   C91       1.0  0.37670  0.86700  0.07250  1.0000 -0.259830599
C   C92       1.0  0.47930  0.26960  0.87950  1.0000 -0.2416898762
C   C93       1.0  0.69050  0.16810  0.12960  1.0000 -0.2504305223
C   C94       1.0  0.98990  0.26590  0.34280  1.0000 0.0178137741
C   C95       1.0  0.07910  0.26920  0.34530  1.0000 0.5815125178
C   C96       1.0  0.95170  0.19640  0.35760  1.0000 -0.259830599
C   C97       1.0  0.32340  0.39960  0.62990  1.0000 -0.2705804094
C   C98       1.0  0.28930  0.33400  0.58550  1.0000 0.0096724886
C   C99       1.0  0.29600  0.32270  0.49830  1.0000 0.5903434823
C   C100      1.0  0.24830  0.27560  0.61940  1.0000 -0.2705804094
C   C101      1.0  0.24400  0.28320  0.70100  1.0000 0.2096530626
C   C102      1.0  0.16110  0.16720  0.69140  1.0000 -0.2416898762
C   C103      1.0  0.28400  0.87810  0.33000  1.0000 0.217092983
C   C104      1.0  0.28050  0.95940  0.33310  1.0000 -0.2705804094
C   C105      1.0  0.32460  0.95630  0.20190  1.0000 -0.2504305223
C   C106      1.0  0.30040  0.99740  0.26760  1.0000 0.0178137741
C   C107      1.0  0.29310  0.08610  0.27160  1.0000 0.5991822104
C   C108      1.0  0.23650  0.87500  0.45700  1.0000 -0.2302935567
O   O1        1.0  0.72621  0.70394  0.71375  1.0000 -1.0114230742
O   O2        1.0  0.64110  0.53103  0.68325  1.0000 -0.5317718987
O   O3        1.0  0.67459  0.62124  0.53420  1.0000 -0.5224044551
O   O4        1.0  0.76658  0.63775  0.87837  1.0000 -0.5704306742
O   O5        1.0  0.72787  0.88024  0.66711  1.0000 -0.5224044551
O   O6        1.0  0.77110  0.53599  0.72430  1.0000 -0.5387324472
O   O7        1.0  0.54651  0.68236  0.64045  1.0000 -0.5387324472
O   O8        1.0  0.25476  0.68790  0.53937  1.0000 -0.1492543983
O   O9        1.0  0.58880  0.69810  0.16247  1.0000 -0.1492543983
O   O10       1.0  0.68098  0.73470  0.89326  1.0000 -0.5387324472
O   O11       1.0  0.72750  0.74361  0.53573  1.0000 -0.5387324472
O   O12       1.0  0.88344  0.79210  0.64000  1.0000 -0.5317718987
O   O13       1.0  0.55437  0.75520  0.75737  1.0000 -0.5317718987
O   O14       1.0  0.68880  0.88069  0.78849  1.0000 -0.5317718987
O   O15       1.0  0.55607  0.24433  0.69010  1.0000 -0.1392473012
O   O16       1.0  0.88582  0.66690  0.66630  1.0000 -0.5704306742
O   O17       1.0  0.82690  0.25395  0.78510  1.0000 -0.1492543983
O   O18       1.0  0.18197  0.61153  0.69800  1.0000 -0.1392473012
O   O19       1.0  0.17641  0.87287  0.63390  1.0000 -0.1492543983
O   O20       1.0  0.64590  0.53326  0.23748  1.0000 -0.1392473012
O   O21       1.0  0.64690  0.17235  0.86227  1.0000 -0.1492543983
O   O22       1.0  0.26500  0.80270  0.79753  1.0000 -0.1392473012
O   O23       1.0  0.84788  0.60780  0.17485  1.0000 -0.1492543983
O   O24       1.0  0.79410  0.77110  0.25984  1.0000 -0.1392473012
O   O25       1.0  0.73370  0.16604  0.61060  1.0000 -0.1392473012
O   O26       1.0  0.27379  0.29606  0.28625  1.0000 -1.0114230742
O   O27       1.0  0.35890  0.46897  0.31675  1.0000 -0.5317718987
O   O28       1.0  0.32541  0.37876  0.46580  1.0000 -0.5224044551
O   O29       1.0  0.23342  0.36225  0.12163  1.0000 -0.5704306742
O   O30       1.0  0.27213  0.11976  0.33289  1.0000 -0.5224044551
O   O31       1.0  0.22890  0.46401  0.27570  1.0000 -0.5387324472
O   O32       1.0  0.45349  0.31764  0.35955  1.0000 -0.5387324472
O   O33       1.0  0.74524  0.31210  0.46063  1.0000 -0.1492543983
O   O34       1.0  0.41120  0.30190  0.83753  1.0000 -0.1492543983
O   O35       1.0  0.31902  0.26530  0.10674  1.0000 -0.5387324472
O   O36       1.0  0.27250  0.25639  0.46427  1.0000 -0.5387324472
O   O37       1.0  0.11656  0.20790  0.36000  1.0000 -0.5317718987
O   O38       1.0  0.44563  0.24480  0.24263  1.0000 -0.5317718987
O   O39       1.0  0.31120  0.11931  0.21151  1.0000 -0.5317718987
O   O40       1.0  0.44393  0.75567  0.30990  1.0000 -0.1392473012
O   O41       1.0  0.11418  0.33310  0.33370  1.0000 -0.5704306742
O   O42       1.0  0.17310  0.74605  0.21490  1.0000 -0.1492543983
O   O43       1.0  0.81803  0.38847  0.30200  1.0000 -0.1392473012
O   O44       1.0  0.82359  0.12713  0.36610  1.0000 -0.1492543983
O   O45       1.0  0.35410  0.46674  0.76252  1.0000 -0.1392473012
O   O46       1.0  0.35310  0.82765  0.13773  1.0000 -0.1492543983
O   O47       1.0  0.73500  0.19730  0.20247  1.0000 -0.1392473012
O   O48       1.0  0.15212  0.39220  0.82515  1.0000 -0.1492543983
O   O49       1.0  0.20590  0.22890  0.74016  1.0000 -0.1392473012
O   O50       1.0  0.26630  0.83396  0.38940  1.0000 -0.1392473012
