# DDEC6 charges by PACMAN v1.1 (https://github.com/mtap-research/PACMAN-charge/)
data_2017[Cu][ths]3[ASR]7
_chemical_formula_sum              "Cu8 C24 O48"
_cell_length_a       8.8052
_cell_length_b       33.7719
_cell_length_c       8.8294
_cell_angle_alpha    90
_cell_angle_beta     107.901
_cell_angle_gamma    90

_symmetry_space_group_name_H-M    "P 1"
_symmetry_Int_Tables_number       1

loop_
  _symmetry_equiv_pos_as_xyz
  'x, y, z'

loop_
  _atom_site_type_symbol
  _atom_site_label
  _atom_site_symmetry_multiplicity
  _atom_site_fract_x
  _atom_site_fract_y
  _atom_site_fract_z
  _atom_site_occupancy
  _atom_site_charge
Cu  Cu1       1.0  0.50238  0.79594  0.25303  1.0000 0.9178624567
Cu  Cu2       1.0  0.99762  0.29594  0.74697  1.0000 0.9178624567
Cu  Cu3       1.0  0.49762  0.20406  0.74697  1.0000 0.9178624567
Cu  Cu4       1.0  0.00238  0.70406  0.25303  1.0000 0.9178624567
Cu  Cu5       1.0  0.49787  0.95431  0.25755  1.0000 0.9178624567
Cu  Cu6       1.0  0.00213  0.45431  0.74245  1.0000 0.9178624567
Cu  Cu7       1.0  0.50213  0.04569  0.74245  1.0000 0.9178624567
Cu  Cu8       1.0  0.99787  0.54569  0.25755  1.0000 0.9178624567
C   C1        1.0  0.42780  0.87607  0.18130  1.0000 0.5578022715
C   C2        1.0  0.07220  0.37607  0.81870  1.0000 0.5578022715
C   C3        1.0  0.57220  0.12393  0.81870  1.0000 0.5578022715
C   C4        1.0  0.92780  0.62393  0.18130  1.0000 0.5578022715
C   C5        1.0  0.57970  0.87396  0.33010  1.0000 0.5578022715
C   C6        1.0  0.92030  0.37396  0.66990  1.0000 0.5578022715
C   C7        1.0  0.42030  0.12604  0.66990  1.0000 0.5578022715
C   C8        1.0  0.07970  0.62604  0.33010  1.0000 0.5578022715
C   C9        1.0  0.26120  0.74081  0.18550  1.0000 0.5502223488
C   C10       1.0  0.23880  0.24081  0.81450  1.0000 0.5502223488
C   C11       1.0  0.73880  0.25919  0.81450  1.0000 0.5502223488
C   C12       1.0  0.76120  0.75919  0.18550  1.0000 0.5502223488
C   C13       1.0  0.24790  0.76271  0.33530  1.0000 0.5421090689
C   C14       1.0  0.25210  0.26271  0.66470  1.0000 0.5421090689
C   C15       1.0  0.75210  0.23729  0.66470  1.0000 0.5421090689
C   C16       1.0  0.74790  0.73729  0.33530  1.0000 0.5421090689
C   C17       1.0  0.57750  0.98914  0.99780  1.0000 0.5578022715
C   C18       1.0  0.92250  0.48914  0.00220  1.0000 0.5578022715
C   C19       1.0  0.42250  0.01086  0.00220  1.0000 0.5578022715
C   C20       1.0  0.07750  0.51086  0.99780  1.0000 0.5578022715
C   C21       1.0  0.42820  0.98861  0.51200  1.0000 0.5334838744
C   C22       1.0  0.07180  0.48861  0.48800  1.0000 0.5334838744
C   C23       1.0  0.57180  0.01139  0.48800  1.0000 0.5334838744
C   C24       1.0  0.92820  0.51139  0.51200  1.0000 0.5334838744
O   O1        1.0  0.37673  0.84467  0.11354  1.0000 -0.4128408813
O   O2        1.0  0.12327  0.34467  0.88646  1.0000 -0.4128408813
O   O3        1.0  0.62327  0.15533  0.88646  1.0000 -0.4128408813
O   O4        1.0  0.87673  0.65533  0.11354  1.0000 -0.4128408813
O   O5        1.0  0.36865  0.90955  0.14279  1.0000 -0.4276245154
O   O6        1.0  0.13135  0.40955  0.85721  1.0000 -0.42162065
O   O7        1.0  0.63135  0.09045  0.85721  1.0000 -0.42162065
O   O8        1.0  0.86865  0.59045  0.14279  1.0000 -0.42162065
O   O9        1.0  0.62487  0.84024  0.38176  1.0000 -0.4276245154
O   O10       1.0  0.87513  0.34024  0.61824  1.0000 -0.4276245154
O   O11       1.0  0.37513  0.15976  0.61824  1.0000 -0.4276245154
O   O12       1.0  0.12487  0.65976  0.38176  1.0000 -0.4276245154
O   O13       1.0  0.64349  0.90570  0.38438  1.0000 -0.42162065
O   O14       1.0  0.85651  0.40570  0.61562  1.0000 -0.42162065
O   O15       1.0  0.35651  0.09430  0.61562  1.0000 -0.42162065
O   O16       1.0  0.14349  0.59430  0.38438  1.0000 -0.42162065
O   O17       1.0  0.33915  0.79198  0.38029  1.0000 -0.4484082978
O   O18       1.0  0.16085  0.29198  0.61971  1.0000 -0.4484082978
O   O19       1.0  0.66085  0.20802  0.61971  1.0000 -0.4484082978
O   O20       1.0  0.83915  0.70802  0.38029  1.0000 -0.4484082978
O   O21       1.0  0.15300  0.75030  0.40150  1.0000 -0.4128408813
O   O22       1.0  0.34700  0.25030  0.59850  1.0000 -0.4128408813
O   O23       1.0  0.84700  0.24970  0.59850  1.0000 -0.4128408813
O   O24       1.0  0.65300  0.74970  0.40150  1.0000 -0.4128408813
O   O25       1.0  0.36178  0.75382  0.12540  1.0000 -0.4389979165
O   O26       1.0  0.13822  0.25382  0.87460  1.0000 -0.4389979165
O   O27       1.0  0.63822  0.24618  0.87460  1.0000 -0.4389979165
O   O28       1.0  0.86178  0.74618  0.12540  1.0000 -0.4389979165
O   O29       1.0  0.17026  0.71241  0.13635  1.0000 -0.4128408813
O   O30       1.0  0.32974  0.21241  0.86365  1.0000 -0.4128408813
O   O31       1.0  0.82974  0.28759  0.86365  1.0000 -0.4128408813
O   O32       1.0  0.67026  0.78759  0.13635  1.0000 -0.4128408813
O   O33       1.0  0.61882  0.95988  0.08925  1.0000 -0.4484082978
O   O34       1.0  0.88118  0.45988  0.91075  1.0000 -0.4484082978
O   O35       1.0  0.38118  0.04012  0.91075  1.0000 -0.4484082978
O   O36       1.0  0.11882  0.54012  0.08925  1.0000 -0.4484082978
O   O37       1.0  0.64922  0.00177  0.90800  1.0000 -0.42162065
O   O38       1.0  0.85078  0.50177  0.09200  1.0000 -0.42162065
O   O39       1.0  0.35078  0.99823  0.09200  1.0000 -0.42162065
O   O40       1.0  0.14922  0.49823  0.90800  1.0000 -0.42162065
O   O41       1.0  0.37764  0.95968  0.42457  1.0000 -0.4276245154
O   O42       1.0  0.12236  0.45968  0.57543  1.0000 -0.4276245154
O   O43       1.0  0.62236  0.04032  0.57543  1.0000 -0.4276245154
O   O44       1.0  0.87764  0.54032  0.42457  1.0000 -0.4276245154
O   O45       1.0  0.37402  0.00148  0.61759  1.0000 -0.4389979165
O   O46       1.0  0.12598  0.50148  0.38241  1.0000 -0.4389979165
O   O47       1.0  0.62598  0.99852  0.38241  1.0000 -0.4389979165
O   O48       1.0  0.87402  0.49852  0.61759  1.0000 -0.4389979165
