# DDEC6 charges by PACMAN v1.1 (https://github.com/mtap-research/PACMAN-charge/)
data_2017[Cu][nbo]3[ASR]3
_chemical_formula_sum              "Cu12 H192 C216 O96"
_cell_length_a       15.3035
_cell_length_b       39.6946
_cell_length_c       22.4235
_cell_angle_alpha    90
_cell_angle_beta     113.233
_cell_angle_gamma    90

_symmetry_space_group_name_H-M    "P 1"
_symmetry_Int_Tables_number       1

loop_
  _symmetry_equiv_pos_as_xyz
  'x, y, z'

loop_
  _atom_site_type_symbol
  _atom_site_label
  _atom_site_symmetry_multiplicity
  _atom_site_fract_x
  _atom_site_fract_y
  _atom_site_fract_z
  _atom_site_occupancy
  _atom_site_charge
Cu  Cu1       1.0  0.09628  0.23648  0.79715  1.0000 0.8669032113
Cu  Cu2       1.0  0.90372  0.73648  0.70285  1.0000 0.8669032113
Cu  Cu3       1.0  0.90372  0.76352  0.20285  1.0000 0.8669032113
Cu  Cu4       1.0  0.09628  0.26352  0.29715  1.0000 0.8669032113
Cu  Cu5       1.0  0.05776  0.28338  0.86629  1.0000 0.8669032113
Cu  Cu6       1.0  0.94224  0.78338  0.63371  1.0000 0.8669032113
Cu  Cu7       1.0  0.94224  0.71662  0.13371  1.0000 0.8669032113
Cu  Cu8       1.0  0.05776  0.21662  0.36629  1.0000 0.8669032113
Cu  Cu9       1.0  0.57272  0.99217  0.05409  1.0000 0.8628237353
Cu  Cu10      1.0  0.42728  0.49217  0.44591  1.0000 0.8628237353
Cu  Cu11      1.0  0.42728  0.00783  0.94591  1.0000 0.8628237353
Cu  Cu12      1.0  0.57272  0.50783  0.55409  1.0000 0.8628237353
H   H1        1.0  0.75930  0.30120  0.74250  1.0000 0.1400516316
H   H2        1.0  0.24070  0.80120  0.75750  1.0000 0.1400516316
H   H3        1.0  0.24070  0.69880  0.25750  1.0000 0.1400516316
H   H4        1.0  0.75930  0.19880  0.24250  1.0000 0.1400516316
H   H5        1.0  0.88830  0.22380  0.94040  1.0000 0.1400516316
H   H6        1.0  0.11170  0.72380  0.55960  1.0000 0.1400516316
H   H7        1.0  0.11170  0.77620  0.05960  1.0000 0.1400516316
H   H8        1.0  0.88830  0.27620  0.44040  1.0000 0.1400516316
H   H9        1.0  0.77700  0.06210  0.04510  1.0000 0.1400516316
H   H10       1.0  0.22300  0.56210  0.45490  1.0000 0.1400516316
H   H11       1.0  0.22300  0.93790  0.95490  1.0000 0.1457853423
H   H12       1.0  0.77700  0.43790  0.54510  1.0000 0.1400516316
H   H13       1.0  0.55220  0.09160  0.88670  1.0000 0.1293363971
H   H14       1.0  0.44780  0.59160  0.61330  1.0000 0.1293363971
H   H15       1.0  0.44780  0.90840  0.11330  1.0000 0.1293363971
H   H16       1.0  0.55220  0.40840  0.38670  1.0000 0.1293363971
H   H17       1.0  0.83020  0.23080  0.64060  1.0000 0.1293363971
H   H18       1.0  0.16980  0.73080  0.85940  1.0000 0.1400516316
H   H19       1.0  0.16980  0.76920  0.35940  1.0000 0.1293363971
H   H20       1.0  0.83020  0.26920  0.14060  1.0000 0.1293363971
H   H21       1.0  0.25830  0.29510  0.71930  1.0000 0.1400516316
H   H22       1.0  0.74170  0.79510  0.78070  1.0000 0.1400516316
H   H23       1.0  0.74170  0.70490  0.28070  1.0000 0.1400516316
H   H24       1.0  0.25830  0.20490  0.21930  1.0000 0.1400516316
H   H25       1.0  0.14230  0.36990  0.78240  1.0000 0.1400516316
H   H26       1.0  0.85770  0.86990  0.71760  1.0000 0.1400516316
H   H27       1.0  0.85770  0.63010  0.21760  1.0000 0.1400516316
H   H28       1.0  0.14230  0.13010  0.28240  1.0000 0.1400516316
H   H29       1.0  0.98290  0.15050  0.85730  1.0000 0.1400516316
H   H30       1.0  0.01710  0.65050  0.64270  1.0000 0.1400516316
H   H31       1.0  0.01710  0.84950  0.14270  1.0000 0.1400516316
H   H32       1.0  0.98290  0.34950  0.35730  1.0000 0.1400516316
H   H33       1.0  0.32110  0.22030  0.53630  1.0000 0.1293363971
H   H34       1.0  0.67890  0.72030  0.96370  1.0000 0.1293363971
H   H35       1.0  0.67890  0.77970  0.46370  1.0000 0.1293363971
H   H36       1.0  0.32110  0.27970  0.03630  1.0000 0.1293363971
H   H37       1.0  0.37790  0.28850  0.42350  1.0000 0.1400516316
H   H38       1.0  0.62210  0.78850  0.07650  1.0000 0.1400516316
H   H39       1.0  0.62210  0.71150  0.57650  1.0000 0.1400516316
H   H40       1.0  0.37790  0.21150  0.92350  1.0000 0.1400516316
H   H41       1.0  0.26320  0.44030  0.53160  1.0000 0.1400516316
H   H42       1.0  0.73680  0.94030  0.96840  1.0000 0.1400516316
H   H43       1.0  0.73680  0.55970  0.46840  1.0000 0.1400516316
H   H44       1.0  0.26320  0.05970  0.03160  1.0000 0.1400516316
H   H45       1.0  0.51200  0.44010  0.68690  1.0000 0.1293363971
H   H46       1.0  0.48800  0.94010  0.81310  1.0000 0.1293363971
H   H47       1.0  0.48800  0.55990  0.31310  1.0000 0.1293363971
H   H48       1.0  0.51200  0.05990  0.18690  1.0000 0.1293363971
H   H49       1.0  0.72880  0.22220  0.01410  1.0000 0.1293363971
H   H50       1.0  0.27120  0.72220  0.48590  1.0000 0.1293363971
H   H51       1.0  0.27120  0.77780  0.98590  1.0000 0.1293363971
H   H52       1.0  0.72880  0.27780  0.51410  1.0000 0.1293363971
H   H53       1.0  0.83420  0.22660  0.02120  1.0000 0.1192657918
H   H54       1.0  0.16580  0.72660  0.47880  1.0000 0.1192657918
H   H55       1.0  0.16580  0.77340  0.97880  1.0000 0.1192657918
H   H56       1.0  0.83420  0.27340  0.52120  1.0000 0.1192657918
H   H57       1.0  0.75030  0.23410  0.95460  1.0000 0.1192657918
H   H58       1.0  0.24970  0.73410  0.54540  1.0000 0.1192657918
H   H59       1.0  0.24970  0.76590  0.04540  1.0000 0.1192657918
H   H60       1.0  0.75030  0.26590  0.45460  1.0000 0.1192657918
H   H61       1.0  0.58770  0.33020  0.44500  1.0000 0.1293363971
H   H62       1.0  0.41230  0.83020  0.05500  1.0000 0.1293363971
H   H63       1.0  0.41230  0.66980  0.55500  1.0000 0.1293363971
H   H64       1.0  0.58770  0.16980  0.94500  1.0000 0.1293363971
H   H65       1.0  0.51810  0.30120  0.40750  1.0000 0.1192657918
H   H66       1.0  0.48190  0.80120  0.09250  1.0000 0.1192657918
H   H67       1.0  0.48190  0.69880  0.59250  1.0000 0.1192657918
H   H68       1.0  0.51810  0.19880  0.90750  1.0000 0.1192657918
H   H69       1.0  0.48100  0.33130  0.43640  1.0000 0.1192657918
H   H70       1.0  0.51900  0.83130  0.06360  1.0000 0.1192657918
H   H71       1.0  0.51900  0.66870  0.56360  1.0000 0.1192657918
H   H72       1.0  0.48100  0.16870  0.93640  1.0000 0.1192657918
H   H73       1.0  0.54350  0.33820  0.71680  1.0000 0.1293363971
H   H74       1.0  0.45650  0.83820  0.78320  1.0000 0.1293363971
H   H75       1.0  0.45650  0.66180  0.28320  1.0000 0.1293363971
H   H76       1.0  0.54350  0.16180  0.21680  1.0000 0.1293363971
H   H77       1.0  0.62630  0.31460  0.76010  1.0000 0.1192657918
H   H78       1.0  0.37370  0.81460  0.73990  1.0000 0.1192657918
H   H79       1.0  0.37370  0.68540  0.23990  1.0000 0.1192657918
H   H80       1.0  0.62630  0.18540  0.26010  1.0000 0.1192657918
H   H81       1.0  0.64530  0.34220  0.71670  1.0000 0.1192657918
H   H82       1.0  0.35470  0.84220  0.78330  1.0000 0.1192657918
H   H83       1.0  0.35470  0.65780  0.28330  1.0000 0.1192657918
H   H84       1.0  0.64530  0.15780  0.21670  1.0000 0.1192657918
H   H85       1.0  0.69100  0.18390  0.50570  1.0000 0.1293363971
H   H86       1.0  0.30900  0.68390  0.99430  1.0000 0.1293363971
H   H87       1.0  0.30900  0.81610  0.49430  1.0000 0.1293363971
H   H88       1.0  0.69100  0.31610  0.00570  1.0000 0.1293363971
H   H89       1.0  0.77210  0.21030  0.53790  1.0000 0.1111259854
H   H90       1.0  0.22790  0.71030  0.96210  1.0000 0.1111259854
H   H91       1.0  0.22790  0.78970  0.46210  1.0000 0.1111259854
H   H92       1.0  0.77210  0.28970  0.03790  1.0000 0.1111259854
H   H93       1.0  0.75010  0.18320  0.58080  1.0000 0.1293363971
H   H94       1.0  0.24990  0.68320  0.91920  1.0000 0.1293363971
H   H95       1.0  0.24990  0.81680  0.41920  1.0000 0.1293363971
H   H96       1.0  0.75010  0.31680  0.08080  1.0000 0.1293363971
H   H97       1.0  0.01070  0.08980  0.11090  1.0000 0.1293363971
H   H98       1.0  0.98930  0.58980  0.38910  1.0000 0.1293363971
H   H99       1.0  0.98930  0.91020  0.88910  1.0000 0.1293363971
H   H100      1.0  0.01070  0.41020  0.61090  1.0000 0.1293363971
H   H101      1.0  0.91260  0.08750  0.11750  1.0000 0.1192657918
H   H102      1.0  0.08740  0.58750  0.38250  1.0000 0.1192657918
H   H103      1.0  0.08740  0.91250  0.88250  1.0000 0.1192657918
H   H104      1.0  0.91260  0.41250  0.61750  1.0000 0.1192657918
H   H105      1.0  0.94000  0.06050  0.07690  1.0000 0.1192657918
H   H106      1.0  0.06000  0.56050  0.42310  1.0000 0.1192657918
H   H107      1.0  0.06000  0.93950  0.92310  1.0000 0.1192657918
H   H108      1.0  0.94000  0.43950  0.57690  1.0000 0.1192657918
H   H109      1.0  0.52940  0.15190  0.77160  1.0000 0.1293363971
H   H110      1.0  0.47060  0.65190  0.72840  1.0000 0.1293363971
H   H111      1.0  0.47060  0.84810  0.22840  1.0000 0.1293363971
H   H112      1.0  0.52940  0.34810  0.27160  1.0000 0.1293363971
H   H113      1.0  0.53060  0.11350  0.78820  1.0000 0.1293363971
H   H114      1.0  0.46940  0.61350  0.71180  1.0000 0.1293363971
H   H115      1.0  0.46940  0.88650  0.21180  1.0000 0.1293363971
H   H116      1.0  0.53060  0.38650  0.28820  1.0000 0.1293363971
H   H117      1.0  0.50430  0.14030  0.82980  1.0000 0.1111259854
H   H118      1.0  0.49570  0.64030  0.67020  1.0000 0.1111259854
H   H119      1.0  0.49570  0.85970  0.17020  1.0000 0.1111259854
H   H120      1.0  0.50430  0.35970  0.32980  1.0000 0.1111259854
H   H121      1.0  0.93010  0.06590  0.83620  1.0000 0.1293363971
H   H122      1.0  0.06990  0.56590  0.66380  1.0000 0.1293363971
H   H123      1.0  0.06990  0.93410  0.16380  1.0000 0.1293363971
H   H124      1.0  0.93010  0.43410  0.33620  1.0000 0.1293363971
H   H125      1.0  0.91680  0.10120  0.80240  1.0000 0.1192657918
H   H126      1.0  0.08320  0.60120  0.69760  1.0000 0.1192657918
H   H127      1.0  0.08320  0.89880  0.19760  1.0000 0.1192657918
H   H128      1.0  0.91680  0.39880  0.30240  1.0000 0.1192657918
H   H129      1.0  0.00470  0.09450  0.86750  1.0000 0.1111259854
H   H130      1.0  0.99530  0.59450  0.63250  1.0000 0.1111259854
H   H131      1.0  0.99530  0.90550  0.13250  1.0000 0.1111259854
H   H132      1.0  0.00470  0.40550  0.36750  1.0000 0.1111259854
H   H133      1.0  0.04880  0.40170  0.50400  1.0000 0.1293363971
H   H134      1.0  0.95120  0.90170  0.99600  1.0000 0.1293363971
H   H135      1.0  0.95120  0.59830  0.49600  1.0000 0.1293363971
H   H136      1.0  0.04880  0.09830  0.00400  1.0000 0.1293363971
H   H137      1.0  0.10670  0.43540  0.51490  1.0000 0.1192657918
H   H138      1.0  0.89330  0.93540  0.98510  1.0000 0.1192657918
H   H139      1.0  0.89330  0.56460  0.48510  1.0000 0.1192657918
H   H140      1.0  0.10670  0.06460  0.01490  1.0000 0.1192657918
H   H141      1.0  0.13850  0.40370  0.48680  1.0000 0.1192657918
H   H142      1.0  0.86150  0.90370  0.01320  1.0000 0.1192657918
H   H143      1.0  0.86150  0.59630  0.51320  1.0000 0.1192657918
H   H144      1.0  0.13850  0.09630  0.98680  1.0000 0.1192657918
H   H145      1.0  0.39040  0.29610  0.62390  1.0000 0.1293363971
H   H146      1.0  0.60960  0.79610  0.87610  1.0000 0.1293363971
H   H147      1.0  0.60960  0.70390  0.37610  1.0000 0.1293363971
H   H148      1.0  0.39040  0.20390  0.12390  1.0000 0.1293363971
H   H149      1.0  0.38060  0.28680  0.68890  1.0000 0.1192657918
H   H150      1.0  0.61940  0.78680  0.81110  1.0000 0.1192657918
H   H151      1.0  0.61940  0.71320  0.31110  1.0000 0.1192657918
H   H152      1.0  0.38060  0.21320  0.18890  1.0000 0.1192657918
H   H153      1.0  0.28980  0.28920  0.62420  1.0000 0.1192657918
H   H154      1.0  0.71020  0.78920  0.87580  1.0000 0.1192657918
H   H155      1.0  0.71020  0.71080  0.37580  1.0000 0.1192657918
H   H156      1.0  0.28980  0.21080  0.12420  1.0000 0.1192657918
H   H157      1.0  0.58430  0.39660  0.83190  1.0000 0.1293363971
H   H158      1.0  0.41570  0.89660  0.66810  1.0000 0.1293363971
H   H159      1.0  0.41570  0.60340  0.16810  1.0000 0.1293363971
H   H160      1.0  0.58430  0.10340  0.33190  1.0000 0.1293363971
H   H161      1.0  0.59150  0.39930  0.76430  1.0000 0.1111259854
H   H162      1.0  0.40850  0.89930  0.73570  1.0000 0.1111259854
H   H163      1.0  0.40850  0.60070  0.23570  1.0000 0.1111259854
H   H164      1.0  0.59150  0.10070  0.26430  1.0000 0.1111259854
H   H165      1.0  0.56430  0.43110  0.79490  1.0000 0.1111259854
H   H166      1.0  0.43570  0.93110  0.70510  1.0000 0.1111259854
H   H167      1.0  0.43570  0.56890  0.20510  1.0000 0.1111259854
H   H168      1.0  0.56430  0.06890  0.29490  1.0000 0.1111259854
H   H169      1.0  0.14530  0.45710  0.76320  1.0000 0.1192657918
H   H170      1.0  0.85470  0.95710  0.73680  1.0000 0.1192657918
H   H171      1.0  0.85470  0.54290  0.23680  1.0000 0.1192657918
H   H172      1.0  0.14530  0.04290  0.26320  1.0000 0.1192657918
H   H173      1.0  0.08460  0.42400  0.74380  1.0000 0.1111259854
H   H174      1.0  0.91540  0.92400  0.75620  1.0000 0.1111259854
H   H175      1.0  0.91540  0.57600  0.25620  1.0000 0.1111259854
H   H176      1.0  0.08460  0.07600  0.24380  1.0000 0.1048144059
H   H177      1.0  0.17280  0.42600  0.81010  1.0000 0.1111259854
H   H178      1.0  0.82720  0.92600  0.68990  1.0000 0.1111259854
H   H179      1.0  0.82720  0.57400  0.18990  1.0000 0.1111259854
H   H180      1.0  0.17280  0.07400  0.31010  1.0000 0.1111259854
H   H181      1.0  0.46050  0.18720  0.68590  1.0000 0.1192657918
H   H182      1.0  0.53950  0.68720  0.81410  1.0000 0.1192657918
H   H183      1.0  0.53950  0.81280  0.31410  1.0000 0.1192657918
H   H184      1.0  0.46050  0.31280  0.18590  1.0000 0.1192657918
H   H185      1.0  0.37560  0.21110  0.64650  1.0000 0.1192657918
H   H186      1.0  0.62440  0.71110  0.85350  1.0000 0.1192657918
H   H187      1.0  0.62440  0.78890  0.35350  1.0000 0.1192657918
H   H188      1.0  0.37560  0.28890  0.14650  1.0000 0.1192657918
H   H189      1.0  0.40450  0.18170  0.61120  1.0000 0.1192657918
H   H190      1.0  0.59550  0.68170  0.88880  1.0000 0.1192657918
H   H191      1.0  0.59550  0.81830  0.38880  1.0000 0.1192657918
H   H192      1.0  0.40450  0.31830  0.11120  1.0000 0.1192657918
C   C1        1.0  0.59618  0.04743  0.98265  1.0000 0.5809183575
C   C2        1.0  0.40382  0.54743  0.51735  1.0000 0.5809183575
C   C3        1.0  0.40382  0.95257  0.01735  1.0000 0.5809183575
C   C4        1.0  0.59618  0.45257  0.48265  1.0000 0.5809183575
C   C5        1.0  0.91100  0.26723  0.74572  1.0000 0.5809183575
C   C6        1.0  0.08900  0.76723  0.75428  1.0000 0.5809183575
C   C7        1.0  0.08900  0.73277  0.25428  1.0000 0.5809183575
C   C8        1.0  0.91100  0.23277  0.24572  1.0000 0.5809183575
C   C9        1.0  0.14895  0.30346  0.78303  1.0000 0.5851086633
C   C10       1.0  0.85105  0.80346  0.71697  1.0000 0.5851086633
C   C11       1.0  0.85105  0.69654  0.21697  1.0000 0.5851086633
C   C12       1.0  0.14895  0.19654  0.28303  1.0000 0.5809183575
C   C13       1.0  0.23815  0.24922  0.42082  1.0000 0.5809183575
C   C14       1.0  0.76185  0.74922  0.07918  1.0000 0.5809183575
C   C15       1.0  0.76185  0.75078  0.57918  1.0000 0.5809183575
C   C16       1.0  0.23815  0.25078  0.92082  1.0000 0.5809183575
C   C17       1.0  0.74183  0.28635  0.70768  1.0000 -0.2593314875
C   C18       1.0  0.25817  0.78635  0.79232  1.0000 -0.2593314875
C   C19       1.0  0.25817  0.71365  0.29232  1.0000 -0.2593314875
C   C20       1.0  0.74183  0.21365  0.20768  1.0000 -0.2593314875
C   C21       1.0  0.62075  0.26164  0.61292  1.0000 -0.1026864616
C   C22       1.0  0.37925  0.76164  0.88708  1.0000 -0.1026864616
C   C23       1.0  0.37925  0.73836  0.38708  1.0000 -0.1026864616
C   C24       1.0  0.62075  0.23836  0.11292  1.0000 -0.1026864616
C   C25       1.0  0.88746  0.20139  0.92815  1.0000 -0.2593314875
C   C26       1.0  0.11254  0.70139  0.57185  1.0000 -0.2593314875
C   C27       1.0  0.11254  0.79861  0.07185  1.0000 -0.2593314875
C   C28       1.0  0.88746  0.29861  0.42815  1.0000 -0.2593314875
C   C29       1.0  0.52033  0.25952  0.56539  1.0000 -0.1086949241
C   C30       1.0  0.47967  0.75952  0.93461  1.0000 -0.1086949241
C   C31       1.0  0.47967  0.74048  0.43461  1.0000 -0.1086949241
C   C32       1.0  0.52033  0.24048  0.06539  1.0000 -0.1086949241
C   C33       1.0  0.76981  0.11970  0.94064  1.0000 -0.1086949241
C   C34       1.0  0.23019  0.61970  0.55936  1.0000 -0.1086949241
C   C35       1.0  0.23019  0.88030  0.05936  1.0000 -0.1086949241
C   C36       1.0  0.76981  0.38030  0.44064  1.0000 -0.1086949241
C   C37       1.0  0.68958  0.24103  0.60486  1.0000 0.2094488806
C   C38       1.0  0.31042  0.74103  0.89514  1.0000 0.2094488806
C   C39       1.0  0.31042  0.75897  0.39514  1.0000 0.2094488806
C   C40       1.0  0.68958  0.25897  0.10486  1.0000 0.2094488806
C   C41       1.0  0.75135  0.07585  0.00870  1.0000 -0.2685794448
C   C42       1.0  0.24865  0.57585  0.49130  1.0000 -0.2593314875
C   C43       1.0  0.24865  0.92415  0.99130  1.0000 -0.2593314875
C   C44       1.0  0.75135  0.42415  0.50870  1.0000 -0.2593314875
C   C45       1.0  0.67279  0.11708  0.90049  1.0000 0.2094488806
C   C46       1.0  0.32721  0.61708  0.59951  1.0000 0.2094488806
C   C47       1.0  0.32721  0.88292  0.09951  1.0000 0.2094488806
C   C48       1.0  0.67279  0.38292  0.40049  1.0000 0.2094488806
C   C49       1.0  0.64869  0.28417  0.66479  1.0000 0.2036034869
C   C50       1.0  0.35131  0.78417  0.83521  1.0000 0.2036034869
C   C51       1.0  0.35131  0.71583  0.33521  1.0000 0.2036034869
C   C52       1.0  0.64869  0.21583  0.16479  1.0000 0.2036034869
C   C53       1.0  0.83093  0.14471  0.92509  1.0000 -0.1086949241
C   C54       1.0  0.16907  0.64471  0.57491  1.0000 -0.1086949241
C   C55       1.0  0.16907  0.85529  0.07491  1.0000 -0.1086949241
C   C56       1.0  0.83093  0.35529  0.42509  1.0000 -0.1086949241
C   C57       1.0  0.83063  0.17853  0.94183  1.0000 0.2036034869
C   C58       1.0  0.16937  0.67853  0.55817  1.0000 0.2036034869
C   C59       1.0  0.16937  0.82147  0.05817  1.0000 0.2036034869
C   C60       1.0  0.83063  0.32147  0.44183  1.0000 0.2036034869
C   C61       1.0  0.80813  0.09895  0.99483  1.0000 0.2094488806
C   C62       1.0  0.19187  0.59895  0.50517  1.0000 0.2094488806
C   C63       1.0  0.19187  0.90105  0.00517  1.0000 0.2094488806
C   C64       1.0  0.80813  0.40105  0.49483  1.0000 0.2094488806
C   C65       1.0  0.81021  0.26605  0.69868  1.0000 0.0185902387
C   C66       1.0  0.18979  0.76605  0.80132  1.0000 0.0185902387
C   C67       1.0  0.18979  0.73395  0.30132  1.0000 0.0185902387
C   C68       1.0  0.81021  0.23395  0.19868  1.0000 0.0185902387
C   C69       1.0  0.99944  0.21628  0.87680  1.0000 0.5809183575
C   C70       1.0  0.00056  0.71628  0.62320  1.0000 0.5809183575
C   C71       1.0  0.00056  0.78372  0.12320  1.0000 0.5809183575
C   C72       1.0  0.99944  0.28372  0.37680  1.0000 0.5809183575
C   C73       1.0  0.61617  0.09364  0.91383  1.0000 -0.2685794448
C   C74       1.0  0.38383  0.59364  0.58617  1.0000 -0.2685794448
C   C75       1.0  0.38383  0.90636  0.08617  1.0000 -0.2685794448
C   C76       1.0  0.61617  0.40636  0.41383  1.0000 -0.2685794448
C   C77       1.0  0.78422  0.24386  0.64704  1.0000 -0.2593314875
C   C78       1.0  0.21578  0.74386  0.85296  1.0000 -0.2593314875
C   C79       1.0  0.21578  0.75614  0.35296  1.0000 -0.2593314875
C   C80       1.0  0.78422  0.25614  0.14704  1.0000 -0.2593314875
C   C81       1.0  0.94381  0.19086  0.89599  1.0000 0.0185902387
C   C82       1.0  0.05619  0.69086  0.60401  1.0000 0.0185902387
C   C83       1.0  0.05619  0.80914  0.10401  1.0000 0.0185902387
C   C84       1.0  0.94381  0.30914  0.39599  1.0000 0.0185902387
C   C85       1.0  0.49108  0.27847  0.50814  1.0000 0.2180135762
C   C86       1.0  0.50892  0.77847  0.99186  1.0000 0.2180135762
C   C87       1.0  0.50892  0.72153  0.49186  1.0000 0.2180135762
C   C88       1.0  0.49108  0.22153  0.00814  1.0000 0.2180135762
C   C89       1.0  0.24892  0.31801  0.72275  1.0000 -0.2593314875
C   C90       1.0  0.75108  0.81801  0.77725  1.0000 -0.2593314875
C   C91       1.0  0.75108  0.68199  0.27725  1.0000 -0.2593314875
C   C92       1.0  0.24892  0.18199  0.22275  1.0000 -0.2593314875
C   C93       1.0  0.65560  0.07322  0.96795  1.0000 0.0185902387
C   C94       1.0  0.34440  0.57322  0.53205  1.0000 0.0185902387
C   C95       1.0  0.34440  0.92678  0.03205  1.0000 0.0185902387
C   C96       1.0  0.65560  0.42678  0.46795  1.0000 0.0185902387
C   C97       1.0  0.28941  0.34140  0.69481  1.0000 0.2094488806
C   C98       1.0  0.71059  0.84140  0.80519  1.0000 0.2180135762
C   C99       1.0  0.71059  0.65860  0.30519  1.0000 0.2180135762
C   C100      1.0  0.28941  0.15860  0.19481  1.0000 0.2180135762
C   C101      1.0  0.19500  0.32918  0.75548  1.0000 0.0185902387
C   C102      1.0  0.80500  0.82918  0.74452  1.0000 0.0185902387
C   C103      1.0  0.80500  0.67082  0.24452  1.0000 0.0185902387
C   C104      1.0  0.19500  0.17082  0.25548  1.0000 0.0185902387
C   C105      1.0  0.17950  0.36287  0.76050  1.0000 -0.2474888978
C   C106      1.0  0.82050  0.86287  0.73950  1.0000 -0.2474888978
C   C107      1.0  0.82050  0.63713  0.23950  1.0000 -0.2474888978
C   C108      1.0  0.17950  0.13713  0.26050  1.0000 -0.2474888978
C   C109      1.0  0.27597  0.37559  0.70037  1.0000 -0.1026864616
C   C110      1.0  0.72403  0.87559  0.79963  1.0000 -0.1086949241
C   C111      1.0  0.72403  0.62441  0.29963  1.0000 -0.1026864616
C   C112      1.0  0.27597  0.12441  0.20037  1.0000 -0.1026864616
C   C113      1.0  0.31605  0.40037  0.66802  1.0000 -0.1086949241
C   C114      1.0  0.68395  0.90037  0.83198  1.0000 -0.1086949241
C   C115      1.0  0.68395  0.59963  0.33198  1.0000 -0.1086949241
C   C116      1.0  0.31605  0.09963  0.16802  1.0000 -0.1086949241
C   C117      1.0  0.94487  0.15736  0.87879  1.0000 -0.2685794448
C   C118      1.0  0.05513  0.65736  0.62121  1.0000 -0.2593314875
C   C119      1.0  0.05513  0.84264  0.12121  1.0000 -0.2593314875
C   C120      1.0  0.94487  0.34264  0.37879  1.0000 -0.2593314875
C   C121      1.0  0.45618  0.23766  0.57548  1.0000 0.2094488806
C   C122      1.0  0.54382  0.73766  0.92452  1.0000 0.2094488806
C   C123      1.0  0.54382  0.76234  0.42452  1.0000 0.2094488806
C   C124      1.0  0.45618  0.26234  0.07548  1.0000 0.2094488806
C   C125      1.0  0.88928  0.13417  0.89363  1.0000 0.2094488806
C   C126      1.0  0.11072  0.63417  0.60637  1.0000 0.2180135762
C   C127      1.0  0.11072  0.86583  0.10637  1.0000 0.2180135762
C   C128      1.0  0.88928  0.36583  0.39363  1.0000 0.2180135762
C   C129      1.0  0.21900  0.38629  0.73330  1.0000 0.2180135762
C   C130      1.0  0.78100  0.88629  0.76670  1.0000 0.2180135762
C   C131      1.0  0.78100  0.61371  0.26670  1.0000 0.2180135762
C   C132      1.0  0.21900  0.11371  0.23330  1.0000 0.2180135762
C   C133      1.0  0.36382  0.23473  0.52921  1.0000 -0.2685794448
C   C134      1.0  0.63618  0.73473  0.97079  1.0000 -0.2685794448
C   C135      1.0  0.63618  0.76527  0.47079  1.0000 -0.2685794448
C   C136      1.0  0.36382  0.26527  0.02921  1.0000 -0.2685794448
C   C137      1.0  0.39780  0.27570  0.46127  1.0000 -0.2685794448
C   C138      1.0  0.60220  0.77570  0.03873  1.0000 -0.2685794448
C   C139      1.0  0.60220  0.72430  0.53873  1.0000 -0.2685794448
C   C140      1.0  0.39780  0.22430  0.96127  1.0000 -0.2685794448
C   C141      1.0  0.30033  0.43283  0.57329  1.0000 -0.2593314875
C   C142      1.0  0.69967  0.93283  0.92671  1.0000 -0.2593314875
C   C143      1.0  0.69967  0.56717  0.42671  1.0000 -0.2593314875
C   C144      1.0  0.30033  0.06717  0.07329  1.0000 -0.2593314875
C   C145      1.0  0.39434  0.44254  0.60316  1.0000 0.0185902387
C   C146      1.0  0.60566  0.94254  0.89684  1.0000 0.0185902387
C   C147      1.0  0.60566  0.55746  0.39684  1.0000 0.0185902387
C   C148      1.0  0.39434  0.05746  0.10316  1.0000 0.0185902387
C   C149      1.0  0.33580  0.25337  0.47268  1.0000 0.0185902387
C   C150      1.0  0.66420  0.75337  0.02732  1.0000 0.0185902387
C   C151      1.0  0.66420  0.74663  0.52732  1.0000 0.0185902387
C   C152      1.0  0.33580  0.24663  0.97268  1.0000 0.0185902387
C   C153      1.0  0.44966  0.43256  0.66625  1.0000 -0.2593314875
C   C154      1.0  0.55034  0.93256  0.83375  1.0000 -0.2593314875
C   C155      1.0  0.55034  0.56744  0.33375  1.0000 -0.2593314875
C   C156      1.0  0.44966  0.06744  0.16625  1.0000 -0.2593314875
C   C157      1.0  0.43719  0.46392  0.56660  1.0000 0.5809183575
C   C158      1.0  0.56281  0.96392  0.93340  1.0000 0.5809183575
C   C159      1.0  0.56281  0.53608  0.43340  1.0000 0.5809183575
C   C160      1.0  0.43719  0.03608  0.06660  1.0000 0.5809183575
C   C161      1.0  0.26184  0.41181  0.60620  1.0000 0.2094488806
C   C162      1.0  0.73816  0.91181  0.89380  1.0000 0.2094488806
C   C163      1.0  0.73816  0.58819  0.39380  1.0000 0.2094488806
C   C164      1.0  0.26184  0.08819  0.10620  1.0000 0.2094488806
C   C165      1.0  0.41022  0.41117  0.69798  1.0000 0.2180135762
C   C166      1.0  0.58978  0.91117  0.80202  1.0000 0.2180135762
C   C167      1.0  0.58978  0.58883  0.30202  1.0000 0.2180135762
C   C168      1.0  0.41022  0.08883  0.19798  1.0000 0.2180135762
C   C169      1.0  0.77134  0.21996  0.99234  1.0000 -0.2392452165
C   C170      1.0  0.22866  0.71996  0.50766  1.0000 -0.2392452165
C   C171      1.0  0.22866  0.78004  0.00766  1.0000 -0.2392452165
C   C172      1.0  0.77134  0.28004  0.49234  1.0000 -0.2392452165
C   C173      1.0  0.53432  0.31685  0.44292  1.0000 -0.2392452165
C   C174      1.0  0.46568  0.81685  0.05708  1.0000 -0.2336552812
C   C175      1.0  0.46568  0.68315  0.55708  1.0000 -0.2392452165
C   C176      1.0  0.53432  0.18315  0.94292  1.0000 -0.2392452165
C   C177      1.0  0.59970  0.32638  0.71950  1.0000 -0.2336552812
C   C178      1.0  0.40030  0.82638  0.78050  1.0000 -0.2336552812
C   C179      1.0  0.40030  0.67362  0.28050  1.0000 -0.2336552812
C   C180      1.0  0.59970  0.17362  0.21950  1.0000 -0.2336552812
C   C181      1.0  0.72271  0.19744  0.54351  1.0000 -0.2392452165
C   C182      1.0  0.27729  0.69744  0.95649  1.0000 -0.2392452165
C   C183      1.0  0.27729  0.80256  0.45649  1.0000 -0.2392452165
C   C184      1.0  0.72271  0.30256  0.04351  1.0000 -0.2392452165
C   C185      1.0  0.94483  0.08384  0.08903  1.0000 -0.2392452165
C   C186      1.0  0.05517  0.58384  0.41097  1.0000 -0.2392452165
C   C187      1.0  0.05517  0.91616  0.91097  1.0000 -0.2392452165
C   C188      1.0  0.94483  0.41616  0.58903  1.0000 -0.2392452165
C   C189      1.0  0.54340  0.13581  0.80610  1.0000 -0.2593314875
C   C190      1.0  0.45660  0.63581  0.69390  1.0000 -0.2593314875
C   C191      1.0  0.45660  0.86419  0.19390  1.0000 -0.2593314875
C   C192      1.0  0.54340  0.36419  0.30610  1.0000 -0.2593314875
C   C193      1.0  0.93850  0.08969  0.84340  1.0000 -0.2392452165
C   C194      1.0  0.06150  0.58969  0.65660  1.0000 -0.2392452165
C   C195      1.0  0.06150  0.91031  0.15660  1.0000 -0.2392452165
C   C196      1.0  0.93850  0.41031  0.34340  1.0000 -0.2392452165
C   C197      1.0  0.11120  0.41122  0.51630  1.0000 -0.2392452165
C   C198      1.0  0.88880  0.91122  0.98370  1.0000 -0.2392452165
C   C199      1.0  0.88880  0.58878  0.48370  1.0000 -0.2392452165
C   C200      1.0  0.11120  0.08878  0.01630  1.0000 -0.2392452165
C   C201      1.0  0.35160  0.29849  0.64840  1.0000 -0.2392452165
C   C202      1.0  0.64840  0.79849  0.85160  1.0000 -0.2392452165
C   C203      1.0  0.64840  0.70151  0.35160  1.0000 -0.2392452165
C   C204      1.0  0.35160  0.20151  0.14840  1.0000 -0.2392452165
C   C205      1.0  0.55810  0.40706  0.79000  1.0000 -0.2392452165
C   C206      1.0  0.44190  0.90706  0.71000  1.0000 -0.2392452165
C   C207      1.0  0.44190  0.59294  0.21000  1.0000 -0.2392452165
C   C208      1.0  0.55810  0.09294  0.29000  1.0000 -0.2392452165
C   C209      1.0  0.14760  0.43290  0.76550  1.0000 -0.2392452165
C   C210      1.0  0.85240  0.93290  0.73450  1.0000 -0.2392452165
C   C211      1.0  0.85240  0.56710  0.23450  1.0000 -0.2392452165
C   C212      1.0  0.14760  0.06710  0.26550  1.0000 -0.2392452165
C   C213      1.0  0.42800  0.19828  0.64500  1.0000 -0.2392452165
C   C214      1.0  0.57200  0.69828  0.85500  1.0000 -0.2392452165
C   C215      1.0  0.57200  0.80172  0.35500  1.0000 -0.2392452165
C   C216      1.0  0.42800  0.30172  0.14500  1.0000 -0.2392452165
O   O1        1.0  0.93196  0.28602  0.79470  1.0000 -0.5199865741
O   O2        1.0  0.06804  0.78602  0.70530  1.0000 -0.5199865741
O   O3        1.0  0.06804  0.71398  0.20530  1.0000 -0.5199865741
O   O4        1.0  0.93196  0.21398  0.29470  1.0000 -0.5103163693
O   O5        1.0  0.11095  0.31408  0.82073  1.0000 -0.5290487083
O   O6        1.0  0.88905  0.81408  0.67927  1.0000 -0.5290487083
O   O7        1.0  0.88905  0.68592  0.17927  1.0000 -0.5199865741
O   O8        1.0  0.11095  0.18592  0.32073  1.0000 -0.5290487083
O   O9        1.0  0.03521  0.20632  0.83695  1.0000 -0.5375555201
O   O10       1.0  0.96479  0.70632  0.66305  1.0000 -0.5375555201
O   O11       1.0  0.96479  0.79368  0.16305  1.0000 -0.5375555201
O   O12       1.0  0.03521  0.29368  0.33695  1.0000 -0.5375555201
O   O13       1.0  0.63502  0.03083  0.03408  1.0000 -0.5103163693
O   O14       1.0  0.36498  0.53083  0.46592  1.0000 -0.5103163693
O   O15       1.0  0.36498  0.96917  0.96592  1.0000 -0.5103163693
O   O16       1.0  0.63502  0.46917  0.53408  1.0000 -0.5103163693
O   O17       1.0  0.18633  0.22653  0.42937  1.0000 -0.5199865741
O   O18       1.0  0.81367  0.72653  0.07063  1.0000 -0.5290487083
O   O19       1.0  0.81367  0.77347  0.57063  1.0000 -0.5290487083
O   O20       1.0  0.18633  0.27347  0.92937  1.0000 -0.5199865741
O   O21       1.0  0.21654  0.26793  0.37232  1.0000 -0.5103163693
O   O22       1.0  0.78346  0.76793  0.12768  1.0000 -0.5103163693
O   O23       1.0  0.78346  0.73207  0.62768  1.0000 -0.5103163693
O   O24       1.0  0.21654  0.23207  0.87232  1.0000 -0.5103163693
O   O25       1.0  0.96828  0.24849  0.73352  1.0000 -0.5290487083
O   O26       1.0  0.03172  0.74849  0.76648  1.0000 -0.5290487083
O   O27       1.0  0.03172  0.75151  0.26648  1.0000 -0.5290487083
O   O28       1.0  0.96828  0.25151  0.23352  1.0000 -0.5290487083
O   O29       1.0  0.15212  0.27312  0.76690  1.0000 -0.5199865741
O   O30       1.0  0.84788  0.77312  0.73310  1.0000 -0.5199865741
O   O31       1.0  0.84788  0.72688  0.23310  1.0000 -0.5199865741
O   O32       1.0  0.15212  0.22688  0.26690  1.0000 -0.5199865741
O   O33       1.0  0.00542  0.24585  0.89887  1.0000 -0.5199865741
O   O34       1.0  0.99458  0.74585  0.60113  1.0000 -0.5199865741
O   O35       1.0  0.99458  0.75415  0.10113  1.0000 -0.5199865741
O   O36       1.0  0.00542  0.25415  0.39887  1.0000 -0.5199865741
O   O37       1.0  0.51498  0.47778  0.59776  1.0000 -0.5103163693
O   O38       1.0  0.48502  0.97778  0.90224  1.0000 -0.5103163693
O   O39       1.0  0.48502  0.52222  0.40224  1.0000 -0.5103163693
O   O40       1.0  0.51498  0.02222  0.09776  1.0000 -0.5103163693
O   O41       1.0  0.38972  0.46589  0.50594  1.0000 -0.5290487083
O   O42       1.0  0.61028  0.96589  0.99406  1.0000 -0.5290487083
O   O43       1.0  0.61028  0.53411  0.49406  1.0000 -0.5290487083
O   O44       1.0  0.38972  0.03411  0.00594  1.0000 -0.5290487083
O   O45       1.0  0.51147  0.04407  0.94177  1.0000 -0.5290487083
O   O46       1.0  0.48853  0.54407  0.55823  1.0000 -0.5290487083
O   O47       1.0  0.48853  0.95593  0.05823  1.0000 -0.5290487083
O   O48       1.0  0.51147  0.45593  0.44177  1.0000 -0.5290487083
O   O49       1.0  0.77268  0.18578  0.97337  1.0000 -0.1500296592
O   O50       1.0  0.22732  0.68578  0.52663  1.0000 -0.1500296592
O   O51       1.0  0.22732  0.81422  0.02663  1.0000 -0.1500296592
O   O52       1.0  0.77268  0.31422  0.47337  1.0000 -0.1500296592
O   O53       1.0  0.34245  0.33354  0.66058  1.0000 -0.1500296592
O   O54       1.0  0.65755  0.83354  0.83942  1.0000 -0.1500296592
O   O55       1.0  0.65755  0.66646  0.33942  1.0000 -0.1500296592
O   O56       1.0  0.34245  0.16646  0.16058  1.0000 -0.1500296592
O   O57       1.0  0.90219  0.10417  0.03204  1.0000 -0.1500296592
O   O58       1.0  0.09781  0.60417  0.46796  1.0000 -0.1575943439
O   O59       1.0  0.09781  0.89583  0.96796  1.0000 -0.1575943439
O   O60       1.0  0.90219  0.39583  0.53204  1.0000 -0.1500296592
O   O61       1.0  0.64164  0.13840  0.84895  1.0000 -0.1500296592
O   O62       1.0  0.35836  0.63840  0.65105  1.0000 -0.1500296592
O   O63       1.0  0.35836  0.86160  0.15105  1.0000 -0.1500296592
O   O64       1.0  0.64164  0.36160  0.34895  1.0000 -0.1500296592
O   O65       1.0  0.65584  0.21978  0.55261  1.0000 -0.1500296592
O   O66       1.0  0.34416  0.71978  0.94739  1.0000 -0.1500296592
O   O67       1.0  0.34416  0.78022  0.44739  1.0000 -0.1500296592
O   O68       1.0  0.65584  0.28022  0.05261  1.0000 -0.1500296592
O   O69       1.0  0.57614  0.30325  0.66823  1.0000 -0.1500296592
O   O70       1.0  0.42386  0.80325  0.83177  1.0000 -0.1500296592
O   O71       1.0  0.42386  0.69675  0.33177  1.0000 -0.1500296592
O   O72       1.0  0.57614  0.19675  0.16823  1.0000 -0.1500296592
O   O73       1.0  0.88496  0.10090  0.87926  1.0000 -0.1500296592
O   O74       1.0  0.11504  0.60090  0.62074  1.0000 -0.1500296592
O   O75       1.0  0.11504  0.89910  0.12074  1.0000 -0.1500296592
O   O76       1.0  0.88496  0.39910  0.37926  1.0000 -0.1500296592
O   O77       1.0  0.20780  0.42041  0.73442  1.0000 -0.1575943439
O   O78       1.0  0.79220  0.92041  0.76558  1.0000 -0.1575943439
O   O79       1.0  0.79220  0.57959  0.26558  1.0000 -0.1575943439
O   O80       1.0  0.20780  0.07959  0.23442  1.0000 -0.1575943439
O   O81       1.0  0.55806  0.29881  0.50193  1.0000 -0.1428604802
O   O82       1.0  0.44194  0.79881  0.99807  1.0000 -0.1428604802
O   O83       1.0  0.44194  0.70119  0.49807  1.0000 -0.1428604802
O   O84       1.0  0.55806  0.20119  0.00193  1.0000 -0.1428604802
O   O85       1.0  0.16971  0.40074  0.58034  1.0000 -0.1575943439
O   O86       1.0  0.83029  0.90074  0.91966  1.0000 -0.1575943439
O   O87       1.0  0.83029  0.59926  0.41966  1.0000 -0.1575943439
O   O88       1.0  0.16971  0.09926  0.08034  1.0000 -0.1575943439
O   O89       1.0  0.49116  0.21994  0.63241  1.0000 -0.1500296592
O   O90       1.0  0.50884  0.71994  0.86759  1.0000 -0.1500296592
O   O91       1.0  0.50884  0.78006  0.36759  1.0000 -0.1500296592
O   O92       1.0  0.49116  0.28006  0.13241  1.0000 -0.1500296592
O   O93       1.0  0.45992  0.39844  0.75849  1.0000 -0.1500296592
O   O94       1.0  0.54008  0.89844  0.74151  1.0000 -0.1500296592
O   O95       1.0  0.54008  0.60156  0.24151  1.0000 -0.1500296592
O   O96       1.0  0.45992  0.10156  0.25849  1.0000 -0.1500296592
