# DDEC6 charges by PACMAN v1.1 (https://github.com/mtap-research/PACMAN-charge/)
data_2017[Fe][acs]3[ASR]1
_chemical_formula_sum              "Fe24 C192 Cl96 O104"
_cell_length_a       30.8099
_cell_length_b       30.8099
_cell_length_c       16.4605
_cell_angle_alpha    90
_cell_angle_beta     90
_cell_angle_gamma    120

_symmetry_space_group_name_H-M    "P 1"
_symmetry_Int_Tables_number       1

loop_
  _symmetry_equiv_pos_as_xyz
  'x, y, z'

loop_
  _atom_site_type_symbol
  _atom_site_label
  _atom_site_symmetry_multiplicity
  _atom_site_fract_x
  _atom_site_fract_y
  _atom_site_fract_z
  _atom_site_occupancy
  _atom_site_charge
Fe  Fe1       1.0  0.79768  0.16959  0.75417  1.0000 1.07451951
Fe  Fe2       1.0  0.83041  0.62809  0.75417  1.0000 1.0765100072
Fe  Fe3       1.0  0.37191  0.20232  0.75417  1.0000 1.0765100072
Fe  Fe4       1.0  0.20232  0.83041  0.24583  1.0000 1.0765100072
Fe  Fe5       1.0  0.16959  0.37191  0.24583  1.0000 1.0765100072
Fe  Fe6       1.0  0.62809  0.79768  0.24583  1.0000 1.07451951
Fe  Fe7       1.0  0.90811  0.27433  0.75249  1.0000 1.1198861072
Fe  Fe8       1.0  0.72567  0.63378  0.75249  1.0000 1.1198861072
Fe  Fe9       1.0  0.36622  0.09189  0.75249  1.0000 1.1142299721
Fe  Fe10      1.0  0.09189  0.72567  0.24751  1.0000 1.1142299721
Fe  Fe11      1.0  0.27433  0.36622  0.24751  1.0000 1.1142299721
Fe  Fe12      1.0  0.63378  0.90811  0.24751  1.0000 1.1142299721
Fe  Fe13      1.0  0.89855  0.16102  0.74673  1.0000 1.1318478931
Fe  Fe14      1.0  0.83898  0.73753  0.74673  1.0000 1.1198861072
Fe  Fe15      1.0  0.26247  0.10145  0.74673  1.0000 1.1198861072
Fe  Fe16      1.0  0.10145  0.83898  0.25327  1.0000 1.1198861072
Fe  Fe17      1.0  0.16102  0.26247  0.25327  1.0000 1.1318478931
Fe  Fe18      1.0  0.73753  0.89855  0.25327  1.0000 1.1318478931
Fe  Fe19      1.0  0.64325  0.26275  0.25354  1.0000 1.1566746185
Fe  Fe20      1.0  0.73725  0.38050  0.25354  1.0000 1.1566746185
Fe  Fe21      1.0  0.61950  0.35675  0.25354  1.0000 1.1566746185
Fe  Fe22      1.0  0.35675  0.73725  0.74646  1.0000 1.1536329537
Fe  Fe23      1.0  0.26275  0.61950  0.74646  1.0000 1.1536329537
Fe  Fe24      1.0  0.38050  0.64325  0.74646  1.0000 1.1536329537
C   C1        1.0  0.72870  0.29660  0.13830  1.0000 0.6200841069
C   C2        1.0  0.70340  0.43210  0.13830  1.0000 0.6200841069
C   C3        1.0  0.56790  0.27130  0.13830  1.0000 0.6200841069
C   C4        1.0  0.27130  0.70340  0.86170  1.0000 0.6200841069
C   C5        1.0  0.29660  0.56790  0.86170  1.0000 0.6200841069
C   C6        1.0  0.43210  0.72870  0.86170  1.0000 0.6200841069
C   C7        1.0  0.81790  0.25280  0.64230  1.0000 0.6200841069
C   C8        1.0  0.74720  0.56510  0.64230  1.0000 0.6200841069
C   C9        1.0  0.43490  0.18210  0.64230  1.0000 0.6200841069
C   C10       1.0  0.18210  0.74720  0.35770  1.0000 0.6200841069
C   C11       1.0  0.25280  0.43490  0.35770  1.0000 0.6200841069
C   C12       1.0  0.56510  0.81790  0.35770  1.0000 0.6200841069
C   C13       1.0  0.79600  0.26565  0.57070  1.0000 -0.0926543475
C   C14       1.0  0.73435  0.53035  0.57070  1.0000 -0.0800933585
C   C15       1.0  0.46965  0.20400  0.57070  1.0000 -0.0800933585
C   C16       1.0  0.20400  0.73435  0.42930  1.0000 -0.0800933585
C   C17       1.0  0.26565  0.46965  0.42930  1.0000 -0.0800933585
C   C18       1.0  0.53035  0.79600  0.42930  1.0000 -0.0800933585
C   C19       1.0  0.75050  0.26473  0.57820  1.0000 0.0694320219
C   C20       1.0  0.73527  0.48577  0.57820  1.0000 0.0694320219
C   C21       1.0  0.51423  0.24950  0.57820  1.0000 0.0694320219
C   C22       1.0  0.24950  0.73527  0.42180  1.0000 0.0694320219
C   C23       1.0  0.26473  0.51423  0.42180  1.0000 0.0694320219
C   C24       1.0  0.48577  0.75050  0.42180  1.0000 0.0694320219
C   C25       1.0  0.73060  0.27662  0.51180  1.0000 0.0618772602
C   C26       1.0  0.72338  0.45398  0.51180  1.0000 0.0618772602
C   C27       1.0  0.54602  0.26940  0.51180  1.0000 0.0618772602
C   C28       1.0  0.26940  0.72338  0.48820  1.0000 0.0618772602
C   C29       1.0  0.27662  0.54602  0.48820  1.0000 0.0618772602
C   C30       1.0  0.45398  0.73060  0.48820  1.0000 0.0618772602
C   C31       1.0  0.75580  0.28940  0.43800  1.0000 -0.0732572253
C   C32       1.0  0.71060  0.46640  0.43800  1.0000 -0.0732572253
C   C33       1.0  0.53360  0.24420  0.43800  1.0000 -0.0732572253
C   C34       1.0  0.24420  0.71060  0.56200  1.0000 -0.0732572253
C   C35       1.0  0.28940  0.53360  0.56200  1.0000 -0.0732572253
C   C36       1.0  0.46640  0.75580  0.56200  1.0000 -0.0732572253
C   C37       1.0  0.80120  0.29020  0.43080  1.0000 0.0694320219
C   C38       1.0  0.70980  0.51100  0.43080  1.0000 0.0694320219
C   C39       1.0  0.48900  0.19880  0.43080  1.0000 0.0694320219
C   C40       1.0  0.19880  0.70980  0.56920  1.0000 0.0694320219
C   C41       1.0  0.29020  0.48900  0.56920  1.0000 0.0694320219
C   C42       1.0  0.51100  0.80120  0.56920  1.0000 0.0694320219
C   C43       1.0  0.82150  0.27850  0.49710  1.0000 0.0618772602
C   C44       1.0  0.72150  0.54300  0.49710  1.0000 0.0618772602
C   C45       1.0  0.45700  0.17850  0.49710  1.0000 0.0618772602
C   C46       1.0  0.17850  0.72150  0.50290  1.0000 0.0618772602
C   C47       1.0  0.27850  0.45700  0.50290  1.0000 0.0618772602
C   C48       1.0  0.54300  0.82150  0.50290  1.0000 0.0618772602
C   C49       1.0  0.73170  0.30150  0.36540  1.0000 0.6297812039
C   C50       1.0  0.69850  0.43020  0.36540  1.0000 0.6297812039
C   C51       1.0  0.56980  0.26830  0.36540  1.0000 0.6297812039
C   C52       1.0  0.26830  0.69850  0.63460  1.0000 0.6297812039
C   C53       1.0  0.30150  0.56980  0.63460  1.0000 0.6297812039
C   C54       1.0  0.43020  0.73170  0.63460  1.0000 0.6297812039
C   C55       1.0  0.81440  0.10420  0.63540  1.0000 0.6200841069
C   C56       1.0  0.89580  0.71020  0.63540  1.0000 0.6200841069
C   C57       1.0  0.28980  0.18560  0.63540  1.0000 0.6200841069
C   C58       1.0  0.18560  0.89580  0.36460  1.0000 0.6200841069
C   C59       1.0  0.10420  0.28980  0.36460  1.0000 0.6200841069
C   C60       1.0  0.71020  0.81440  0.36460  1.0000 0.6200841069
C   C61       1.0  0.78875  0.06720  0.56510  1.0000 -0.0800933585
C   C62       1.0  0.93280  0.72155  0.56510  1.0000 -0.0800933585
C   C63       1.0  0.27845  0.21125  0.56510  1.0000 -0.0800933585
C   C64       1.0  0.21125  0.93280  0.43490  1.0000 -0.0800933585
C   C65       1.0  0.06720  0.27845  0.43490  1.0000 -0.0800933585
C   C66       1.0  0.72155  0.78875  0.43490  1.0000 -0.0800933585
C   C67       1.0  0.78102  0.08430  0.49150  1.0000 0.0694320219
C   C68       1.0  0.91570  0.69672  0.49150  1.0000 0.0694320219
C   C69       1.0  0.30328  0.21898  0.49150  1.0000 0.0694320219
C   C70       1.0  0.21898  0.91570  0.50850  1.0000 0.0694320219
C   C71       1.0  0.08430  0.30328  0.50850  1.0000 0.0694320219
C   C72       1.0  0.69672  0.78102  0.50850  1.0000 0.0694320219
C   C73       1.0  0.75790  0.05130  0.42770  1.0000 0.0694320219
C   C74       1.0  0.94870  0.70660  0.42770  1.0000 0.0694320219
C   C75       1.0  0.29340  0.24210  0.42770  1.0000 0.0694320219
C   C76       1.0  0.24210  0.94870  0.57230  1.0000 0.0694320219
C   C77       1.0  0.05130  0.29340  0.57230  1.0000 0.0694320219
C   C78       1.0  0.70660  0.75790  0.57230  1.0000 0.0694320219
C   C79       1.0  0.74240  0.00080  0.43680  1.0000 -0.0800933585
C   C80       1.0  0.99920  0.74160  0.43680  1.0000 -0.0800933585
C   C81       1.0  0.25840  0.25760  0.43680  1.0000 -0.0800933585
C   C82       1.0  0.25760  0.99920  0.56320  1.0000 -0.0800933585
C   C83       1.0  0.00080  0.25840  0.56320  1.0000 -0.0800933585
C   C84       1.0  0.74160  0.74240  0.56320  1.0000 -0.0800933585
C   C85       1.0  0.74990  0.98350  0.51060  1.0000 0.0694320219
C   C86       1.0  0.01650  0.76640  0.51060  1.0000 0.0694320219
C   C87       1.0  0.23360  0.25010  0.51060  1.0000 0.0694320219
C   C88       1.0  0.25010  0.01650  0.48940  1.0000 0.0694320219
C   C89       1.0  0.98350  0.23360  0.48940  1.0000 0.0694320219
C   C90       1.0  0.76640  0.74990  0.48940  1.0000 0.0694320219
C   C91       1.0  0.77300  0.01650  0.57500  1.0000 0.0694320219
C   C92       1.0  0.98350  0.75650  0.57500  1.0000 0.0618772602
C   C93       1.0  0.24350  0.22700  0.57500  1.0000 0.0618772602
C   C94       1.0  0.22700  0.98350  0.42500  1.0000 0.0618772602
C   C95       1.0  0.01650  0.24350  0.42500  1.0000 0.0618772602
C   C96       1.0  0.75650  0.77300  0.42500  1.0000 0.0618772602
C   C97       1.0  0.71940  0.96420  0.36760  1.0000 0.6297812039
C   C98       1.0  0.03580  0.75520  0.36760  1.0000 0.6297812039
C   C99       1.0  0.24480  0.28060  0.36760  1.0000 0.6297812039
C   C100      1.0  0.28060  0.03580  0.63240  1.0000 0.6297812039
C   C101      1.0  0.96420  0.24480  0.63240  1.0000 0.6297812039
C   C102      1.0  0.75520  0.71940  0.63240  1.0000 0.6297812039
C   C103      1.0  0.81410  0.10480  0.86550  1.0000 0.6297812039
C   C104      1.0  0.89520  0.70930  0.86550  1.0000 0.6297812039
C   C105      1.0  0.29070  0.18590  0.86550  1.0000 0.6297812039
C   C106      1.0  0.18590  0.89520  0.13450  1.0000 0.6297812039
C   C107      1.0  0.10480  0.29070  0.13450  1.0000 0.6297812039
C   C108      1.0  0.70930  0.81410  0.13450  1.0000 0.6297812039
C   C109      1.0  0.79190  0.06790  0.93610  1.0000 -0.0800933585
C   C110      1.0  0.93210  0.72400  0.93610  1.0000 -0.0800933585
C   C111      1.0  0.27600  0.20810  0.93610  1.0000 -0.0800933585
C   C112      1.0  0.20810  0.93210  0.06390  1.0000 -0.0800933585
C   C113      1.0  0.06790  0.27600  0.06390  1.0000 -0.0800933585
C   C114      1.0  0.72400  0.79190  0.06390  1.0000 -0.0800933585
C   C115      1.0  0.74640  0.02350  0.92850  1.0000 0.0694320219
C   C116      1.0  0.97650  0.72290  0.92850  1.0000 0.0694320219
C   C117      1.0  0.27710  0.25360  0.92850  1.0000 0.0694320219
C   C118      1.0  0.25360  0.97650  0.07150  1.0000 0.0694320219
C   C119      1.0  0.02350  0.27710  0.07150  1.0000 0.0694320219
C   C120      1.0  0.72290  0.74640  0.07150  1.0000 0.0694320219
C   C121      1.0  0.72610  0.99160  0.99480  1.0000 0.0618772602
C   C122      1.0  0.00840  0.73450  0.99480  1.0000 0.0618772602
C   C123      1.0  0.26550  0.27390  0.99480  1.0000 0.0618772602
C   C124      1.0  0.27390  0.00840  0.00520  1.0000 0.0618772602
C   C125      1.0  0.99160  0.26550  0.00520  1.0000 0.0618772602
C   C126      1.0  0.73450  0.72610  0.00520  1.0000 0.0618772602
C   C127      1.0  0.75140  0.00410  0.06890  1.0000 -0.0926543475
C   C128      1.0  0.99590  0.74730  0.06890  1.0000 -0.0926543475
C   C129      1.0  0.25270  0.24860  0.06890  1.0000 -0.0926543475
C   C130      1.0  0.24860  0.99590  0.93110  1.0000 -0.0926543475
C   C131      1.0  0.00410  0.25270  0.93110  1.0000 -0.0926543475
C   C132      1.0  0.74730  0.75140  0.93110  1.0000 -0.0926543475
C   C133      1.0  0.79690  0.04860  0.07640  1.0000 0.0765292408
C   C134      1.0  0.95140  0.74830  0.07640  1.0000 0.0765292408
C   C135      1.0  0.25170  0.20310  0.07640  1.0000 0.0765292408
C   C136      1.0  0.20310  0.95140  0.92360  1.0000 0.0694320219
C   C137      1.0  0.04860  0.25170  0.92360  1.0000 0.0694320219
C   C138      1.0  0.74830  0.79690  0.92360  1.0000 0.0765292408
C   C139      1.0  0.81710  0.08050  0.00960  1.0000 0.0618772602
C   C140      1.0  0.91950  0.73660  0.00960  1.0000 0.0618772602
C   C141      1.0  0.26340  0.18290  0.00960  1.0000 0.0618772602
C   C142      1.0  0.18290  0.91950  0.99040  1.0000 0.0618772602
C   C143      1.0  0.08050  0.26340  0.99040  1.0000 0.0618772602
C   C144      1.0  0.73660  0.81710  0.99040  1.0000 0.0618772602
C   C145      1.0  0.72680  0.96800  0.13710  1.0000 0.6200841069
C   C146      1.0  0.03200  0.75880  0.13710  1.0000 0.6200841069
C   C147      1.0  0.24120  0.27320  0.13710  1.0000 0.6200841069
C   C148      1.0  0.27320  0.03200  0.86290  1.0000 0.6200841069
C   C149      1.0  0.96800  0.24120  0.86290  1.0000 0.6200841069
C   C150      1.0  0.75880  0.72680  0.86290  1.0000 0.6200841069
C   C151      1.0  0.82480  0.25550  0.86850  1.0000 0.6297812039
C   C152      1.0  0.74450  0.56930  0.86850  1.0000 0.6297812039
C   C153      1.0  0.43070  0.17520  0.86850  1.0000 0.6297812039
C   C154      1.0  0.17520  0.74450  0.13150  1.0000 0.6297812039
C   C155      1.0  0.25550  0.43070  0.13150  1.0000 0.6297812039
C   C156      1.0  0.56930  0.82480  0.13150  1.0000 0.6297812039
C   C157      1.0  0.80150  0.26770  0.94180  1.0000 -0.0800933585
C   C158      1.0  0.73230  0.53380  0.94180  1.0000 -0.0800933585
C   C159      1.0  0.46620  0.19850  0.94180  1.0000 -0.0800933585
C   C160      1.0  0.19850  0.73230  0.05820  1.0000 -0.0800933585
C   C161      1.0  0.26770  0.46620  0.05820  1.0000 -0.0800933585
C   C162      1.0  0.53380  0.80150  0.05820  1.0000 -0.0800933585
C   C163      1.0  0.79405  0.24347  0.01600  1.0000 0.0694320219
C   C164      1.0  0.75653  0.55058  0.01600  1.0000 0.0694320219
C   C165      1.0  0.44942  0.20595  0.01600  1.0000 0.0694320219
C   C166      1.0  0.20595  0.75653  0.98400  1.0000 0.0694320219
C   C167      1.0  0.24347  0.44942  0.98400  1.0000 0.0694320219
C   C168      1.0  0.55058  0.79405  0.98400  1.0000 0.0694320219
C   C169      1.0  0.77067  0.25360  0.07940  1.0000 0.0694320219
C   C170      1.0  0.74640  0.51707  0.07940  1.0000 0.0694320219
C   C171      1.0  0.48293  0.22933  0.07940  1.0000 0.0694320219
C   C172      1.0  0.22933  0.74640  0.92060  1.0000 0.0694320219
C   C173      1.0  0.25360  0.48293  0.92060  1.0000 0.0694320219
C   C174      1.0  0.51707  0.77067  0.92060  1.0000 0.0694320219
C   C175      1.0  0.75450  0.28810  0.06880  1.0000 -0.0926543475
C   C176      1.0  0.71190  0.46640  0.06880  1.0000 -0.0953556871
C   C177      1.0  0.53360  0.24550  0.06880  1.0000 -0.0926543475
C   C178      1.0  0.24550  0.71190  0.93120  1.0000 -0.0926543475
C   C179      1.0  0.28810  0.53360  0.93120  1.0000 -0.0926543475
C   C180      1.0  0.46640  0.75450  0.93120  1.0000 -0.0926543475
C   C181      1.0  0.76190  0.31250  0.99460  1.0000 0.0694320219
C   C182      1.0  0.68750  0.44940  0.99460  1.0000 0.0694320219
C   C183      1.0  0.55060  0.23810  0.99460  1.0000 0.0694320219
C   C184      1.0  0.23810  0.68750  0.00540  1.0000 0.0694320219
C   C185      1.0  0.31250  0.55060  0.00540  1.0000 0.0694320219
C   C186      1.0  0.44940  0.76190  0.00540  1.0000 0.0694320219
C   C187      1.0  0.78560  0.30240  0.93130  1.0000 0.0618772602
C   C188      1.0  0.69760  0.48320  0.93130  1.0000 0.0618772602
C   C189      1.0  0.51680  0.21440  0.93130  1.0000 0.0618772602
C   C190      1.0  0.21440  0.69760  0.06870  1.0000 0.0618772602
C   C191      1.0  0.30240  0.51680  0.06870  1.0000 0.0694320219
C   C192      1.0  0.48320  0.78560  0.06870  1.0000 0.0694320219
Cl  Cl1       1.0  0.72042  0.24929  0.67053  1.0000 -0.0290380942
Cl  Cl2       1.0  0.75071  0.47113  0.67053  1.0000 -0.0390003858
Cl  Cl3       1.0  0.52887  0.27958  0.67053  1.0000 -0.0390003858
Cl  Cl4       1.0  0.27958  0.75071  0.32947  1.0000 -0.0390003858
Cl  Cl5       1.0  0.24929  0.52887  0.32947  1.0000 -0.0390003858
Cl  Cl6       1.0  0.47113  0.72042  0.32947  1.0000 -0.0390003858
Cl  Cl7       1.0  0.67424  0.27493  0.52104  1.0000 -0.0204392172
Cl  Cl8       1.0  0.72507  0.39931  0.52104  1.0000 -0.0204392172
Cl  Cl9       1.0  0.60069  0.32576  0.52104  1.0000 -0.0204392172
Cl  Cl10      1.0  0.32576  0.72507  0.47896  1.0000 -0.0204392172
Cl  Cl11      1.0  0.27493  0.60069  0.47896  1.0000 -0.0204392172
Cl  Cl12      1.0  0.39931  0.67424  0.47896  1.0000 -0.0204392172
Cl  Cl13      1.0  0.83099  0.30674  0.33886  1.0000 -0.0290380942
Cl  Cl14      1.0  0.69326  0.52425  0.33886  1.0000 -0.0290380942
Cl  Cl15      1.0  0.47575  0.16901  0.33886  1.0000 -0.0290380942
Cl  Cl16      1.0  0.16901  0.69326  0.66114  1.0000 -0.0290380942
Cl  Cl17      1.0  0.30674  0.47575  0.66114  1.0000 -0.0290380942
Cl  Cl18      1.0  0.52425  0.83099  0.66114  1.0000 -0.0290380942
Cl  Cl19      1.0  0.87750  0.27922  0.48653  1.0000 -0.0204392172
Cl  Cl20      1.0  0.72078  0.59828  0.48653  1.0000 -0.0204392172
Cl  Cl21      1.0  0.40172  0.12250  0.48653  1.0000 -0.0204392172
Cl  Cl22      1.0  0.12250  0.72078  0.51347  1.0000 -0.0204392172
Cl  Cl23      1.0  0.27922  0.40172  0.51347  1.0000 -0.0290380942
Cl  Cl24      1.0  0.59828  0.87750  0.51347  1.0000 -0.0204392172
Cl  Cl25      1.0  0.80016  0.14667  0.48153  1.0000 -0.0564876602
Cl  Cl26      1.0  0.85333  0.65349  0.48153  1.0000 -0.0564876602
Cl  Cl27      1.0  0.34651  0.19984  0.48153  1.0000 -0.0564876602
Cl  Cl28      1.0  0.19984  0.85333  0.51847  1.0000 -0.0564876602
Cl  Cl29      1.0  0.14667  0.34651  0.51847  1.0000 -0.0479903693
Cl  Cl30      1.0  0.65349  0.80016  0.51847  1.0000 -0.0479903693
Cl  Cl31      1.0  0.74783  0.07106  0.33552  1.0000 -0.0134813244
Cl  Cl32      1.0  0.92894  0.67677  0.33552  1.0000 -0.0204392172
Cl  Cl33      1.0  0.32323  0.25217  0.33552  1.0000 -0.0134813244
Cl  Cl34      1.0  0.25217  0.92894  0.66448  1.0000 -0.0204392172
Cl  Cl35      1.0  0.07106  0.32323  0.66448  1.0000 -0.0204392172
Cl  Cl36      1.0  0.67677  0.74783  0.66448  1.0000 -0.0204392172
Cl  Cl37      1.0  0.73048  0.92185  0.52300  1.0000 -0.0390003858
Cl  Cl38      1.0  0.07815  0.80863  0.52300  1.0000 -0.0390003858
Cl  Cl39      1.0  0.19137  0.26952  0.52300  1.0000 -0.0390003858
Cl  Cl40      1.0  0.26952  0.07815  0.47700  1.0000 -0.0390003858
Cl  Cl41      1.0  0.92185  0.19137  0.47700  1.0000 -0.0390003858
Cl  Cl42      1.0  0.80863  0.73048  0.47700  1.0000 -0.0390003858
Cl  Cl43      1.0  0.78377  0.99666  0.66707  1.0000 -0.0290380942
Cl  Cl44      1.0  0.00334  0.78711  0.66707  1.0000 -0.0290380942
Cl  Cl45      1.0  0.21289  0.21623  0.66707  1.0000 -0.0290380942
Cl  Cl46      1.0  0.21623  0.00334  0.33293  1.0000 -0.0204392172
Cl  Cl47      1.0  0.99666  0.21289  0.33293  1.0000 -0.0290380942
Cl  Cl48      1.0  0.78711  0.78377  0.33293  1.0000 -0.0290380942
Cl  Cl49      1.0  0.71591  0.00882  0.83684  1.0000 -0.0204392172
Cl  Cl50      1.0  0.99118  0.70709  0.83684  1.0000 -0.0204392172
Cl  Cl51      1.0  0.29291  0.28409  0.83684  1.0000 -0.0204392172
Cl  Cl52      1.0  0.28409  0.99118  0.16316  1.0000 -0.0290380942
Cl  Cl53      1.0  0.00882  0.29291  0.16316  1.0000 -0.0204392172
Cl  Cl54      1.0  0.70709  0.71591  0.16316  1.0000 -0.0204392172
Cl  Cl55      1.0  0.66958  0.93677  0.98455  1.0000 -0.0204392172
Cl  Cl56      1.0  0.06323  0.73281  0.98455  1.0000 -0.0204392172
Cl  Cl57      1.0  0.26719  0.33042  0.98455  1.0000 -0.0204392172
Cl  Cl58      1.0  0.33042  0.06323  0.01545  1.0000 -0.0204392172
Cl  Cl59      1.0  0.93677  0.26719  0.01545  1.0000 -0.0134813244
Cl  Cl60      1.0  0.73281  0.66958  0.01545  1.0000 -0.0134813244
Cl  Cl61      1.0  0.82769  0.06332  0.16877  1.0000 -0.0290380942
Cl  Cl62      1.0  0.93668  0.76437  0.16877  1.0000 -0.0390003858
Cl  Cl63      1.0  0.23563  0.17231  0.16877  1.0000 -0.0290380942
Cl  Cl64      1.0  0.17231  0.93668  0.83123  1.0000 -0.0390003858
Cl  Cl65      1.0  0.06332  0.23563  0.83123  1.0000 -0.0290380942
Cl  Cl66      1.0  0.76437  0.82769  0.83123  1.0000 -0.0290380942
Cl  Cl67      1.0  0.87361  0.13545  0.01972  1.0000 -0.0390003858
Cl  Cl68      1.0  0.86455  0.73816  0.01972  1.0000 -0.0390003858
Cl  Cl69      1.0  0.26184  0.12639  0.01972  1.0000 -0.0390003858
Cl  Cl70      1.0  0.12639  0.86455  0.98028  1.0000 -0.0390003858
Cl  Cl71      1.0  0.13545  0.26184  0.98028  1.0000 -0.0390003858
Cl  Cl72      1.0  0.73816  0.87361  0.98028  1.0000 -0.0479903693
Cl  Cl73      1.0  0.81389  0.20114  0.02776  1.0000 -0.0479903693
Cl  Cl74      1.0  0.79886  0.61275  0.02776  1.0000 -0.0479903693
Cl  Cl75      1.0  0.38725  0.18611  0.02776  1.0000 -0.0479903693
Cl  Cl76      1.0  0.18611  0.79886  0.97224  1.0000 -0.0390003858
Cl  Cl77      1.0  0.20114  0.38725  0.97224  1.0000 -0.0390003858
Cl  Cl78      1.0  0.61275  0.81389  0.97224  1.0000 -0.0390003858
Cl  Cl79      1.0  0.76136  0.22396  0.17125  1.0000 -0.0204392172
Cl  Cl80      1.0  0.77604  0.53740  0.17125  1.0000 -0.0204392172
Cl  Cl81      1.0  0.46260  0.23864  0.17125  1.0000 -0.0204392172
Cl  Cl82      1.0  0.23864  0.77604  0.82875  1.0000 -0.0290380942
Cl  Cl83      1.0  0.22396  0.46260  0.82875  1.0000 -0.0290380942
Cl  Cl84      1.0  0.53740  0.76136  0.82875  1.0000 -0.0204392172
Cl  Cl85      1.0  0.74173  0.35507  0.98277  1.0000 -0.0290380942
Cl  Cl86      1.0  0.64493  0.38666  0.98277  1.0000 -0.0290380942
Cl  Cl87      1.0  0.61334  0.25827  0.98277  1.0000 -0.0290380942
Cl  Cl88      1.0  0.25827  0.64493  0.01723  1.0000 -0.0390003858
Cl  Cl89      1.0  0.35507  0.61334  0.01723  1.0000 -0.0390003858
Cl  Cl90      1.0  0.38666  0.74173  0.01723  1.0000 -0.0290380942
Cl  Cl91      1.0  0.79500  0.33178  0.83902  1.0000 -0.0290380942
Cl  Cl92      1.0  0.66822  0.46322  0.83902  1.0000 -0.0204392172
Cl  Cl93      1.0  0.53678  0.20500  0.83902  1.0000 -0.0204392172
Cl  Cl94      1.0  0.20500  0.66822  0.16098  1.0000 -0.0290380942
Cl  Cl95      1.0  0.33178  0.53678  0.16098  1.0000 -0.0290380942
Cl  Cl96      1.0  0.46322  0.79500  0.16098  1.0000 -0.0290380942
O   O1        1.0  0.86390  0.19820  0.75300  1.0000 -0.8622617076
O   O2        1.0  0.80180  0.66570  0.75300  1.0000 -0.8622617076
O   O3        1.0  0.33430  0.13610  0.75300  1.0000 -0.8622617076
O   O4        1.0  0.13610  0.80180  0.24700  1.0000 -0.8622617076
O   O5        1.0  0.19820  0.33430  0.24700  1.0000 -0.8622617076
O   O6        1.0  0.66570  0.86390  0.24700  1.0000 -0.8622617076
O   O7        1.0  0.66667  0.33333  0.25300  1.0000 -0.9308902671
O   O8        1.0  0.33333  0.66667  0.74700  1.0000 -0.9308902671
O   O9        1.0  0.79250  0.20500  0.65860  1.0000 -0.5294758419
O   O10       1.0  0.79500  0.58750  0.65860  1.0000 -0.5294758419
O   O11       1.0  0.41250  0.20750  0.65860  1.0000 -0.5294758419
O   O12       1.0  0.20750  0.79500  0.34140  1.0000 -0.5294758419
O   O13       1.0  0.20500  0.41250  0.34140  1.0000 -0.5294758419
O   O14       1.0  0.58750  0.79250  0.34140  1.0000 -0.5294758419
O   O15       1.0  0.85640  0.28300  0.67520  1.0000 -0.4720742852
O   O16       1.0  0.71700  0.57340  0.67520  1.0000 -0.4720742852
O   O17       1.0  0.42660  0.14360  0.67520  1.0000 -0.4720742852
O   O18       1.0  0.14360  0.71700  0.32480  1.0000 -0.4755989761
O   O19       1.0  0.28300  0.42660  0.32480  1.0000 -0.4720742852
O   O20       1.0  0.57340  0.85640  0.32480  1.0000 -0.4720742852
O   O21       1.0  0.69710  0.26680  0.33010  1.0000 -0.5000291749
O   O22       1.0  0.73320  0.43030  0.33010  1.0000 -0.5000291749
O   O23       1.0  0.56970  0.30290  0.33010  1.0000 -0.5000291749
O   O24       1.0  0.30290  0.73320  0.66990  1.0000 -0.5000291749
O   O25       1.0  0.26680  0.56970  0.66990  1.0000 -0.5000291749
O   O26       1.0  0.43030  0.69710  0.66990  1.0000 -0.5000291749
O   O27       1.0  0.75150  0.34910  0.35320  1.0000 -0.5473254472
O   O28       1.0  0.65090  0.40240  0.35320  1.0000 -0.5473254472
O   O29       1.0  0.59760  0.24850  0.35320  1.0000 -0.5473254472
O   O30       1.0  0.24850  0.65090  0.64680  1.0000 -0.5473254472
O   O31       1.0  0.34910  0.59760  0.64680  1.0000 -0.5473254472
O   O32       1.0  0.40240  0.75150  0.64680  1.0000 -0.5473254472
O   O33       1.0  0.78410  0.11320  0.67660  1.0000 -0.5294758419
O   O34       1.0  0.88680  0.67090  0.67660  1.0000 -0.5294758419
O   O35       1.0  0.32910  0.21590  0.67660  1.0000 -0.5294758419
O   O36       1.0  0.21590  0.88680  0.32340  1.0000 -0.5294758419
O   O37       1.0  0.11320  0.32910  0.32340  1.0000 -0.5294758419
O   O38       1.0  0.67090  0.78410  0.32340  1.0000 -0.5294758419
O   O39       1.0  0.85700  0.11750  0.65020  1.0000 -0.4720742852
O   O40       1.0  0.88250  0.73950  0.65020  1.0000 -0.4720742852
O   O41       1.0  0.26050  0.14300  0.65020  1.0000 -0.4720742852
O   O42       1.0  0.14300  0.88250  0.34980  1.0000 -0.4720742852
O   O43       1.0  0.11750  0.26050  0.34980  1.0000 -0.4755989761
O   O44       1.0  0.73950  0.85700  0.34980  1.0000 -0.4755989761
O   O45       1.0  0.67370  0.94940  0.35150  1.0000 -0.5399732441
O   O46       1.0  0.05060  0.72430  0.35150  1.0000 -0.5399732441
O   O47       1.0  0.27570  0.32630  0.35150  1.0000 -0.5399732441
O   O48       1.0  0.32630  0.05060  0.64850  1.0000 -0.5399732441
O   O49       1.0  0.94940  0.27570  0.64850  1.0000 -0.5399732441
O   O50       1.0  0.72430  0.67370  0.64850  1.0000 -0.5399732441
O   O51       1.0  0.74840  0.95320  0.33270  1.0000 -0.5236357401
O   O52       1.0  0.04680  0.79520  0.33270  1.0000 -0.5236357401
O   O53       1.0  0.20480  0.25160  0.33270  1.0000 -0.5236357401
O   O54       1.0  0.25160  0.04680  0.66730  1.0000 -0.5236357401
O   O55       1.0  0.95320  0.20480  0.66730  1.0000 -0.5236357401
O   O56       1.0  0.79520  0.74840  0.66730  1.0000 -0.5236357401
O   O57       1.0  0.79070  0.12720  0.85170  1.0000 -0.5000291749
O   O58       1.0  0.87280  0.66350  0.85170  1.0000 -0.5000291749
O   O59       1.0  0.33650  0.20930  0.85170  1.0000 -0.5000291749
O   O60       1.0  0.20930  0.87280  0.14830  1.0000 -0.5000291749
O   O61       1.0  0.12720  0.33650  0.14830  1.0000 -0.5000291749
O   O62       1.0  0.66350  0.79070  0.14830  1.0000 -0.5000291749
O   O63       1.0  0.84980  0.10550  0.82490  1.0000 -0.5399732441
O   O64       1.0  0.89450  0.74430  0.82490  1.0000 -0.5399732441
O   O65       1.0  0.25570  0.15020  0.82490  1.0000 -0.5399732441
O   O66       1.0  0.15020  0.89450  0.17510  1.0000 -0.5399732441
O   O67       1.0  0.10550  0.25570  0.17510  1.0000 -0.5399732441
O   O68       1.0  0.74430  0.84980  0.17510  1.0000 -0.5399732441
O   O69       1.0  0.75090  0.94580  0.15560  1.0000 -0.5236357401
O   O70       1.0  0.05420  0.80510  0.15560  1.0000 -0.5236357401
O   O71       1.0  0.19490  0.24910  0.15560  1.0000 -0.5236357401
O   O72       1.0  0.24910  0.05420  0.84440  1.0000 -0.5236357401
O   O73       1.0  0.94580  0.19490  0.84440  1.0000 -0.5236357401
O   O74       1.0  0.80510  0.75090  0.84440  1.0000 -0.5236357401
O   O75       1.0  0.69180  0.96430  0.17190  1.0000 -0.4533414816
O   O76       1.0  0.03570  0.72750  0.17190  1.0000 -0.4533414816
O   O77       1.0  0.27250  0.30820  0.17190  1.0000 -0.4552579274
O   O78       1.0  0.30820  0.03570  0.82810  1.0000 -0.4533414816
O   O79       1.0  0.96430  0.27250  0.82810  1.0000 -0.4552579274
O   O80       1.0  0.72750  0.69180  0.82810  1.0000 -0.4533414816
O   O81       1.0  0.79250  0.21690  0.83100  1.0000 -0.5294758419
O   O82       1.0  0.78310  0.57560  0.83100  1.0000 -0.5294758419
O   O83       1.0  0.42440  0.20750  0.83100  1.0000 -0.5294758419
O   O84       1.0  0.20750  0.78310  0.16900  1.0000 -0.5294758419
O   O85       1.0  0.21690  0.42440  0.16900  1.0000 -0.5294758419
O   O86       1.0  0.57560  0.79250  0.16900  1.0000 -0.5294758419
O   O87       1.0  0.87050  0.28140  0.85390  1.0000 -0.5294758419
O   O88       1.0  0.71860  0.58910  0.85390  1.0000 -0.5399732441
O   O89       1.0  0.41090  0.12950  0.85390  1.0000 -0.5399732441
O   O90       1.0  0.12950  0.71860  0.14610  1.0000 -0.5294758419
O   O91       1.0  0.28140  0.41090  0.14610  1.0000 -0.5294758419
O   O92       1.0  0.58910  0.87050  0.14610  1.0000 -0.5399732441
O   O93       1.0  0.68540  0.26670  0.15160  1.0000 -0.5000291749
O   O94       1.0  0.73330  0.41870  0.15160  1.0000 -0.5000291749
O   O95       1.0  0.58130  0.31460  0.15160  1.0000 -0.5000291749
O   O96       1.0  0.31460  0.73330  0.84840  1.0000 -0.5000291749
O   O97       1.0  0.26670  0.58130  0.84840  1.0000 -0.5000291749
O   O98       1.0  0.41870  0.68540  0.84840  1.0000 -0.5000291749
O   O99       1.0  0.75610  0.33760  0.17400  1.0000 -0.5294758419
O   O100      1.0  0.66240  0.41850  0.17400  1.0000 -0.5294758419
O   O101      1.0  0.58150  0.24390  0.17400  1.0000 -0.5294758419
O   O102      1.0  0.24390  0.66240  0.82600  1.0000 -0.5294758419
O   O103      1.0  0.33760  0.58150  0.82600  1.0000 -0.5294758419
O   O104      1.0  0.41850  0.75610  0.82600  1.0000 -0.5294758419
