# DDEC6 charges by PACMAN v1.1 (https://github.com/mtap-research/PACMAN-charge/)
data_2017[Sm][nan]3[ASR]1
_chemical_formula_sum              "Sm4 H48 C52 O34"
_cell_length_a       11.921
_cell_length_b       12.527
_cell_length_c       12.552
_cell_angle_alpha    90
_cell_angle_beta     98.87
_cell_angle_gamma    90

_symmetry_space_group_name_H-M    "P 1"
_symmetry_Int_Tables_number       1

loop_
  _symmetry_equiv_pos_as_xyz
  'x, y, z'

loop_
  _atom_site_type_symbol
  _atom_site_label
  _atom_site_symmetry_multiplicity
  _atom_site_fract_x
  _atom_site_fract_y
  _atom_site_fract_z
  _atom_site_occupancy
  _atom_site_charge
Sm  Sm1       1.0  0.62751  0.55409  0.86789  1.0000 2.0788635553
Sm  Sm2       1.0  0.37249  0.05409  0.13211  1.0000 2.0788635553
Sm  Sm3       1.0  0.35831  0.77084  0.81213  1.0000 2.1077613175
Sm  Sm4       1.0  0.64169  0.27084  0.18787  1.0000 2.1077613175
H   H1        1.0  0.67340  0.59830  0.51500  1.0000 0.1557898462
H   H2        1.0  0.32660  0.09830  0.48500  1.0000 0.1557898462
H   H3        1.0  0.51960  0.67110  0.21490  1.0000 0.1331722081
H   H4        1.0  0.48040  0.17110  0.78510  1.0000 0.1331722081
H   H5        1.0  0.35660  0.71970  0.46790  1.0000 0.1486141039
H   H6        1.0  0.64340  0.21970  0.53210  1.0000 0.1486141039
H   H7        1.0  0.69680  0.69280  0.19700  1.0000 0.100408866
H   H8        1.0  0.30320  0.19280  0.80300  1.0000 0.100408866
H   H9        1.0  0.88940  0.65760  0.24890  1.0000 0.1407885211
H   H10       1.0  0.11060  0.15760  0.75110  1.0000 0.1407885211
H   H11       1.0  0.86960  0.53630  0.22160  1.0000 0.1407885211
H   H12       1.0  0.13040  0.03630  0.77840  1.0000 0.1407885211
H   H13       1.0  0.85300  0.62150  0.12900  1.0000 0.1557898462
H   H14       1.0  0.14700  0.12150  0.87100  1.0000 0.1557898462
H   H15       1.0  0.34010  0.63440  0.14480  1.0000 0.0918362156
H   H16       1.0  0.65990  0.13440  0.85520  1.0000 0.0918362156
H   H17       1.0  0.14720  0.64860  0.15630  1.0000 0.1407885211
H   H18       1.0  0.85280  0.14860  0.84370  1.0000 0.1407885211
H   H19       1.0  0.14900  0.77020  0.12730  1.0000 0.1407885211
H   H20       1.0  0.85100  0.27020  0.87270  1.0000 0.1407885211
H   H21       1.0  0.16800  0.68420  0.04120  1.0000 0.1407885211
H   H22       1.0  0.83200  0.18420  0.95880  1.0000 0.1407885211
H   H23       1.0  0.00070  0.46520  0.07070  1.0000 0.1407885211
H   H24       1.0  0.99930  0.96520  0.92930  1.0000 0.1407885211
H   H25       1.0  0.28690  0.39370  0.95380  1.0000 0.1486141039
H   H26       1.0  0.71310  0.89370  0.04620  1.0000 0.1486141039
H   H27       1.0  0.99260  0.43500  0.75160  1.0000 0.1486141039
H   H28       1.0  0.00740  0.93500  0.24840  1.0000 0.1486141039
H   H29       1.0  0.36360  0.38120  0.79870  1.0000 0.100408866
H   H30       1.0  0.63640  0.88120  0.20130  1.0000 0.100408866
H   H31       1.0  0.32500  0.34790  0.61120  1.0000 0.1407885211
H   H32       1.0  0.67500  0.84790  0.38880  1.0000 0.1407885211
H   H33       1.0  0.29650  0.46920  0.59190  1.0000 0.1486141039
H   H34       1.0  0.70350  0.96920  0.40810  1.0000 0.1486141039
H   H35       1.0  0.42040  0.43400  0.63920  1.0000 0.1486141039
H   H36       1.0  0.57960  0.93400  0.36080  1.0000 0.1486141039
H   H37       1.0  0.36590  0.44650  0.12640  1.0000 0.100408866
H   H38       1.0  0.63410  0.94650  0.87360  1.0000 0.100408866
H   H39       1.0  0.33790  0.48820  0.30220  1.0000 0.1407885211
H   H40       1.0  0.66210  0.98820  0.69780  1.0000 0.1407885211
H   H41       1.0  0.30130  0.37020  0.32030  1.0000 0.1486141039
H   H42       1.0  0.69870  0.87020  0.67970  1.0000 0.1486141039
H   H43       1.0  0.42700  0.39570  0.30630  1.0000 0.1407885211
H   H44       1.0  0.57300  0.89570  0.69370  1.0000 0.1407885211
H   H45       1.0  0.22990  0.89110  0.68520  1.0000 0.3175593853
H   H46       1.0  0.77010  0.39110  0.31480  1.0000 0.3175593853
H   H47       1.0  0.19700  0.83920  0.58730  1.0000 0.3959370494
H   H48       1.0  0.80300  0.33920  0.41270  1.0000 0.3959370494
C   C1        1.0  0.51580  0.66100  0.50980  1.0000 0.0016300521
C   C2        1.0  0.48420  0.16100  0.49020  1.0000 0.0016300521
C   C3        1.0  0.61130  0.62540  0.46910  1.0000 -0.2473975107
C   C4        1.0  0.38870  0.12540  0.53090  1.0000 -0.2473975107
C   C5        1.0  0.61250  0.63100  0.35930  1.0000 0.270982863
C   C6        1.0  0.38750  0.13100  0.64070  1.0000 0.270982863
C   C7        1.0  0.51790  0.66667  0.28860  1.0000 -0.3517461776
C   C8        1.0  0.48210  0.16667  0.71140  1.0000 -0.3517461776
C   C9        1.0  0.42120  0.69560  0.33090  1.0000 0.270982863
C   C10       1.0  0.57880  0.19560  0.66910  1.0000 0.270982863
C   C11       1.0  0.42030  0.69610  0.44040  1.0000 -0.2473975107
C   C12       1.0  0.57970  0.19610  0.55960  1.0000 -0.2473975107
C   C13       1.0  0.51300  0.65880  0.62750  1.0000 0.6446623147
C   C14       1.0  0.48700  0.15880  0.37250  1.0000 0.6446623147
C   C15       1.0  0.72050  0.61930  0.21550  1.0000 0.0688906029
C   C16       1.0  0.27950  0.11930  0.78450  1.0000 0.0688906029
C   C17       1.0  0.64440  0.54300  0.13900  1.0000 0.6225156129
C   C18       1.0  0.35560  0.04300  0.86100  1.0000 0.6225156129
C   C19       1.0  0.84450  0.60760  0.20250  1.0000 -0.4541059121
C   C20       1.0  0.15550  0.10760  0.79750  1.0000 -0.4541059121
C   C21       1.0  0.30860  0.70500  0.15580  1.0000 0.0688906029
C   C22       1.0  0.69140  0.20500  0.84420  1.0000 0.0688906029
C   C23       1.0  0.36790  0.78660  0.09360  1.0000 0.6446623147
C   C24       1.0  0.63210  0.28660  0.90640  1.0000 0.6446623147
C   C25       1.0  0.18150  0.70170  0.11650  1.0000 -0.4430897146
C   C26       1.0  0.81850  0.20170  0.88350  1.0000 -0.4430897146
C   C27       1.0  0.97920  0.45350  0.91000  1.0000 0.0270334218
C   C28       1.0  0.02080  0.95350  0.09000  1.0000 0.0270334218
C   C29       1.0  0.03790  0.45130  0.01230  1.0000 -0.2301649511
C   C30       1.0  0.96210  0.95130  0.98770  1.0000 -0.2301649511
C   C31       1.0  0.15370  0.42830  0.02900  1.0000 0.270982863
C   C32       1.0  0.84630  0.92830  0.97100  1.0000 0.270982863
C   C33       1.0  0.20960  0.40880  0.94260  1.0000 -0.3517461776
C   C34       1.0  0.79040  0.90880  0.05740  1.0000 -0.3517461776
C   C35       1.0  0.14930  0.41190  0.83840  1.0000 0.270982863
C   C36       1.0  0.85070  0.91190  0.16160  1.0000 0.270982863
C   C37       1.0  0.03320  0.43370  0.82100  1.0000 -0.2301649511
C   C38       1.0  0.96680  0.93370  0.17900  1.0000 -0.2301649511
C   C39       1.0  0.85410  0.48000  0.89210  1.0000 0.5570108235
C   C40       1.0  0.14590  0.98000  0.10790  1.0000 0.5570108235
C   C41       1.0  0.31290  0.42760  0.75020  1.0000 0.0804556437
C   C42       1.0  0.68710  0.92760  0.24980  1.0000 0.0804556437
C   C43       1.0  0.32670  0.54250  0.78990  1.0000 0.5827769876
C   C44       1.0  0.67330  0.04250  0.21010  1.0000 0.5827769876
C   C45       1.0  0.34130  0.41890  0.63800  1.0000 -0.4541059121
C   C46       1.0  0.65870  0.91890  0.36200  1.0000 -0.4541059121
C   C47       1.0  0.31830  0.40010  0.16360  1.0000 0.0804556437
C   C48       1.0  0.68170  0.90010  0.83640  1.0000 0.0804556437
C   C49       1.0  0.33770  0.28410  0.13580  1.0000 0.5827769876
C   C50       1.0  0.66230  0.78410  0.86420  1.0000 0.5827769876
C   C51       1.0  0.34890  0.41490  0.28410  1.0000 -0.458734101
C   C52       1.0  0.65110  0.91490  0.71590  1.0000 -0.458734101
O   O1        1.0  0.43650  0.71390  0.66170  1.0000 -0.692566818
O   O2        1.0  0.56350  0.21390  0.33830  1.0000 -0.692566818
O   O3        1.0  0.58370  0.60240  0.68550  1.0000 -0.6407591461
O   O4        1.0  0.41630  0.10240  0.31450  1.0000 -0.6407591461
O   O5        1.0  0.71200  0.60190  0.32420  1.0000 -0.2156120002
O   O6        1.0  0.28800  0.10190  0.67580  1.0000 -0.2156120002
O   O7        1.0  0.62100  0.45550  0.17380  1.0000 -0.6582347065
O   O8        1.0  0.37900  0.95550  0.82620  1.0000 -0.6582347065
O   O9        1.0  0.61060  0.57920  0.04580  1.0000 -0.6582347065
O   O10       1.0  0.38940  0.07920  0.95420  1.0000 -0.6582347065
O   O11       1.0  0.32190  0.72510  0.26750  1.0000 -0.2017201592
O   O12       1.0  0.67810  0.22510  0.73250  1.0000 -0.2017201592
O   O13       1.0  0.37430  0.76230  0.99830  1.0000 -0.679133436
O   O14       1.0  0.62570  0.26230  0.00170  1.0000 -0.679133436
O   O15       1.0  0.40730  0.87130  0.14030  1.0000 -0.679133436
O   O16       1.0  0.59270  0.37130  0.85970  1.0000 -0.679133436
O   O17       1.0  0.80430  0.50330  0.80020  1.0000 -0.59977234
O   O18       1.0  0.19570  0.00330  0.19980  1.0000 -0.59977234
O   O19       1.0  0.80230  0.47830  0.97240  1.0000 -0.6407591461
O   O20       1.0  0.19770  0.97830  0.02760  1.0000 -0.6407591461
O   O21       1.0  0.20300  0.43000  0.13550  1.0000 -0.2017201592
O   O22       1.0  0.79700  0.93000  0.86450  1.0000 -0.2017201592
O   O23       1.0  0.25670  0.21920  0.12360  1.0000 -0.5848830998
O   O24       1.0  0.74330  0.71920  0.87640  1.0000 -0.5848830998
O   O25       1.0  0.43840  0.25440  0.12950  1.0000 -0.7396550238
O   O26       1.0  0.56160  0.75440  0.87050  1.0000 -0.7396550238
O   O27       1.0  0.19810  0.39410  0.74850  1.0000 -0.2017201592
O   O28       1.0  0.80190  0.89410  0.25150  1.0000 -0.2017201592
O   O29       1.0  0.24970  0.60850  0.76640  1.0000 -0.5860689938
O   O30       1.0  0.75030  0.10850  0.23360  1.0000 -0.5860689938
O   O31       1.0  0.42300  0.56830  0.84380  1.0000 -0.7396550238
O   O32       1.0  0.57700  0.06830  0.15620  1.0000 -0.7396550238
O   O33       1.0  0.23770  0.83440  0.64920  1.0000 -0.7541285217
O   O34       1.0  0.76230  0.33440  0.35080  1.0000 -0.7541285217
