# DDEC6 charges by PACMAN v1.1 (https://github.com/mtap-research/PACMAN-charge/)
data_2017[In][nan]3[ASR]5
_chemical_formula_sum              "In12 H132 C144 O60"
_cell_length_a       15.6729
_cell_length_b       23.599
_cell_length_c       18.2174
_cell_angle_alpha    90
_cell_angle_beta     105.446
_cell_angle_gamma    90

_symmetry_space_group_name_H-M    "P 1"
_symmetry_Int_Tables_number       1

loop_
  _symmetry_equiv_pos_as_xyz
  'x, y, z'

loop_
  _atom_site_type_symbol
  _atom_site_label
  _atom_site_symmetry_multiplicity
  _atom_site_fract_x
  _atom_site_fract_y
  _atom_site_fract_z
  _atom_site_occupancy
  _atom_site_charge
In  In1       1.0  0.50000  0.50000  0.00000  1.0000 1.5230507452
In  In2       1.0  0.50000  0.00000  0.50000  1.0000 1.5230507452
In  In3       1.0  0.70998  0.48621  0.13437  1.0000 1.5337316591
In  In4       1.0  0.29002  0.98621  0.36563  1.0000 1.5337316591
In  In5       1.0  0.29002  0.51379  0.86563  1.0000 1.5337316591
In  In6       1.0  0.70998  0.01379  0.63437  1.0000 1.5337316591
In  In7       1.0  0.80922  0.46962  0.34454  1.0000 1.5418260892
In  In8       1.0  0.19078  0.96962  0.15546  1.0000 1.5418260892
In  In9       1.0  0.19078  0.53038  0.65546  1.0000 1.5418260892
In  In10      1.0  0.80922  0.03038  0.84454  1.0000 1.5418260892
In  In11      1.0  0.00000  0.50000  0.50000  1.0000 1.5337316591
In  In12      1.0  0.00000  0.00000  0.00000  1.0000 1.5337316591
H   H1        1.0  0.54330  0.47770  0.15010  1.0000 0.4076995749
H   H2        1.0  0.45670  0.97770  0.34990  1.0000 0.4076995749
H   H3        1.0  0.45670  0.52230  0.84990  1.0000 0.4076995749
H   H4        1.0  0.54330  0.02230  0.65010  1.0000 0.4076995749
H   H5        1.0  0.69170  0.53840  0.25760  1.0000 0.4026205141
H   H6        1.0  0.30830  0.03840  0.24240  1.0000 0.4026205141
H   H7        1.0  0.30830  0.46160  0.74240  1.0000 0.4026205141
H   H8        1.0  0.69170  0.96160  0.75760  1.0000 0.4026205141
H   H9        1.0  0.91430  0.40310  0.44910  1.0000 0.4076995749
H   H10       1.0  0.08570  0.90310  0.05090  1.0000 0.4076995749
H   H11       1.0  0.08570  0.59690  0.55090  1.0000 0.4076995749
H   H12       1.0  0.91430  0.09690  0.94910  1.0000 0.4076995749
H   H13       1.0  0.64710  0.37510  0.88210  1.0000 0.14849561
H   H14       1.0  0.35290  0.87510  0.61790  1.0000 0.14849561
H   H15       1.0  0.35290  0.62490  0.11790  1.0000 0.14849561
H   H16       1.0  0.64710  0.12490  0.38210  1.0000 0.14849561
H   H17       1.0  0.81380  0.41270  0.95450  1.0000 0.1196243741
H   H18       1.0  0.18620  0.91270  0.54550  1.0000 0.1196243741
H   H19       1.0  0.18620  0.58730  0.04550  1.0000 0.1196243741
H   H20       1.0  0.81380  0.08730  0.45450  1.0000 0.1196243741
H   H21       1.0  0.76890  0.22970  0.88890  1.0000 0.1278996837
H   H22       1.0  0.23110  0.72970  0.61110  1.0000 0.1278996837
H   H23       1.0  0.23110  0.77030  0.11110  1.0000 0.1278996837
H   H24       1.0  0.76890  0.27030  0.38890  1.0000 0.1278996837
H   H25       1.0  0.70760  0.27890  0.90250  1.0000 0.1278996837
H   H26       1.0  0.29240  0.77890  0.59750  1.0000 0.1278996837
H   H27       1.0  0.29240  0.72110  0.09750  1.0000 0.1278996837
H   H28       1.0  0.70760  0.22110  0.40250  1.0000 0.1278996837
H   H29       1.0  0.80510  0.27420  0.95360  1.0000 0.14849561
H   H30       1.0  0.19490  0.77420  0.54640  1.0000 0.14849561
H   H31       1.0  0.19490  0.72580  0.04640  1.0000 0.1400052864
H   H32       1.0  0.80510  0.22580  0.45360  1.0000 0.14849561
H   H33       1.0  0.89590  0.31740  0.63890  1.0000 0.1278996837
H   H34       1.0  0.10410  0.81740  0.86110  1.0000 0.1278996837
H   H35       1.0  0.10410  0.68260  0.36110  1.0000 0.1278996837
H   H36       1.0  0.89590  0.18260  0.13890  1.0000 0.1278996837
H   H37       1.0  0.82710  0.26840  0.63450  1.0000 0.1278996837
H   H38       1.0  0.17290  0.76840  0.86550  1.0000 0.1278996837
H   H39       1.0  0.17290  0.73160  0.36550  1.0000 0.1278996837
H   H40       1.0  0.82710  0.23160  0.13450  1.0000 0.1278996837
H   H41       1.0  0.92440  0.26140  0.68530  1.0000 0.1400052864
H   H42       1.0  0.07560  0.76140  0.81470  1.0000 0.1400052864
H   H43       1.0  0.07560  0.73860  0.31470  1.0000 0.1400052864
H   H44       1.0  0.92440  0.23860  0.18530  1.0000 0.1400052864
H   H45       1.0  0.82140  0.47130  0.86150  1.0000 0.1107317564
H   H46       1.0  0.17860  0.97130  0.63850  1.0000 0.1107317564
H   H47       1.0  0.17860  0.52870  0.13850  1.0000 0.1107317564
H   H48       1.0  0.82140  0.02870  0.36150  1.0000 0.1107317564
H   H49       1.0  0.80190  0.47950  0.77320  1.0000 0.1278996837
H   H50       1.0  0.19810  0.97950  0.72680  1.0000 0.1278996837
H   H51       1.0  0.19810  0.52050  0.22680  1.0000 0.1278996837
H   H52       1.0  0.80190  0.02050  0.27320  1.0000 0.1278996837
H   H53       1.0  0.89980  0.47430  0.82320  1.0000 0.1196243741
H   H54       1.0  0.10020  0.97430  0.67680  1.0000 0.1107317564
H   H55       1.0  0.10020  0.52570  0.17680  1.0000 0.1107317564
H   H56       1.0  0.89980  0.02570  0.32320  1.0000 0.1196243741
H   H57       1.0  0.84430  0.19750  0.81970  1.0000 0.1107317564
H   H58       1.0  0.15570  0.69750  0.68030  1.0000 0.1107317564
H   H59       1.0  0.15570  0.80250  0.18030  1.0000 0.1107317564
H   H60       1.0  0.84430  0.30250  0.31970  1.0000 0.1107317564
H   H61       1.0  0.73490  0.20860  0.67670  1.0000 0.14849561
H   H62       1.0  0.26510  0.70860  0.82330  1.0000 0.14849561
H   H63       1.0  0.26510  0.79140  0.32330  1.0000 0.14849561
H   H64       1.0  0.73490  0.29140  0.17670  1.0000 0.14849561
H   H65       1.0  0.87440  0.40430  0.64300  1.0000 0.1196243741
H   H66       1.0  0.12560  0.90430  0.85700  1.0000 0.1196243741
H   H67       1.0  0.12560  0.59570  0.35700  1.0000 0.1196243741
H   H68       1.0  0.87440  0.09570  0.14300  1.0000 0.1196243741
H   H69       1.0  0.00010  0.43610  0.77280  1.0000 0.14849561
H   H70       1.0  0.99990  0.93610  0.72720  1.0000 0.14849561
H   H71       1.0  0.99990  0.56390  0.22720  1.0000 0.14849561
H   H72       1.0  0.00010  0.06390  0.27280  1.0000 0.14849561
H   H73       1.0  0.78370  0.62520  0.54030  1.0000 0.14849561
H   H74       1.0  0.21630  0.12520  0.95970  1.0000 0.14849561
H   H75       1.0  0.21630  0.37480  0.45970  1.0000 0.14849561
H   H76       1.0  0.78370  0.87480  0.04030  1.0000 0.14849561
H   H77       1.0  0.66530  0.60000  0.40550  1.0000 0.1107317564
H   H78       1.0  0.33470  0.10000  0.09450  1.0000 0.1107317564
H   H79       1.0  0.33470  0.40000  0.59450  1.0000 0.1107317564
H   H80       1.0  0.66530  0.90000  0.90550  1.0000 0.1107317564
H   H81       1.0  0.47760  0.56260  0.49950  1.0000 0.1278996837
H   H82       1.0  0.52240  0.06260  0.00050  1.0000 0.1278996837
H   H83       1.0  0.52240  0.43740  0.50050  1.0000 0.1278996837
H   H84       1.0  0.47760  0.93740  0.99950  1.0000 0.1278996837
H   H85       1.0  0.58070  0.55700  0.52940  1.0000 0.1400052864
H   H86       1.0  0.41930  0.05700  0.97060  1.0000 0.1400052864
H   H87       1.0  0.41930  0.44300  0.47060  1.0000 0.1400052864
H   H88       1.0  0.58070  0.94300  0.02940  1.0000 0.1400052864
H   H89       1.0  0.53510  0.55510  0.44170  1.0000 0.1400052864
H   H90       1.0  0.46490  0.05510  0.05830  1.0000 0.1400052864
H   H91       1.0  0.46490  0.44490  0.55830  1.0000 0.1400052864
H   H92       1.0  0.53510  0.94490  0.94170  1.0000 0.1400052864
H   H93       1.0  0.43840  0.80960  0.50610  1.0000 0.1400052864
H   H94       1.0  0.56160  0.30960  0.99390  1.0000 0.1400052864
H   H95       1.0  0.56160  0.19040  0.49390  1.0000 0.1400052864
H   H96       1.0  0.43840  0.69040  0.00610  1.0000 0.1400052864
H   H97       1.0  0.41310  0.76430  0.55960  1.0000 0.1400052864
H   H98       1.0  0.58690  0.26430  0.94040  1.0000 0.1400052864
H   H99       1.0  0.58690  0.23570  0.44040  1.0000 0.1400052864
H   H100      1.0  0.41310  0.73570  0.05960  1.0000 0.1400052864
H   H101      1.0  0.36370  0.76520  0.47260  1.0000 0.1400052864
H   H102      1.0  0.63630  0.26520  0.02740  1.0000 0.1400052864
H   H103      1.0  0.63630  0.23480  0.52740  1.0000 0.1400052864
H   H104      1.0  0.36370  0.73480  0.97260  1.0000 0.1400052864
H   H105      1.0  0.70760  0.78140  0.44860  1.0000 0.1107317564
H   H106      1.0  0.29240  0.28140  0.05140  1.0000 0.1107317564
H   H107      1.0  0.29240  0.21860  0.55140  1.0000 0.1107317564
H   H108      1.0  0.70760  0.71860  0.94860  1.0000 0.1107317564
H   H109      1.0  0.70730  0.72890  0.39580  1.0000 0.1278996837
H   H110      1.0  0.29270  0.22890  0.10420  1.0000 0.1278996837
H   H111      1.0  0.29270  0.27110  0.60420  1.0000 0.1278996837
H   H112      1.0  0.70730  0.77110  0.89580  1.0000 0.1278996837
H   H113      1.0  0.76290  0.72730  0.48110  1.0000 0.1196243741
H   H114      1.0  0.23710  0.22730  0.01890  1.0000 0.1196243741
H   H115      1.0  0.23710  0.27270  0.51890  1.0000 0.1196243741
H   H116      1.0  0.76290  0.77270  0.98110  1.0000 0.1196243741
H   H117      1.0  0.33940  0.66040  0.46560  1.0000 0.1278996837
H   H118      1.0  0.66060  0.16040  0.03440  1.0000 0.1278996837
H   H119      1.0  0.66060  0.33960  0.53440  1.0000 0.1278996837
H   H120      1.0  0.33940  0.83960  0.96560  1.0000 0.1278996837
H   H121      1.0  0.42850  0.61130  0.59590  1.0000 0.1400052864
H   H122      1.0  0.57150  0.11130  0.90410  1.0000 0.1400052864
H   H123      1.0  0.57150  0.38870  0.40410  1.0000 0.1400052864
H   H124      1.0  0.42850  0.88870  0.09590  1.0000 0.1400052864
H   H125      1.0  0.53700  0.83700  0.45550  1.0000 0.1196243741
H   H126      1.0  0.46300  0.33700  0.04450  1.0000 0.1196243741
H   H127      1.0  0.46300  0.16300  0.54450  1.0000 0.1196243741
H   H128      1.0  0.53700  0.66300  0.95550  1.0000 0.1196243741
H   H129      1.0  0.69220  0.82160  0.56390  1.0000 0.1400052864
H   H130      1.0  0.30780  0.32160  0.93610  1.0000 0.1400052864
H   H131      1.0  0.30780  0.17840  0.43610  1.0000 0.1400052864
H   H132      1.0  0.69220  0.67840  0.06390  1.0000 0.1400052864
C   C1        1.0  0.65710  0.43210  0.97140  1.0000 0.658625019
C   C2        1.0  0.34290  0.93210  0.52860  1.0000 0.658625019
C   C3        1.0  0.34290  0.56790  0.02860  1.0000 0.658625019
C   C4        1.0  0.65710  0.06790  0.47140  1.0000 0.658625019
C   C5        1.0  0.68830  0.39680  0.91710  1.0000 -0.2411848761
C   C6        1.0  0.31170  0.89680  0.58290  1.0000 -0.2411848761
C   C7        1.0  0.31170  0.60320  0.08290  1.0000 -0.2411848761
C   C8        1.0  0.68830  0.10320  0.41710  1.0000 -0.2411848761
C   C9        1.0  0.77180  0.39450  0.91580  1.0000 -0.0490007735
C   C10       1.0  0.22820  0.89450  0.58420  1.0000 -0.0399183069
C   C11       1.0  0.22820  0.60550  0.08420  1.0000 -0.0490007735
C   C12       1.0  0.77180  0.10550  0.41580  1.0000 -0.0490007735
C   C13       1.0  0.80220  0.36440  0.85570  1.0000 -0.0399183069
C   C14       1.0  0.19780  0.86440  0.64430  1.0000 -0.0399183069
C   C15       1.0  0.19780  0.63560  0.14430  1.0000 -0.0399183069
C   C16       1.0  0.80220  0.13560  0.35570  1.0000 -0.0399183069
C   C17       1.0  0.79820  0.30560  0.84790  1.0000 0.0795254294
C   C18       1.0  0.20180  0.80560  0.65210  1.0000 0.0795254294
C   C19       1.0  0.20180  0.69440  0.15210  1.0000 0.0795254294
C   C20       1.0  0.79820  0.19440  0.34790  1.0000 0.0795254294
C   C21       1.0  0.81960  0.28030  0.78520  1.0000 -0.0290177484
C   C22       1.0  0.18040  0.78030  0.71480  1.0000 -0.0290177484
C   C23       1.0  0.18040  0.71970  0.21480  1.0000 -0.0290177484
C   C24       1.0  0.81960  0.21970  0.28520  1.0000 -0.0290177484
C   C25       1.0  0.85030  0.31310  0.73390  1.0000 0.0795254294
C   C26       1.0  0.14970  0.81310  0.76610  1.0000 0.0795254294
C   C27       1.0  0.14970  0.68690  0.26610  1.0000 0.0795254294
C   C28       1.0  0.85030  0.18690  0.23390  1.0000 0.0795254294
C   C29       1.0  0.85970  0.37190  0.74560  1.0000 -0.0399183069
C   C30       1.0  0.14030  0.87190  0.75440  1.0000 -0.0399183069
C   C31       1.0  0.14030  0.62810  0.25440  1.0000 -0.0399183069
C   C32       1.0  0.85970  0.12810  0.24560  1.0000 -0.0399183069
C   C33       1.0  0.83600  0.39800  0.80630  1.0000 0.0795254294
C   C34       1.0  0.16400  0.89800  0.69370  1.0000 0.0795254294
C   C35       1.0  0.16400  0.60200  0.19370  1.0000 0.0795254294
C   C36       1.0  0.83600  0.10200  0.30630  1.0000 0.0795254294
C   C37       1.0  0.76710  0.26870  0.90320  1.0000 -0.453304122
C   C38       1.0  0.23290  0.76870  0.59680  1.0000 -0.453304122
C   C39       1.0  0.23290  0.73130  0.09680  1.0000 -0.453304122
C   C40       1.0  0.76710  0.23130  0.40320  1.0000 -0.453304122
C   C41       1.0  0.87680  0.28780  0.66710  1.0000 -0.4349954527
C   C42       1.0  0.12320  0.78780  0.83290  1.0000 -0.4394538801
C   C43       1.0  0.12320  0.71220  0.33290  1.0000 -0.4394538801
C   C44       1.0  0.87680  0.21220  0.16710  1.0000 -0.4349954527
C   C45       1.0  0.84010  0.46160  0.81700  1.0000 -0.4117091361
C   C46       1.0  0.15990  0.96160  0.68300  1.0000 -0.4117091361
C   C47       1.0  0.15990  0.53840  0.18300  1.0000 -0.4117091361
C   C48       1.0  0.84010  0.03840  0.31700  1.0000 -0.4117091361
C   C49       1.0  0.81300  0.21840  0.77790  1.0000 -0.0490007735
C   C50       1.0  0.18700  0.71840  0.72210  1.0000 -0.0490007735
C   C51       1.0  0.18700  0.78160  0.22210  1.0000 -0.0490007735
C   C52       1.0  0.81300  0.28160  0.27790  1.0000 -0.0490007735
C   C53       1.0  0.76820  0.18930  0.71930  1.0000 -0.2452731531
C   C54       1.0  0.23180  0.68930  0.78070  1.0000 -0.2452731531
C   C55       1.0  0.23180  0.81070  0.28070  1.0000 -0.2452731531
C   C56       1.0  0.76820  0.31070  0.21930  1.0000 -0.2452731531
C   C57       1.0  0.76850  0.12680  0.71830  1.0000 0.651256283
C   C58       1.0  0.23150  0.62680  0.78170  1.0000 0.651256283
C   C59       1.0  0.23150  0.87320  0.28170  1.0000 0.651256283
C   C60       1.0  0.76850  0.37320  0.21830  1.0000 0.651256283
C   C61       1.0  0.90130  0.40450  0.69510  1.0000 -0.0600364127
C   C62       1.0  0.09870  0.90450  0.80490  1.0000 -0.0600364127
C   C63       1.0  0.09870  0.59550  0.30490  1.0000 -0.0600364127
C   C64       1.0  0.90130  0.09550  0.19510  1.0000 -0.0600364127
C   C65       1.0  0.97480  0.43390  0.72060  1.0000 -0.2411848761
C   C66       1.0  0.02520  0.93390  0.77940  1.0000 -0.2411848761
C   C67       1.0  0.02520  0.56610  0.27940  1.0000 -0.2411848761
C   C68       1.0  0.97480  0.06610  0.22060  1.0000 -0.2411848761
C   C69       1.0  0.01850  0.46340  0.66880  1.0000 0.651256283
C   C70       1.0  0.98150  0.96340  0.83120  1.0000 0.651256283
C   C71       1.0  0.98150  0.53660  0.33120  1.0000 0.651256283
C   C72       1.0  0.01850  0.03660  0.16880  1.0000 0.651256283
C   C73       1.0  0.82080  0.56550  0.46830  1.0000 0.651256283
C   C74       1.0  0.17920  0.06550  0.03170  1.0000 0.651256283
C   C75       1.0  0.17920  0.43450  0.53170  1.0000 0.651256283
C   C76       1.0  0.82080  0.93450  0.96830  1.0000 0.651256283
C   C77       1.0  0.76270  0.60710  0.49370  1.0000 -0.2227495189
C   C78       1.0  0.23730  0.10710  0.00630  1.0000 -0.2227495189
C   C79       1.0  0.23730  0.39290  0.50630  1.0000 -0.2227495189
C   C80       1.0  0.76270  0.89290  0.99370  1.0000 -0.2227495189
C   C81       1.0  0.68330  0.61860  0.45210  1.0000 -0.0660629038
C   C82       1.0  0.31670  0.11860  0.04790  1.0000 -0.0660629038
C   C83       1.0  0.31670  0.38140  0.54790  1.0000 -0.0660629038
C   C84       1.0  0.68330  0.88140  0.95210  1.0000 -0.0660629038
C   C85       1.0  0.61810  0.65820  0.47070  1.0000 -0.0399183069
C   C86       1.0  0.38190  0.15820  0.02930  1.0000 -0.0399183069
C   C87       1.0  0.38190  0.34180  0.52930  1.0000 -0.0399183069
C   C88       1.0  0.61810  0.84180  0.97070  1.0000 -0.0399183069
C   C89       1.0  0.54210  0.63600  0.48510  1.0000 0.0795254294
C   C90       1.0  0.45790  0.13600  0.01490  1.0000 0.0795254294
C   C91       1.0  0.45790  0.36400  0.51490  1.0000 0.0795254294
C   C92       1.0  0.54210  0.86400  0.98510  1.0000 0.0795254294
C   C93       1.0  0.47580  0.67290  0.49480  1.0000 -0.0290177484
C   C94       1.0  0.52420  0.17290  0.00520  1.0000 -0.0290177484
C   C95       1.0  0.52420  0.32710  0.50520  1.0000 -0.0290177484
C   C96       1.0  0.47580  0.82710  0.99480  1.0000 -0.0290177484
C   C97       1.0  0.48760  0.73110  0.49350  1.0000 0.073494972
C   C98       1.0  0.51240  0.23110  0.00650  1.0000 0.073494972
C   C99       1.0  0.51240  0.26890  0.50650  1.0000 0.073494972
C   C100      1.0  0.48760  0.76890  0.99350  1.0000 0.073494972
C   C101      1.0  0.56680  0.75290  0.48410  1.0000 -0.0290177484
C   C102      1.0  0.43320  0.25290  0.01590  1.0000 -0.0290177484
C   C103      1.0  0.43320  0.24710  0.51590  1.0000 -0.0290177484
C   C104      1.0  0.56680  0.74710  0.98410  1.0000 -0.0290177484
C   C105      1.0  0.63050  0.71660  0.46920  1.0000 0.0795254294
C   C106      1.0  0.36950  0.21660  0.03080  1.0000 0.0795254294
C   C107      1.0  0.36950  0.28340  0.53080  1.0000 0.0795254294
C   C108      1.0  0.63050  0.78340  0.96920  1.0000 0.0795254294
C   C109      1.0  0.53300  0.57170  0.48930  1.0000 -0.4394538801
C   C110      1.0  0.46700  0.07170  0.01070  1.0000 -0.4394538801
C   C111      1.0  0.46700  0.42830  0.51070  1.0000 -0.4394538801
C   C112      1.0  0.53300  0.92830  0.98930  1.0000 -0.4394538801
C   C113      1.0  0.41950  0.77120  0.50940  1.0000 -0.4632928472
C   C114      1.0  0.58050  0.27120  0.99060  1.0000 -0.4632928472
C   C115      1.0  0.58050  0.22880  0.49060  1.0000 -0.4632928472
C   C116      1.0  0.41950  0.72880  0.00940  1.0000 -0.4632928472
C   C117      1.0  0.70930  0.74070  0.44660  1.0000 -0.4117091361
C   C118      1.0  0.29070  0.24070  0.05340  1.0000 -0.4117091361
C   C119      1.0  0.29070  0.25930  0.55340  1.0000 -0.4117091361
C   C120      1.0  0.70930  0.75930  0.94660  1.0000 -0.4117091361
C   C121      1.0  0.38980  0.65110  0.50380  1.0000 -0.0660629038
C   C122      1.0  0.61020  0.15110  0.99620  1.0000 -0.0660629038
C   C123      1.0  0.61020  0.34890  0.49620  1.0000 -0.0660629038
C   C124      1.0  0.38980  0.84890  0.00380  1.0000 -0.0660629038
C   C125      1.0  0.37850  0.62140  0.55770  1.0000 -0.2058618169
C   C126      1.0  0.62150  0.12140  0.94230  1.0000 -0.2058618169
C   C127      1.0  0.62150  0.37860  0.44230  1.0000 -0.2058618169
C   C128      1.0  0.37850  0.87860  0.05770  1.0000 -0.2058618169
C   C129      1.0  0.28970  0.60060  0.56540  1.0000 0.6084891755
C   C130      1.0  0.71030  0.10060  0.93460  1.0000 0.6084891755
C   C131      1.0  0.71030  0.39940  0.43460  1.0000 0.6084891755
C   C132      1.0  0.28970  0.89940  0.06540  1.0000 0.6084891755
C   C133      1.0  0.57980  0.81520  0.48860  1.0000 -0.0600364127
C   C134      1.0  0.42020  0.31520  0.01140  1.0000 -0.0600364127
C   C135      1.0  0.42020  0.18480  0.51140  1.0000 -0.0600364127
C   C136      1.0  0.57980  0.68480  0.98860  1.0000 -0.0600364127
C   C137      1.0  0.64490  0.84230  0.53440  1.0000 -0.2227495189
C   C138      1.0  0.35510  0.34230  0.96560  1.0000 -0.2227495189
C   C139      1.0  0.35510  0.15770  0.46560  1.0000 -0.2227495189
C   C140      1.0  0.64490  0.65770  0.03440  1.0000 -0.2227495189
C   C141      1.0  0.64680  0.90540  0.54130  1.0000 0.658625019
C   C142      1.0  0.35320  0.40540  0.95870  1.0000 0.658625019
C   C143      1.0  0.35320  0.09460  0.45870  1.0000 0.658625019
C   C144      1.0  0.64680  0.59460  0.04130  1.0000 0.658625019
O   O1        1.0  0.57130  0.48477  0.11190  1.0000 -0.918962429
O   O2        1.0  0.42870  0.98477  0.38810  1.0000 -0.918962429
O   O3        1.0  0.42870  0.51523  0.88810  1.0000 -0.918962429
O   O4        1.0  0.57130  0.01523  0.61190  1.0000 -0.918962429
O   O5        1.0  0.72560  0.50819  0.24857  1.0000 -0.8986349951
O   O6        1.0  0.27440  0.00819  0.25143  1.0000 -0.8986349951
O   O7        1.0  0.27440  0.49181  0.75143  1.0000 -0.8986349951
O   O8        1.0  0.72560  0.99181  0.74857  1.0000 -0.8986349951
O   O9        1.0  0.90960  0.44134  0.43635  1.0000 -0.9109681647
O   O10       1.0  0.09040  0.94134  0.06365  1.0000 -0.9109681647
O   O11       1.0  0.09040  0.55866  0.56365  1.0000 -0.9109681647
O   O12       1.0  0.90960  0.05866  0.93635  1.0000 -0.9109681647
O   O13       1.0  0.71350  0.45635  0.02390  1.0000 -0.5780245588
O   O14       1.0  0.28650  0.95635  0.47610  1.0000 -0.5780245588
O   O15       1.0  0.28650  0.54365  0.97610  1.0000 -0.5780245588
O   O16       1.0  0.71350  0.04365  0.52390  1.0000 -0.5780245588
O   O17       1.0  0.57410  0.43571  0.95990  1.0000 -0.5780245588
O   O18       1.0  0.42590  0.93571  0.54010  1.0000 -0.5780245588
O   O19       1.0  0.42590  0.56429  0.04010  1.0000 -0.5780245588
O   O20       1.0  0.57410  0.06429  0.45990  1.0000 -0.5780245588
O   O21       1.0  0.71860  0.10347  0.66090  1.0000 -0.5731838943
O   O22       1.0  0.28140  0.60347  0.83910  1.0000 -0.5731838943
O   O23       1.0  0.28140  0.89653  0.33910  1.0000 -0.5731838943
O   O24       1.0  0.71860  0.39653  0.16090  1.0000 -0.5731838943
O   O25       1.0  0.82010  0.10130  0.77300  1.0000 -0.5780245588
O   O26       1.0  0.17990  0.60130  0.72700  1.0000 -0.5780245588
O   O27       1.0  0.17990  0.89870  0.22700  1.0000 -0.5780245588
O   O28       1.0  0.82010  0.39870  0.27300  1.0000 -0.5780245588
O   O29       1.0  0.99010  0.45480  0.59930  1.0000 -0.5641136568
O   O30       1.0  0.00990  0.95480  0.90070  1.0000 -0.5641136568
O   O31       1.0  0.00990  0.54520  0.40070  1.0000 -0.5641136568
O   O32       1.0  0.99010  0.04520  0.09930  1.0000 -0.5641136568
O   O33       1.0  0.08340  0.49475  0.69980  1.0000 -0.5780245588
O   O34       1.0  0.91660  0.99475  0.80020  1.0000 -0.5780245588
O   O35       1.0  0.91660  0.50525  0.30020  1.0000 -0.5780245588
O   O36       1.0  0.08340  0.00525  0.19980  1.0000 -0.5780245588
O   O37       1.0  0.79490  0.54701  0.40270  1.0000 -0.5731838943
O   O38       1.0  0.20510  0.04701  0.09730  1.0000 -0.5731838943
O   O39       1.0  0.20510  0.45299  0.59730  1.0000 -0.5731838943
O   O40       1.0  0.79490  0.95299  0.90270  1.0000 -0.5731838943
O   O41       1.0  0.89270  0.55422  0.51500  1.0000 -0.5486319314
O   O42       1.0  0.10730  0.05422  0.98500  1.0000 -0.5486319314
O   O43       1.0  0.10730  0.44578  0.48500  1.0000 -0.5486319314
O   O44       1.0  0.89270  0.94578  0.01500  1.0000 -0.5486319314
O   O45       1.0  0.22070  0.61290  0.51770  1.0000 -0.5133511226
O   O46       1.0  0.77930  0.11290  0.98230  1.0000 -0.5133511226
O   O47       1.0  0.77930  0.38710  0.48230  1.0000 -0.5133511226
O   O48       1.0  0.22070  0.88710  0.01770  1.0000 -0.5133511226
O   O49       1.0  0.29550  0.57090  0.62280  1.0000 -0.5731838943
O   O50       1.0  0.70450  0.07090  0.87720  1.0000 -0.5731838943
O   O51       1.0  0.70450  0.42910  0.37720  1.0000 -0.5731838943
O   O52       1.0  0.29550  0.92910  0.12280  1.0000 -0.5731838943
O   O53       1.0  0.59190  0.93302  0.49170  1.0000 -0.5780245588
O   O54       1.0  0.40810  0.43302  0.00830  1.0000 -0.5780245588
O   O55       1.0  0.40810  0.06698  0.50830  1.0000 -0.5780245588
O   O56       1.0  0.59190  0.56698  0.99170  1.0000 -0.5780245588
O   O57       1.0  0.70310  0.92565  0.59770  1.0000 -0.5780245588
O   O58       1.0  0.29690  0.42565  0.90230  1.0000 -0.5780245588
O   O59       1.0  0.29690  0.07435  0.40230  1.0000 -0.5780245588
O   O60       1.0  0.70310  0.57435  0.09770  1.0000 -0.5780245588
