# DDEC6 charges by PACMAN v1.1 (https://github.com/mtap-research/PACMAN-charge/)
data_2017[Dy][esg]3[ASR]1
_chemical_formula_sum              "Dy4 H48 C96 N12 O24"
_cell_length_a       17.2916
_cell_length_b       17.2916
_cell_length_c       26.959
_cell_angle_alpha    73.9683
_cell_angle_beta     106.032
_cell_angle_gamma    146.755

_symmetry_space_group_name_H-M    "P 1"
_symmetry_Int_Tables_number       1

loop_
  _symmetry_equiv_pos_as_xyz
  'x, y, z'

loop_
  _atom_site_type_symbol
  _atom_site_label
  _atom_site_symmetry_multiplicity
  _atom_site_fract_x
  _atom_site_fract_y
  _atom_site_fract_z
  _atom_site_occupancy
  _atom_site_charge
Dy  Dy1       1.0  0.83398  0.93954  0.49810  1.0000 2.0718390687
Dy  Dy2       1.0  0.93954  0.83398  0.00190  1.0000 2.0718390687
Dy  Dy3       1.0  0.16602  0.06046  0.50190  1.0000 2.0718390687
Dy  Dy4       1.0  0.06046  0.16602  0.99810  1.0000 2.0718390687
H   H1        1.0  0.20260  0.96480  0.15340  1.0000 0.1278073608
H   H2        1.0  0.96480  0.20260  0.34660  1.0000 0.1278073608
H   H3        1.0  0.79740  0.03520  0.84660  1.0000 0.1278073608
H   H4        1.0  0.03520  0.79740  0.65340  1.0000 0.1278073608
H   H5        1.0  0.59040  0.96360  0.36280  1.0000 0.1208169334
H   H6        1.0  0.96360  0.59040  0.13720  1.0000 0.1208169334
H   H7        1.0  0.40960  0.03640  0.63720  1.0000 0.1208169334
H   H8        1.0  0.03640  0.40960  0.86280  1.0000 0.1208169334
H   H9        1.0  0.58530  0.59450  0.38250  1.0000 0.1208169334
H   H10       1.0  0.59450  0.58530  0.11750  1.0000 0.1208169334
H   H11       1.0  0.41470  0.40550  0.61750  1.0000 0.1208169334
H   H12       1.0  0.40550  0.41470  0.88250  1.0000 0.1208169334
H   H13       1.0  0.81730  0.35410  0.42230  1.0000 0.1106248467
H   H14       1.0  0.35410  0.81730  0.07770  1.0000 0.1106248467
H   H15       1.0  0.18270  0.64590  0.57770  1.0000 0.1106248467
H   H16       1.0  0.64590  0.18270  0.92230  1.0000 0.1106248467
H   H17       1.0  0.53280  0.05020  0.32300  1.0000 0.1208169334
H   H18       1.0  0.05020  0.53280  0.17700  1.0000 0.1208169334
H   H19       1.0  0.46720  0.94980  0.67700  1.0000 0.1208169334
H   H20       1.0  0.94980  0.46720  0.82300  1.0000 0.1208169334
H   H21       1.0  0.88240  0.27400  0.46010  1.0000 0.1208169334
H   H22       1.0  0.27400  0.88240  0.03990  1.0000 0.1208169334
H   H23       1.0  0.11760  0.72600  0.53990  1.0000 0.1208169334
H   H24       1.0  0.72600  0.11760  0.96010  1.0000 0.1208169334
H   H25       1.0  0.33270  0.30110  0.13820  1.0000 0.1106248467
H   H26       1.0  0.30110  0.33270  0.36180  1.0000 0.1106248467
H   H27       1.0  0.66730  0.69890  0.86180  1.0000 0.1106248467
H   H28       1.0  0.69890  0.66730  0.63820  1.0000 0.1106248467
H   H29       1.0  0.92480  0.73780  0.45550  1.0000 0.1278073608
H   H30       1.0  0.73780  0.92480  0.04450  1.0000 0.1278073608
H   H31       1.0  0.07520  0.26220  0.54450  1.0000 0.1278073608
H   H32       1.0  0.26220  0.07520  0.95550  1.0000 0.1278073608
H   H33       1.0  0.84870  0.57370  0.41700  1.0000 0.1208169334
H   H34       1.0  0.57370  0.84870  0.08300  1.0000 0.1208169334
H   H35       1.0  0.15130  0.42630  0.58300  1.0000 0.1208169334
H   H36       1.0  0.42630  0.15130  0.91700  1.0000 0.1208169334
H   H37       1.0  0.34560  0.03900  0.23130  1.0000 0.1208169334
H   H38       1.0  0.03900  0.34560  0.26870  1.0000 0.1106248467
H   H39       1.0  0.65440  0.96100  0.76870  1.0000 0.1106248467
H   H40       1.0  0.96100  0.65440  0.73130  1.0000 0.1106248467
H   H41       1.0  0.47100  0.37260  0.21680  1.0000 0.1106248467
H   H42       1.0  0.37260  0.47100  0.28320  1.0000 0.1106248467
H   H43       1.0  0.52900  0.62740  0.78320  1.0000 0.1106248467
H   H44       1.0  0.62740  0.52900  0.71680  1.0000 0.1106248467
H   H45       1.0  0.51940  0.44400  0.34000  1.0000 0.1106248467
H   H46       1.0  0.44400  0.51940  0.16000  1.0000 0.1106248467
H   H47       1.0  0.48060  0.55600  0.66000  1.0000 0.1106248467
H   H48       1.0  0.55600  0.48060  0.84000  1.0000 0.1106248467
C   C1        1.0  0.16258  0.07922  0.08826  1.0000 0.647095774
C   C2        1.0  0.07922  0.16258  0.41174  1.0000 0.647095774
C   C3        1.0  0.83742  0.92078  0.91174  1.0000 0.647095774
C   C4        1.0  0.92078  0.83742  0.58826  1.0000 0.647095774
C   C5        1.0  0.74030  0.10830  0.41701  1.0000 -0.0128622626
C   C6        1.0  0.10830  0.74030  0.08299  1.0000 -0.0128622626
C   C7        1.0  0.25970  0.89170  0.58299  1.0000 -0.0128622626
C   C8        1.0  0.89170  0.25970  0.91701  1.0000 -0.0128622626
C   C9        1.0  0.77273  0.04847  0.44376  1.0000 0.558536966
C   C10       1.0  0.04847  0.77273  0.05624  1.0000 0.558536966
C   C11       1.0  0.22727  0.95153  0.55624  1.0000 0.558536966
C   C12       1.0  0.95153  0.22727  0.94376  1.0000 0.558536966
C   C13       1.0  0.66707  0.20873  0.36900  1.0000 0.010506137
C   C14       1.0  0.20873  0.66707  0.13100  1.0000 0.010506137
C   C15       1.0  0.33293  0.79127  0.63100  1.0000 0.010506137
C   C16       1.0  0.79127  0.33293  0.86900  1.0000 0.010506137
C   C17       1.0  0.80927  0.78393  0.44881  1.0000 0.626077865
C   C18       1.0  0.78393  0.80927  0.05119  1.0000 0.626077865
C   C19       1.0  0.19073  0.21607  0.55119  1.0000 0.626077865
C   C20       1.0  0.21607  0.19073  0.94881  1.0000 0.626077865
C   C21       1.0  0.25738  0.04782  0.16640  1.0000 -0.0932813083
C   C22       1.0  0.04782  0.25738  0.33360  1.0000 -0.0932813083
C   C23       1.0  0.74262  0.95218  0.83360  1.0000 -0.0932813083
C   C24       1.0  0.95218  0.74262  0.66640  1.0000 -0.0932813083
C   C25       1.0  0.62681  0.26059  0.34590  1.0000 0.3720989526
C   C26       1.0  0.26059  0.62681  0.15410  1.0000 0.3755673214
C   C27       1.0  0.37319  0.73941  0.65410  1.0000 0.3720989526
C   C28       1.0  0.73941  0.37319  0.84590  1.0000 0.3720989526
C   C29       1.0  0.63686  0.04314  0.37510  1.0000 -0.0932813083
C   C30       1.0  0.04314  0.63686  0.12490  1.0000 -0.0932813083
C   C31       1.0  0.36314  0.95686  0.62490  1.0000 -0.0932813083
C   C32       1.0  0.95686  0.36314  0.87510  1.0000 -0.0932813083
C   C33       1.0  0.64041  0.59239  0.38880  1.0000 -0.0932813083
C   C34       1.0  0.59239  0.64041  0.11120  1.0000 -0.1003648297
C   C35       1.0  0.35959  0.40761  0.61120  1.0000 -0.0932813083
C   C36       1.0  0.40761  0.35959  0.88880  1.0000 -0.1003648297
C   C37       1.0  0.25231  0.12469  0.13893  1.0000 -0.0150253748
C   C38       1.0  0.12469  0.25231  0.36107  1.0000 -0.0150253748
C   C39       1.0  0.74769  0.87531  0.86107  1.0000 -0.0150253748
C   C40       1.0  0.87531  0.74769  0.63893  1.0000 -0.0150253748
C   C41       1.0  0.76158  0.68142  0.42290  1.0000 -0.0128622626
C   C42       1.0  0.68142  0.76158  0.07710  1.0000 -0.0128622626
C   C43       1.0  0.23842  0.31858  0.57710  1.0000 -0.0128622626
C   C44       1.0  0.31858  0.23842  0.92290  1.0000 -0.0128622626
C   C45       1.0  0.77129  0.27491  0.41000  1.0000 -0.1119975013
C   C46       1.0  0.27491  0.77129  0.09000  1.0000 -0.1119975013
C   C47       1.0  0.22871  0.72509  0.59000  1.0000 -0.1119975013
C   C48       1.0  0.72509  0.22871  0.91000  1.0000 -0.1119975013
C   C49       1.0  0.60241  0.09459  0.35160  1.0000 -0.1191611762
C   C50       1.0  0.09459  0.60241  0.14840  1.0000 -0.1191611762
C   C51       1.0  0.39759  0.90541  0.64840  1.0000 -0.1191611762
C   C52       1.0  0.90541  0.39759  0.85160  1.0000 -0.1191611762
C   C53       1.0  0.50749  0.25831  0.28210  1.0000 0.3755673214
C   C54       1.0  0.25831  0.50749  0.21790  1.0000 0.3755673214
C   C55       1.0  0.49251  0.74169  0.71790  1.0000 0.3755673214
C   C56       1.0  0.74169  0.49251  0.78210  1.0000 0.3755673214
C   C57       1.0  0.80856  0.22584  0.43300  1.0000 -0.1003648297
C   C58       1.0  0.22584  0.80856  0.06700  1.0000 -0.1003648297
C   C59       1.0  0.19144  0.77416  0.56700  1.0000 -0.1003648297
C   C60       1.0  0.77416  0.19144  0.93300  1.0000 -0.1003648297
C   C61       1.0  0.33367  0.24673  0.15740  1.0000 -0.1003648297
C   C62       1.0  0.24673  0.33367  0.34260  1.0000 -0.1003648297
C   C63       1.0  0.66633  0.75327  0.84260  1.0000 -0.1003648297
C   C64       1.0  0.75327  0.66633  0.65740  1.0000 -0.1003648297
C   C65       1.0  0.84072  0.67568  0.43270  1.0000 -0.0932813083
C   C66       1.0  0.67568  0.84072  0.06730  1.0000 -0.0932813083
C   C67       1.0  0.15928  0.32432  0.56730  1.0000 -0.0932813083
C   C68       1.0  0.32432  0.15928  0.93270  1.0000 -0.0932813083
C   C69       1.0  0.79685  0.57975  0.40950  1.0000 -0.1191611762
C   C70       1.0  0.57975  0.79685  0.09050  1.0000 -0.1191611762
C   C71       1.0  0.20315  0.42025  0.59050  1.0000 -0.1191611762
C   C72       1.0  0.42025  0.20315  0.90950  1.0000 -0.1191611762
C   C73       1.0  0.34198  0.09142  0.21280  1.0000 -0.1119975013
C   C74       1.0  0.09142  0.34198  0.28720  1.0000 -0.1119975013
C   C75       1.0  0.65802  0.90858  0.78720  1.0000 -0.1119975013
C   C76       1.0  0.90858  0.65802  0.71280  1.0000 -0.1119975013
C   C77       1.0  0.41652  0.28968  0.20380  1.0000 -0.1191611762
C   C78       1.0  0.28968  0.41652  0.29620  1.0000 -0.1191611762
C   C79       1.0  0.58348  0.71032  0.79620  1.0000 -0.1191611762
C   C80       1.0  0.71032  0.58348  0.70380  1.0000 -0.1191611762
C   C81       1.0  0.63178  0.39382  0.34830  1.0000 0.3720989526
C   C82       1.0  0.39382  0.63178  0.15170  1.0000 0.3720989526
C   C83       1.0  0.36822  0.60618  0.65170  1.0000 0.3720989526
C   C84       1.0  0.60618  0.36822  0.84830  1.0000 0.3720989526
C   C85       1.0  0.42056  0.21164  0.23170  1.0000 0.0207662105
C   C86       1.0  0.21164  0.42056  0.26830  1.0000 0.0207662105
C   C87       1.0  0.57944  0.78836  0.76830  1.0000 0.0207662105
C   C88       1.0  0.78836  0.57944  0.73170  1.0000 0.0207662105
C   C89       1.0  0.67625  0.49295  0.37510  1.0000 0.0207662105
C   C90       1.0  0.49295  0.67625  0.12490  1.0000 0.0207662105
C   C91       1.0  0.32375  0.50705  0.62490  1.0000 0.0207662105
C   C92       1.0  0.50705  0.32375  0.87510  1.0000 0.0207662105
C   C93       1.0  0.59998  0.50162  0.36440  1.0000 -0.1292070554
C   C94       1.0  0.50162  0.59998  0.13560  1.0000 -0.1292070554
C   C95       1.0  0.40002  0.49838  0.63560  1.0000 -0.1292070554
C   C96       1.0  0.49838  0.40002  0.86440  1.0000 -0.1292070554
N   N1        1.0  0.54342  0.20978  0.30101  1.0000 -0.4213904545
N   N2        1.0  0.20978  0.54342  0.19899  1.0000 -0.4213904545
N   N3        1.0  0.45658  0.79022  0.69899  1.0000 -0.4213904545
N   N4        1.0  0.79022  0.45658  0.80101  1.0000 -0.4213904545
N   N5        1.0  0.67488  0.35372  0.37039  1.0000 -0.4070170031
N   N6        1.0  0.35372  0.67488  0.12961  1.0000 -0.4070170031
N   N7        1.0  0.32512  0.64628  0.62961  1.0000 -0.4070170031
N   N8        1.0  0.64628  0.32512  0.87039  1.0000 -0.4070170031
N   N9        1.0  0.54786  0.34934  0.30410  1.0000 -0.4213904545
N   N10       1.0  0.34934  0.54786  0.19590  1.0000 -0.4213904545
N   N11       1.0  0.45214  0.65066  0.69590  1.0000 -0.4213904545
N   N12       1.0  0.65066  0.45214  0.80410  1.0000 -0.4213904545
O   O1        1.0  0.70067  0.93553  0.43179  1.0000 -0.6050132767
O   O2        1.0  0.93553  0.70067  0.06821  1.0000 -0.6050132767
O   O3        1.0  0.29933  0.06447  0.56821  1.0000 -0.6050132767
O   O4        1.0  0.06447  0.29933  0.93179  1.0000 -0.6027143852
O   O5        1.0  0.87192  0.11428  0.47980  1.0000 -0.6586064503
O   O6        1.0  0.11428  0.87192  0.02020  1.0000 -0.6586064503
O   O7        1.0  0.12808  0.88572  0.52020  1.0000 -0.6586064503
O   O8        1.0  0.88572  0.12808  0.97980  1.0000 -0.6586064503
O   O9        1.0  0.93118  0.88142  0.47077  1.0000 -0.7186652974
O   O10       1.0  0.88142  0.93118  0.02923  1.0000 -0.7186652974
O   O11       1.0  0.06882  0.11858  0.52923  1.0000 -0.7186652974
O   O12       1.0  0.11858  0.06882  0.97077  1.0000 -0.7186652974
O   O13       1.0  0.72182  0.76698  0.44755  1.0000 -0.6237698601
O   O14       1.0  0.76698  0.72182  0.05245  1.0000 -0.6237698601
O   O15       1.0  0.27818  0.23302  0.55245  1.0000 -0.6237698601
O   O16       1.0  0.23302  0.27818  0.94755  1.0000 -0.6237698601
O   O17       1.0  0.07905  0.96095  0.07528  1.0000 -0.6265286313
O   O18       1.0  0.96095  0.07905  0.42472  1.0000 -0.6265286313
O   O19       1.0  0.92095  0.03905  0.92472  1.0000 -0.6265286313
O   O20       1.0  0.03905  0.92095  0.57528  1.0000 -0.6265286313
O   O21       1.0  0.18191  0.16689  0.06253  1.0000 -0.6809533493
O   O22       1.0  0.16689  0.18191  0.43747  1.0000 -0.6809533493
O   O23       1.0  0.81809  0.83311  0.93747  1.0000 -0.6809533493
O   O24       1.0  0.83311  0.81809  0.56253  1.0000 -0.6809533493
