# DDEC6 charges by PACMAN v1.1 (https://github.com/mtap-research/PACMAN-charge/)
data_2017[Cu][kgd]2[ASR]2
_chemical_formula_sum              "Cu4 H50 C72 N24 O12"
_cell_length_a       9.927
_cell_length_b       11.242
_cell_length_c       25.381
_cell_angle_alpha    86.98
_cell_angle_beta     89.24
_cell_angle_gamma    77.75

_symmetry_space_group_name_H-M    "P 1"
_symmetry_Int_Tables_number       1

loop_
  _symmetry_equiv_pos_as_xyz
  'x, y, z'

loop_
  _atom_site_type_symbol
  _atom_site_label
  _atom_site_symmetry_multiplicity
  _atom_site_fract_x
  _atom_site_fract_y
  _atom_site_fract_z
  _atom_site_occupancy
  _atom_site_charge
Cu  Cu1       1.0  0.42018  0.27995  0.24398  1.0000 0.5237923576
Cu  Cu2       1.0  0.95100  0.22822  0.74509  1.0000 0.3338715895
Cu  Cu3       1.0  0.57982  0.72005  0.75602  1.0000 0.5095153762
Cu  Cu4       1.0  0.04900  0.77178  0.25491  1.0000 0.3338715895
H   H1        1.0  0.23220  0.36880  0.50610  1.0000 0.2807695507
H   H2        1.0  0.65310  0.35950  0.72960  1.0000 0.1013635911
H   H3        1.0  0.18900  0.33350  0.77760  1.0000 0.1013635911
H   H4        1.0  0.35390  0.30530  0.84170  1.0000 0.1300731389
H   H5        1.0  0.56770  0.06580  0.83060  1.0000 0.1300731389
H   H6        1.0  0.11610  0.47090  0.59720  1.0000 0.1300731389
H   H7        1.0  0.22130  0.40250  0.41750  1.0000 0.1300731389
H   H8        1.0  0.20060  0.03010  0.90620  1.0000 0.1404770209
H   H9        1.0  0.72330  0.29050  0.91740  1.0000 0.1461384831
H   H10       1.0  0.62180  0.28170  0.32810  1.0000 0.1078829058
H   H11       1.0  0.76160  0.20570  0.56830  1.0000 0.1404770209
H   H12       1.0  0.48750  0.39360  0.66620  1.0000 0.1300731389
H   H13       1.0  0.65040  0.18210  0.07360  1.0000 0.1404770209
H   H14       1.0  0.91460  0.16890  0.63440  1.0000 0.1013635911
H   H15       1.0  0.22380  0.37820  0.32820  1.0000 0.1078829058
H   H16       1.0  0.63200  0.30700  0.41680  1.0000 0.1404770209
H   H17       1.0  0.25180  0.16840  0.07480  1.0000 0.1461384831
H   H18       1.0  0.38570  0.16580  0.64240  1.0000 0.1404770209
H   H19       1.0  0.04850  0.05820  0.83780  1.0000 0.1013635911
H   H20       1.0  0.97270  0.42670  0.66280  1.0000 0.1013635911
H   H21       1.0  0.23120  0.12680  0.70550  1.0000 0.1078829058
H   H22       1.0  0.63190  0.22090  0.16090  1.0000 0.1013635911
H   H23       1.0  0.24360  0.21630  0.16230  1.0000 0.1078829058
H   H24       1.0  0.72740  0.08870  0.76720  1.0000 0.1013635911
H   H25       1.0  0.86670  0.31800  0.84960  1.0000 0.1013635911
H   H26       1.0  0.76780  0.63120  0.49390  1.0000 0.2807695507
H   H27       1.0  0.34690  0.64050  0.27040  1.0000 0.1013635911
H   H28       1.0  0.81100  0.66650  0.22240  1.0000 0.1013635911
H   H29       1.0  0.64610  0.69470  0.15830  1.0000 0.1300731389
H   H30       1.0  0.43230  0.93420  0.16940  1.0000 0.1300731389
H   H31       1.0  0.88390  0.52910  0.40280  1.0000 0.1300731389
H   H32       1.0  0.77870  0.59750  0.58250  1.0000 0.1300731389
H   H33       1.0  0.79940  0.96990  0.09380  1.0000 0.1404770209
H   H34       1.0  0.27670  0.70950  0.08260  1.0000 0.1461384831
H   H35       1.0  0.37820  0.71830  0.67190  1.0000 0.1078829058
H   H36       1.0  0.23840  0.79430  0.43170  1.0000 0.1404770209
H   H37       1.0  0.51250  0.60640  0.33380  1.0000 0.1300731389
H   H38       1.0  0.34960  0.81790  0.92640  1.0000 0.1404770209
H   H39       1.0  0.08540  0.83110  0.36560  1.0000 0.1013635911
H   H40       1.0  0.77620  0.62180  0.67180  1.0000 0.1078829058
H   H41       1.0  0.36800  0.69300  0.58320  1.0000 0.1404770209
H   H42       1.0  0.74820  0.83160  0.92520  1.0000 0.1461384831
H   H43       1.0  0.61430  0.83420  0.35760  1.0000 0.1404770209
H   H44       1.0  0.95150  0.94180  0.16220  1.0000 0.1013635911
H   H45       1.0  0.02730  0.57330  0.33720  1.0000 0.1013635911
H   H46       1.0  0.76880  0.87320  0.29450  1.0000 0.1078829058
H   H47       1.0  0.36810  0.77910  0.83910  1.0000 0.1013635911
H   H48       1.0  0.75640  0.78370  0.83770  1.0000 0.1078829058
H   H49       1.0  0.27260  0.91130  0.23280  1.0000 0.1013635911
H   H50       1.0  0.13330  0.68200  0.15040  1.0000 0.1013635911
C   C1        1.0  0.29620  0.16540  0.88170  1.0000 0.1078829058
C   C2        1.0  0.62630  0.17600  0.88262  1.0000 0.1078829058
C   C3        1.0  0.60450  0.30450  0.60872  1.0000 0.1013635911
C   C4        1.0  0.39530  0.15460  0.92584  1.0000 0.0484290341
C   C5        1.0  0.42760  0.35230  0.48569  1.0000 0.2807695507
C   C6        1.0  0.26620  0.31960  0.61102  1.0000 0.0946760787
C   C7        1.0  0.67420  0.32670  0.69684  1.0000 0.0484290341
C   C8        1.0  0.50260  0.32630  0.56620  1.0000 0.0484290341
C   C9        1.0  0.53020  0.16360  0.92592  1.0000 0.0484290341
C   C10       1.0  0.45730  0.16000  0.00669  1.0000 0.296237783
C   C11       1.0  0.19250  0.27050  0.80318  1.0000 0.0691974474
C   C12       1.0  0.29070  0.25490  0.84212  1.0000 -0.1891600477
C   C13       1.0  0.62920  0.11590  0.83585  1.0000 -0.2106943966
C   C14       1.0  0.42650  0.35180  0.42833  1.0000 0.059659723
C   C15       1.0  0.36080  0.33940  0.56728  1.0000 0.0484290341
C   C16       1.0  0.45180  0.17380  0.06395  1.0000 0.0763337551
C   C17       1.0  0.14130  0.40000  0.61852  1.0000 -0.2106943966
C   C18       1.0  0.30480  0.37620  0.40025  1.0000 -0.2106943966
C   C19       1.0  0.20170  0.09120  0.88010  1.0000 -0.1891600477
C   C20       1.0  0.72000  0.25000  0.88662  1.0000 -0.1711278719
C   C21       1.0  0.53960  0.30540  0.34650  1.0000 0.059659723
C   C22       1.0  0.73630  0.23690  0.60102  1.0000 -0.1711278719
C   C23       1.0  0.57500  0.34880  0.65877  1.0000 -0.2106943966
C   C24       1.0  0.56590  0.18860  0.09070  1.0000 -0.1711278719
C   C25       1.0  0.82750  0.21610  0.64064  1.0000 0.0285510322
C   C26       1.0  0.30690  0.36130  0.34643  1.0000 0.0691974474
C   C27       1.0  0.54700  0.31930  0.40007  1.0000 -0.1790138842
C   C28       1.0  0.33010  0.18140  0.09127  1.0000 -0.1625751616
C   C29       1.0  0.30050  0.21880  0.64513  1.0000 -0.1981037246
C   C30       1.0  0.10980  0.11000  0.83913  1.0000 0.0484290341
C   C31       1.0  0.05630  0.37250  0.65797  1.0000 0.059659723
C   C32       1.0  0.20800  0.19680  0.68346  1.0000 0.059659723
C   C33       1.0  0.55330  0.21300  0.14301  1.0000 0.059659723
C   C34       1.0  0.32660  0.20920  0.14407  1.0000 0.0691974474
C   C35       1.0  0.72440  0.13160  0.79765  1.0000 0.0484290341
C   C36       1.0  0.80790  0.26460  0.84622  1.0000 0.0691974474
C   C37       1.0  0.70380  0.83460  0.11830  1.0000 0.1078829058
C   C38       1.0  0.37370  0.82400  0.11738  1.0000 0.1078829058
C   C39       1.0  0.39550  0.69550  0.39128  1.0000 0.1013635911
C   C40       1.0  0.60470  0.84540  0.07416  1.0000 0.0484290341
C   C41       1.0  0.57240  0.64770  0.51431  1.0000 0.2807695507
C   C42       1.0  0.73380  0.68040  0.38898  1.0000 0.0946760787
C   C43       1.0  0.32580  0.67330  0.30316  1.0000 0.0484290341
C   C44       1.0  0.49740  0.67370  0.43380  1.0000 0.0484290341
C   C45       1.0  0.46980  0.83640  0.07408  1.0000 0.0484290341
C   C46       1.0  0.54270  0.84000  0.99331  1.0000 0.296237783
C   C47       1.0  0.80750  0.72950  0.19682  1.0000 0.0691974474
C   C48       1.0  0.70930  0.74510  0.15788  1.0000 -0.1891600477
C   C49       1.0  0.37080  0.88410  0.16415  1.0000 -0.2106943966
C   C50       1.0  0.57350  0.64820  0.57167  1.0000 0.0691974474
C   C51       1.0  0.63920  0.66060  0.43272  1.0000 0.0484290341
C   C52       1.0  0.54820  0.82620  0.93605  1.0000 0.0763337551
C   C53       1.0  0.85870  0.60000  0.38148  1.0000 -0.2106943966
C   C54       1.0  0.69520  0.62380  0.59975  1.0000 -0.2106943966
C   C55       1.0  0.79830  0.90880  0.11990  1.0000 -0.1891600477
C   C56       1.0  0.28000  0.75000  0.11338  1.0000 -0.1711278719
C   C57       1.0  0.46040  0.69460  0.65350  1.0000 0.059659723
C   C58       1.0  0.26370  0.76310  0.39898  1.0000 -0.1711278719
C   C59       1.0  0.42500  0.65120  0.34123  1.0000 -0.2106943966
C   C60       1.0  0.43410  0.81140  0.90930  1.0000 -0.1711278719
C   C61       1.0  0.17250  0.78390  0.35936  1.0000 0.0285510322
C   C62       1.0  0.69310  0.63870  0.65357  1.0000 0.0691974474
C   C63       1.0  0.45300  0.68070  0.59993  1.0000 -0.1790138842
C   C64       1.0  0.66990  0.81860  0.90873  1.0000 -0.1625751616
C   C65       1.0  0.69950  0.78120  0.35487  1.0000 -0.1981037246
C   C66       1.0  0.89020  0.89000  0.16087  1.0000 0.0484290341
C   C67       1.0  0.94370  0.62750  0.34203  1.0000 0.059659723
C   C68       1.0  0.79200  0.80320  0.31654  1.0000 0.059659723
C   C69       1.0  0.44670  0.78700  0.85699  1.0000 0.059659723
C   C70       1.0  0.67340  0.79080  0.85593  1.0000 0.0691974474
C   C71       1.0  0.27560  0.86840  0.20235  1.0000 0.0484290341
C   C72       1.0  0.19210  0.73540  0.15378  1.0000 0.059659723
N   N1        1.0  0.42350  0.32360  0.31974  1.0000 -0.2212329667
N   N2        1.0  0.80100  0.25940  0.68893  1.0000 -0.2299560332
N   N3        1.0  0.10240  0.19850  0.80077  1.0000 -0.2212329667
N   N4        1.0  0.54340  0.33333  0.51431  1.0000 -0.3831175403
N   N5        1.0  0.34890  0.15130  0.97730  1.0000 -0.3891738988
N   N6        1.0  0.31630  0.35690  0.51654  1.0000 -0.2846002714
N   N7        1.0  0.56850  0.16760  0.97716  1.0000 -0.3891738988
N   N8        1.0  0.13160  0.46520  0.21654  1.0000 0.6606255485
N   N9        1.0  0.57480  0.45580  0.22555  1.0000 0.5860609127
N   N10       1.0  0.08630  0.27200  0.69021  1.0000 -0.2106943966
N   N11       1.0  0.43630  0.22600  0.16972  1.0000 -0.2299560332
N   N12       1.0  0.81230  0.20490  0.80203  1.0000 -0.2212329667
N   N13       1.0  0.57650  0.67640  0.68026  1.0000 -0.2212329667
N   N14       1.0  0.19900  0.74060  0.31107  1.0000 -0.2299560332
N   N15       1.0  0.89760  0.80150  0.19923  1.0000 -0.2212329667
N   N16       1.0  0.45660  0.66667  0.48569  1.0000 -0.3831175403
N   N17       1.0  0.65110  0.84870  0.02270  1.0000 -0.3891738988
N   N18       1.0  0.68370  0.64310  0.48346  1.0000 -0.2846002714
N   N19       1.0  0.43150  0.83240  0.02284  1.0000 -0.3891738988
N   N20       1.0  0.86840  0.53480  0.78346  1.0000 0.6606255485
N   N21       1.0  0.42520  0.54420  0.77445  1.0000 0.5837272717
N   N22       1.0  0.91370  0.72800  0.30979  1.0000 -0.2106943966
N   N23       1.0  0.56370  0.77400  0.83028  1.0000 -0.2299560332
N   N24       1.0  0.18770  0.79510  0.19797  1.0000 -0.2212329667
O   O1        1.0  0.18800  0.35960  0.23426  1.0000 -0.4387424724
O   O2        1.0  0.44890  0.45150  0.21918  1.0000 -0.3566748785
O   O3        1.0  0.63960  0.35030  0.23538  1.0000 -0.3687652485
O   O4        1.0  0.09630  0.47890  0.17122  1.0000 -0.3511394746
O   O5        1.0  0.61670  0.54090  0.22610  1.0000 -0.3157986985
O   O6        1.0  0.11010  0.54860  0.24434  1.0000 -0.3891738988
O   O7        1.0  0.81200  0.64040  0.76574  1.0000 -0.4387424724
O   O8        1.0  0.55110  0.54850  0.78082  1.0000 -0.3511394746
O   O9        1.0  0.36040  0.64970  0.76462  1.0000 -0.3687652485
O   O10       1.0  0.90370  0.52110  0.82878  1.0000 -0.3511394746
O   O11       1.0  0.38330  0.45910  0.77390  1.0000 -0.3157986985
O   O12       1.0  0.88990  0.45140  0.75566  1.0000 -0.3891738988
