# DDEC6 charges by PACMAN v1.1 (https://github.com/mtap-research/PACMAN-charge/)
data_2017[CuTb][nan]3[ASR]2
_chemical_formula_sum              "Tb4 Cu16 H48 C72 I16 N12 O24"
_cell_length_a       15.005
_cell_length_b       8.341
_cell_length_c       30.1972
_cell_angle_alpha    90
_cell_angle_beta     108.009
_cell_angle_gamma    90

_symmetry_space_group_name_H-M    "P 1"
_symmetry_Int_Tables_number       1

loop_
  _symmetry_equiv_pos_as_xyz
  'x, y, z'

loop_
  _atom_site_type_symbol
  _atom_site_label
  _atom_site_symmetry_multiplicity
  _atom_site_fract_x
  _atom_site_fract_y
  _atom_site_fract_z
  _atom_site_occupancy
  _atom_site_charge
Tb  Tb1       1.0  0.04411  0.77495  0.48542  1.0000 2.1030406231
Tb  Tb2       1.0  0.95589  0.27495  0.01458  1.0000 2.1030406231
Tb  Tb3       1.0  0.95589  0.22505  0.51458  1.0000 2.1030406231
Tb  Tb4       1.0  0.04411  0.72505  0.98542  1.0000 2.1030406231
Cu  Cu1       1.0  0.41852  0.17930  0.77972  1.0000 0.166095967
Cu  Cu2       1.0  0.58148  0.67930  0.72028  1.0000 0.166095967
Cu  Cu3       1.0  0.58148  0.82070  0.22028  1.0000 0.166095967
Cu  Cu4       1.0  0.41852  0.32070  0.27972  1.0000 0.166095967
Cu  Cu5       1.0  0.32677  0.88864  0.74827  1.0000 0.1594988858
Cu  Cu6       1.0  0.67323  0.38864  0.75173  1.0000 0.1594988858
Cu  Cu7       1.0  0.67323  0.11136  0.25173  1.0000 0.1594988858
Cu  Cu8       1.0  0.32677  0.61136  0.24827  1.0000 0.1594988858
Cu  Cu9       1.0  0.46281  0.89350  0.82605  1.0000 0.166095967
Cu  Cu10      1.0  0.53719  0.39350  0.67395  1.0000 0.166095967
Cu  Cu11      1.0  0.53719  0.10650  0.17395  1.0000 0.166095967
Cu  Cu12      1.0  0.46281  0.60650  0.32605  1.0000 0.166095967
Cu  Cu13      1.0  0.29983  0.05050  0.81779  1.0000 0.1594988858
Cu  Cu14      1.0  0.70017  0.55050  0.68221  1.0000 0.1594988858
Cu  Cu15      1.0  0.70017  0.94950  0.18221  1.0000 0.1594988858
Cu  Cu16      1.0  0.29983  0.44950  0.31779  1.0000 0.1594988858
H   H1        1.0  0.83170  0.45040  0.62620  1.0000 0.1089670198
H   H2        1.0  0.16830  0.95040  0.87380  1.0000 0.1089670198
H   H3        1.0  0.16830  0.54960  0.37380  1.0000 0.1089670198
H   H4        1.0  0.83170  0.04960  0.12620  1.0000 0.1089670198
H   H5        1.0  0.92100  0.57690  0.58510  1.0000 0.1302147777
H   H6        1.0  0.07900  0.07690  0.91490  1.0000 0.1302147777
H   H7        1.0  0.07900  0.42310  0.41490  1.0000 0.1302147777
H   H8        1.0  0.92100  0.92310  0.08510  1.0000 0.1302147777
H   H9        1.0  0.85450  0.01010  0.62700  1.0000 0.1302147777
H   H10       1.0  0.14550  0.51010  0.87300  1.0000 0.1302147777
H   H11       1.0  0.14550  0.98990  0.37300  1.0000 0.1302147777
H   H12       1.0  0.85450  0.48990  0.12700  1.0000 0.1302147777
H   H13       1.0  0.76510  0.88360  0.66800  1.0000 0.1019848591
H   H14       1.0  0.23490  0.38360  0.83200  1.0000 0.1019848591
H   H15       1.0  0.23490  0.11640  0.33200  1.0000 0.1019848591
H   H16       1.0  0.76510  0.61640  0.16800  1.0000 0.1019848591
H   H17       1.0  0.33800  0.81830  0.65300  1.0000 0.1019848591
H   H18       1.0  0.66200  0.31830  0.84700  1.0000 0.1019848591
H   H19       1.0  0.66200  0.18170  0.34700  1.0000 0.1019848591
H   H20       1.0  0.33800  0.68170  0.15300  1.0000 0.1019848591
H   H21       1.0  0.24980  0.68400  0.58570  1.0000 0.1302147777
H   H22       1.0  0.75020  0.18400  0.91430  1.0000 0.1302147777
H   H23       1.0  0.75020  0.31600  0.41430  1.0000 0.1302147777
H   H24       1.0  0.24980  0.81600  0.08570  1.0000 0.1302147777
H   H25       1.0  0.08110  0.50500  0.65580  1.0000 0.1236815562
H   H26       1.0  0.91890  0.00500  0.84420  1.0000 0.1236815562
H   H27       1.0  0.91890  0.49500  0.34420  1.0000 0.1236815562
H   H28       1.0  0.08110  0.99500  0.15580  1.0000 0.1236815562
H   H29       1.0  0.16930  0.63940  0.72310  1.0000 0.1019848591
H   H30       1.0  0.83070  0.13940  0.77690  1.0000 0.1019848591
H   H31       1.0  0.83070  0.36060  0.27690  1.0000 0.1019848591
H   H32       1.0  0.16930  0.86060  0.22310  1.0000 0.1019848591
H   H33       1.0  0.50330  0.89090  0.39500  1.0000 0.1089670198
H   H34       1.0  0.49670  0.39090  0.10500  1.0000 0.1089670198
H   H35       1.0  0.49670  0.10910  0.60500  1.0000 0.1089670198
H   H36       1.0  0.50330  0.60910  0.89500  1.0000 0.1089670198
H   H37       1.0  0.63580  0.02090  0.44360  1.0000 0.1302147777
H   H38       1.0  0.36420  0.52090  0.05640  1.0000 0.1302147777
H   H39       1.0  0.36420  0.97910  0.55640  1.0000 0.1302147777
H   H40       1.0  0.63580  0.47910  0.94360  1.0000 0.1302147777
H   H41       1.0  0.80220  0.74580  0.39130  1.0000 0.1236815562
H   H42       1.0  0.19780  0.24580  0.10870  1.0000 0.1236815562
H   H43       1.0  0.19780  0.25420  0.60870  1.0000 0.1302147777
H   H44       1.0  0.80220  0.75420  0.89130  1.0000 0.1236815562
H   H45       1.0  0.66980  0.61580  0.34280  1.0000 0.1019848591
H   H46       1.0  0.33020  0.11580  0.15720  1.0000 0.1019848591
H   H47       1.0  0.33020  0.38420  0.65720  1.0000 0.1019848591
H   H48       1.0  0.66980  0.88420  0.84280  1.0000 0.1019848591
C   C1        1.0  0.83630  0.56400  0.62638  1.0000 0.0585624307
C   C2        1.0  0.16370  0.06400  0.87362  1.0000 0.0585624307
C   C3        1.0  0.16370  0.43600  0.37362  1.0000 0.0585624307
C   C4        1.0  0.83630  0.93600  0.12638  1.0000 0.0585624307
C   C5        1.0  0.88936  0.63910  0.60198  1.0000 -0.1389511502
C   C6        1.0  0.11064  0.13910  0.89802  1.0000 -0.1389511502
C   C7        1.0  0.11064  0.36090  0.39802  1.0000 -0.1389511502
C   C8        1.0  0.88936  0.86090  0.10198  1.0000 -0.1389511502
C   C9        1.0  0.89612  0.80540  0.60219  1.0000 0.0132858405
C   C10       1.0  0.10388  0.30540  0.89781  1.0000 0.0132858405
C   C11       1.0  0.10388  0.19460  0.39781  1.0000 0.0132858405
C   C12       1.0  0.89612  0.69460  0.10219  1.0000 0.0132858405
C   C13       1.0  0.84982  0.89650  0.62681  1.0000 -0.134363932
C   C14       1.0  0.15018  0.39650  0.87319  1.0000 -0.1389511502
C   C15       1.0  0.15018  0.10350  0.37319  1.0000 -0.1389511502
C   C16       1.0  0.84982  0.60350  0.12681  1.0000 -0.134363932
C   C17       1.0  0.79677  0.82140  0.65122  1.0000 0.0585624307
C   C18       1.0  0.20323  0.32140  0.84878  1.0000 0.0585624307
C   C19       1.0  0.20323  0.17860  0.34878  1.0000 0.0585624307
C   C20       1.0  0.79677  0.67860  0.15122  1.0000 0.0585624307
C   C21       1.0  0.94933  0.88470  0.57113  1.0000 0.6486244523
C   C22       1.0  0.05067  0.38470  0.92887  1.0000 0.6486244523
C   C23       1.0  0.05067  0.11530  0.42887  1.0000 0.6486244523
C   C24       1.0  0.94933  0.61530  0.07113  1.0000 0.6486244523
C   C25       1.0  0.28589  0.75470  0.65359  1.0000 0.0543759489
C   C26       1.0  0.71411  0.25470  0.84641  1.0000 0.0543759489
C   C27       1.0  0.71411  0.24530  0.34641  1.0000 0.0543759489
C   C28       1.0  0.28589  0.74530  0.15359  1.0000 0.0585624307
C   C29       1.0  0.23349  0.67490  0.61361  1.0000 -0.1389511502
C   C30       1.0  0.76651  0.17490  0.88639  1.0000 -0.1389511502
C   C31       1.0  0.76651  0.32510  0.38639  1.0000 -0.1389511502
C   C32       1.0  0.23349  0.82510  0.11361  1.0000 -0.1389511502
C   C33       1.0  0.15714  0.58190  0.61441  1.0000 0.002990462
C   C34       1.0  0.84286  0.08190  0.88559  1.0000 0.002990462
C   C35       1.0  0.84286  0.41810  0.38559  1.0000 0.002990462
C   C36       1.0  0.15714  0.91810  0.11441  1.0000 0.002990462
C   C37       1.0  0.13322  0.56860  0.65521  1.0000 -0.1389511502
C   C38       1.0  0.86678  0.06860  0.84479  1.0000 -0.1389511502
C   C39       1.0  0.86678  0.43140  0.34479  1.0000 -0.1389511502
C   C40       1.0  0.13322  0.93140  0.15521  1.0000 -0.1389511502
C   C41       1.0  0.18562  0.64840  0.69519  1.0000 0.0585624307
C   C42       1.0  0.81438  0.14840  0.80481  1.0000 0.0585624307
C   C43       1.0  0.81438  0.35160  0.30481  1.0000 0.0585624307
C   C44       1.0  0.18562  0.85160  0.19519  1.0000 0.0585624307
C   C45       1.0  0.09610  0.50410  0.56900  1.0000 0.6296760017
C   C46       1.0  0.90390  0.00410  0.93100  1.0000 0.6350105876
C   C47       1.0  0.90390  0.49590  0.43100  1.0000 0.6296760017
C   C48       1.0  0.09610  0.99590  0.06900  1.0000 0.6350105876
C   C49       1.0  0.56400  0.86150  0.39425  1.0000 0.0585624307
C   C50       1.0  0.43600  0.36150  0.10575  1.0000 0.0585624307
C   C51       1.0  0.43600  0.13850  0.60575  1.0000 0.0585624307
C   C52       1.0  0.56400  0.63850  0.89425  1.0000 0.0585624307
C   C53       1.0  0.64269  0.93870  0.42311  1.0000 -0.1389511502
C   C54       1.0  0.35731  0.43870  0.07689  1.0000 -0.1389511502
C   C55       1.0  0.35731  0.06130  0.57689  1.0000 -0.1389511502
C   C56       1.0  0.64269  0.56130  0.92311  1.0000 -0.1389511502
C   C57       1.0  0.73147  0.89560  0.42202  1.0000 0.0172622824
C   C58       1.0  0.26853  0.39560  0.07798  1.0000 0.0172622824
C   C59       1.0  0.26853  0.10440  0.57798  1.0000 0.0172622824
C   C60       1.0  0.73147  0.60440  0.92202  1.0000 0.0172622824
C   C61       1.0  0.74158  0.77530  0.39208  1.0000 -0.1389511502
C   C62       1.0  0.25842  0.27530  0.10792  1.0000 -0.1389511502
C   C63       1.0  0.25842  0.22470  0.60792  1.0000 -0.1389511502
C   C64       1.0  0.74158  0.72470  0.89208  1.0000 -0.1389511502
C   C65       1.0  0.66288  0.69810  0.36322  1.0000 0.0585624307
C   C66       1.0  0.33712  0.19810  0.13678  1.0000 0.0585624307
C   C67       1.0  0.33712  0.30190  0.63678  1.0000 0.0585624307
C   C68       1.0  0.66288  0.80190  0.86322  1.0000 0.0585624307
C   C69       1.0  0.82016  0.97290  0.45506  1.0000 0.6245424026
C   C70       1.0  0.17984  0.47290  0.04494  1.0000 0.6296760017
C   C71       1.0  0.17984  0.02710  0.54494  1.0000 0.6245424026
C   C72       1.0  0.82016  0.52710  0.95506  1.0000 0.6296760017
I   I1        1.0  0.50549  0.94298  0.74436  1.0000 -0.2239955714
I   I2        1.0  0.49451  0.44298  0.75564  1.0000 -0.2239955714
I   I3        1.0  0.49451  0.05702  0.25564  1.0000 -0.2239955714
I   I4        1.0  0.50549  0.55702  0.24436  1.0000 -0.2239955714
I   I5        1.0  0.47357  0.17308  0.87323  1.0000 -0.2856591469
I   I6        1.0  0.52643  0.67308  0.62677  1.0000 -0.2856591469
I   I7        1.0  0.52643  0.82692  0.12677  1.0000 -0.2856591469
I   I8        1.0  0.47357  0.32692  0.37323  1.0000 -0.2793757072
I   I9        1.0  0.30358  0.73974  0.82597  1.0000 -0.2699422067
I   I10       1.0  0.69642  0.23974  0.67403  1.0000 -0.2793757072
I   I11       1.0  0.69642  0.26026  0.17403  1.0000 -0.2793757072
I   I12       1.0  0.30358  0.76026  0.32597  1.0000 -0.2793757072
I   I13       1.0  0.23670  0.17230  0.73130  1.0000 -0.2636500722
I   I14       1.0  0.76330  0.67230  0.76870  1.0000 -0.2636500722
I   I15       1.0  0.76330  0.82770  0.26870  1.0000 -0.2699422067
I   I16       1.0  0.23670  0.32770  0.23130  1.0000 -0.2636500722
N   N1        1.0  0.79001  0.65510  0.65100  1.0000 -0.1544168717
N   N2        1.0  0.20999  0.15510  0.84900  1.0000 -0.1597334136
N   N3        1.0  0.20999  0.34490  0.34900  1.0000 -0.1597334136
N   N4        1.0  0.79001  0.84490  0.15100  1.0000 -0.1597334136
N   N5        1.0  0.26196  0.74150  0.69438  1.0000 -0.1597334136
N   N6        1.0  0.73804  0.24150  0.80562  1.0000 -0.1597334136
N   N7        1.0  0.73804  0.25850  0.30562  1.0000 -0.1597334136
N   N8        1.0  0.26196  0.75850  0.19438  1.0000 -0.1597334136
N   N9        1.0  0.57409  0.74120  0.36430  1.0000 -0.1597334136
N   N10       1.0  0.42591  0.24120  0.13570  1.0000 -0.1597334136
N   N11       1.0  0.42591  0.25880  0.63570  1.0000 -0.1597334136
N   N12       1.0  0.57409  0.75880  0.86430  1.0000 -0.1597334136
O   O1        1.0  0.99822  0.79840  0.55292  1.0000 -0.6769969588
O   O2        1.0  0.00178  0.29840  0.94708  1.0000 -0.6769969588
O   O3        1.0  0.00178  0.20160  0.44708  1.0000 -0.6769969588
O   O4        1.0  0.99822  0.70160  0.05292  1.0000 -0.6769969588
O   O5        1.0  0.93841  0.03290  0.56601  1.0000 -0.6631204015
O   O6        1.0  0.06159  0.53290  0.93399  1.0000 -0.6631204015
O   O7        1.0  0.06159  0.96710  0.43399  1.0000 -0.6631204015
O   O8        1.0  0.93841  0.46710  0.06601  1.0000 -0.6631204015
O   O9        1.0  0.10396  0.55130  0.53036  1.0000 -0.7057547694
O   O10       1.0  0.89604  0.05130  0.96964  1.0000 -0.7057547694
O   O11       1.0  0.89604  0.44870  0.46964  1.0000 -0.7049160725
O   O12       1.0  0.10396  0.94870  0.03036  1.0000 -0.7057547694
O   O13       1.0  0.04137  0.39420  0.57327  1.0000 -0.6746236807
O   O14       1.0  0.95863  0.89420  0.92673  1.0000 -0.6746236807
O   O15       1.0  0.95863  0.60580  0.42673  1.0000 -0.6746236807
O   O16       1.0  0.04137  0.10580  0.07327  1.0000 -0.6746236807
O   O17       1.0  0.80985  0.10560  0.47195  1.0000 -0.6344840651
O   O18       1.0  0.19015  0.60560  0.02805  1.0000 -0.6344840651
O   O19       1.0  0.19015  0.89440  0.52805  1.0000 -0.6344840651
O   O20       1.0  0.80985  0.39440  0.97195  1.0000 -0.6352279907
O   O21       1.0  0.89938  0.90400  0.46338  1.0000 -0.7253404981
O   O22       1.0  0.10062  0.40400  0.03662  1.0000 -0.7253404981
O   O23       1.0  0.10062  0.09600  0.53662  1.0000 -0.7249573594
O   O24       1.0  0.89938  0.59600  0.96338  1.0000 -0.7253404981
