# DDEC6 charges by PACMAN v1.1 (https://github.com/mtap-research/PACMAN-charge/)
data_2017[Mn][nan]3[ASR]4
_chemical_formula_sum              "Mn8 H24 C64 N8 O52"
_cell_length_a       15.4046
_cell_length_b       15.4046
_cell_length_c       13.2819
_cell_angle_alpha    77.722
_cell_angle_beta     102.278
_cell_angle_gamma    113.515

_symmetry_space_group_name_H-M    "P 1"
_symmetry_Int_Tables_number       1

loop_
  _symmetry_equiv_pos_as_xyz
  'x, y, z'

loop_
  _atom_site_type_symbol
  _atom_site_label
  _atom_site_symmetry_multiplicity
  _atom_site_fract_x
  _atom_site_fract_y
  _atom_site_fract_z
  _atom_site_occupancy
  _atom_site_charge
Mn  Mn1       1.0  0.29266  0.56152  0.14333  1.0000 0.9686992281
Mn  Mn2       1.0  0.56152  0.29266  0.35667  1.0000 0.9686992281
Mn  Mn3       1.0  0.70734  0.43848  0.85667  1.0000 0.9686992281
Mn  Mn4       1.0  0.43848  0.70734  0.64333  1.0000 0.9686992281
Mn  Mn5       1.0  0.33151  0.67725  0.38405  1.0000 1.0534339659
Mn  Mn6       1.0  0.67725  0.33151  0.11595  1.0000 1.0534339659
Mn  Mn7       1.0  0.66849  0.32275  0.61595  1.0000 1.0534339659
Mn  Mn8       1.0  0.32275  0.66849  0.88405  1.0000 1.0534339659
H   H1        1.0  0.55220  0.49560  0.17540  1.0000 0.140292594
H   H2        1.0  0.49560  0.55220  0.32460  1.0000 0.140292594
H   H3        1.0  0.44780  0.50440  0.82460  1.0000 0.140292594
H   H4        1.0  0.50440  0.44780  0.67540  1.0000 0.140292594
H   H5        1.0  0.63990  0.74370  0.98770  1.0000 0.1467297603
H   H6        1.0  0.74370  0.63990  0.51230  1.0000 0.1467297603
H   H7        1.0  0.36010  0.25630  0.01230  1.0000 0.1467297603
H   H8        1.0  0.25630  0.36010  0.48770  1.0000 0.1467297603
H   H9        1.0  0.06910  0.68470  0.32500  1.0000 0.140292594
H   H10       1.0  0.68470  0.06910  0.17500  1.0000 0.140292594
H   H11       1.0  0.93090  0.31530  0.67500  1.0000 0.140292594
H   H12       1.0  0.31530  0.93090  0.82500  1.0000 0.1467297603
H   H13       1.0  0.99970  0.54910  0.07890  1.0000 0.1467297603
H   H14       1.0  0.54910  0.99970  0.42110  1.0000 0.1467297603
H   H15       1.0  0.00030  0.45090  0.92110  1.0000 0.1467297603
H   H16       1.0  0.45090  0.00030  0.57890  1.0000 0.1467297603
H   H17       1.0  0.26170  0.61630  0.57110  1.0000 0.3493723385
H   H18       1.0  0.61630  0.26170  0.92890  1.0000 0.3493723385
H   H19       1.0  0.73830  0.38370  0.42890  1.0000 0.3493723385
H   H20       1.0  0.38370  0.73830  0.07110  1.0000 0.3493723385
H   H21       1.0  0.31600  0.71420  0.56470  1.0000 0.3311039918
H   H22       1.0  0.71420  0.31600  0.93530  1.0000 0.3311039918
H   H23       1.0  0.68400  0.28580  0.43530  1.0000 0.3311039918
H   H24       1.0  0.28580  0.68400  0.06470  1.0000 0.3311039918
C   C1        1.0  0.47900  0.61240  0.04610  1.0000 0.5913293474
C   C2        1.0  0.61240  0.47900  0.45390  1.0000 0.5913293474
C   C3        1.0  0.52100  0.38760  0.95390  1.0000 0.5913293474
C   C4        1.0  0.38760  0.52100  0.54610  1.0000 0.5913293474
C   C5        1.0  0.58150  0.61810  0.07850  1.0000 0.0003629113
C   C6        1.0  0.61810  0.58150  0.42150  1.0000 0.0003629113
C   C7        1.0  0.41850  0.38190  0.92150  1.0000 0.0003629113
C   C8        1.0  0.38190  0.41850  0.57850  1.0000 0.0003629113
C   C9        1.0  0.60180  0.54820  0.14880  1.0000 -0.1023383446
C   C10       1.0  0.54820  0.60180  0.35120  1.0000 -0.1023383446
C   C11       1.0  0.39820  0.45180  0.85120  1.0000 -0.1023383446
C   C12       1.0  0.45180  0.39820  0.64880  1.0000 -0.1023383446
C   C13       1.0  0.69600  0.55440  0.18160  1.0000 -0.0482986774
C   C14       1.0  0.55440  0.69600  0.31840  1.0000 -0.0482986774
C   C15       1.0  0.30400  0.44560  0.81840  1.0000 -0.0482986774
C   C16       1.0  0.44560  0.30400  0.68160  1.0000 -0.0482986774
C   C17       1.0  0.77150  0.63370  0.14160  1.0000 0.007642986
C   C18       1.0  0.63370  0.77150  0.35840  1.0000 0.007642986
C   C19       1.0  0.22850  0.36630  0.85840  1.0000 0.007642986
C   C20       1.0  0.36630  0.22850  0.64160  1.0000 0.007642986
C   C21       1.0  0.74780  0.70460  0.06950  1.0000 0.007642986
C   C22       1.0  0.70460  0.74780  0.43050  1.0000 0.007642986
C   C23       1.0  0.25220  0.29540  0.93050  1.0000 0.007642986
C   C24       1.0  0.29540  0.25220  0.56950  1.0000 0.007642986
C   C25       1.0  0.65420  0.69680  0.03700  1.0000 -0.1308555044
C   C26       1.0  0.69680  0.65420  0.46300  1.0000 -0.1308555044
C   C27       1.0  0.34580  0.30320  0.96300  1.0000 -0.1308555044
C   C28       1.0  0.30320  0.34580  0.53700  1.0000 -0.1308555044
C   C29       1.0  0.71560  0.47620  0.26250  1.0000 0.568836134
C   C30       1.0  0.47620  0.71560  0.23750  1.0000 0.568836134
C   C31       1.0  0.28440  0.52380  0.73750  1.0000 0.568836134
C   C32       1.0  0.52380  0.28440  0.76250  1.0000 0.568836134
C   C33       1.0  0.87130  0.63250  0.16650  1.0000 0.0362803676
C   C34       1.0  0.63250  0.87130  0.33350  1.0000 0.0362803676
C   C35       1.0  0.12870  0.36750  0.83350  1.0000 0.0362803676
C   C36       1.0  0.36750  0.12870  0.66650  1.0000 0.0362803676
C   C37       1.0  0.93850  0.66890  0.24920  1.0000 0.0221078545
C   C38       1.0  0.66890  0.93850  0.25080  1.0000 0.0221078545
C   C39       1.0  0.06150  0.33110  0.75080  1.0000 0.0221078545
C   C40       1.0  0.33110  0.06150  0.74920  1.0000 0.0221078545
C   C41       1.0  0.02500  0.66040  0.26840  1.0000 -0.1385574228
C   C42       1.0  0.66040  0.02500  0.23160  1.0000 -0.1385574228
C   C43       1.0  0.97500  0.33960  0.73160  1.0000 -0.1385574228
C   C44       1.0  0.33960  0.97500  0.76840  1.0000 -0.1385574228
C   C45       1.0  0.04780  0.61500  0.20280  1.0000 -0.0056858232
C   C46       1.0  0.61500  0.04780  0.29720  1.0000 -0.0056858232
C   C47       1.0  0.95220  0.38500  0.79720  1.0000 -0.0056858232
C   C48       1.0  0.38500  0.95220  0.70280  1.0000 -0.0056858232
C   C49       1.0  0.98400  0.57900  0.12240  1.0000 -0.1056154407
C   C50       1.0  0.57900  0.98400  0.37760  1.0000 -0.1056154407
C   C51       1.0  0.01600  0.42100  0.87760  1.0000 -0.1056154407
C   C52       1.0  0.42100  0.01600  0.62240  1.0000 -0.1023383446
C   C53       1.0  0.89500  0.58560  0.10320  1.0000 -0.0482986774
C   C54       1.0  0.58560  0.89500  0.39680  1.0000 -0.0482986774
C   C55       1.0  0.10500  0.41440  0.89680  1.0000 -0.0482986774
C   C56       1.0  0.41440  0.10500  0.60320  1.0000 -0.0482986774
C   C57       1.0  0.82370  0.54410  0.01180  1.0000 0.555759918
C   C58       1.0  0.54410  0.82370  0.48820  1.0000 0.555759918
C   C59       1.0  0.17630  0.45590  0.98820  1.0000 0.555759918
C   C60       1.0  0.45590  0.17630  0.51180  1.0000 0.555759918
C   C61       1.0  0.14450  0.60470  0.22470  1.0000 0.5913293474
C   C62       1.0  0.60470  0.14450  0.27530  1.0000 0.5913293474
C   C63       1.0  0.85550  0.39530  0.77530  1.0000 0.5913293474
C   C64       1.0  0.39530  0.85550  0.72470  1.0000 0.5913293474
N   N1        1.0  0.82020  0.78860  0.02740  1.0000 0.5136535876
N   N2        1.0  0.78860  0.82020  0.47260  1.0000 0.5136535876
N   N3        1.0  0.17980  0.21140  0.97260  1.0000 0.5136535876
N   N4        1.0  0.21140  0.17980  0.52740  1.0000 0.5136535876
N   N5        1.0  0.92160  0.72160  0.31480  1.0000 0.4823555164
N   N6        1.0  0.72160  0.92160  0.18520  1.0000 0.4823555164
N   N7        1.0  0.07840  0.27840  0.68520  1.0000 0.4823555164
N   N8        1.0  0.27840  0.07840  0.81480  1.0000 0.4823555164
O   O1        1.0  0.42180  0.56220  0.10980  1.0000 -0.5708049424
O   O2        1.0  0.56220  0.42180  0.39020  1.0000 -0.5708049424
O   O3        1.0  0.57820  0.43780  0.89020  1.0000 -0.5708049424
O   O4        1.0  0.43780  0.57820  0.60980  1.0000 -0.5708049424
O   O5        1.0  0.45770  0.65610  0.96020  1.0000 -0.5528047171
O   O6        1.0  0.65610  0.45770  0.53980  1.0000 -0.5528047171
O   O7        1.0  0.54230  0.34390  0.03980  1.0000 -0.5528047171
O   O8        1.0  0.34390  0.54230  0.46020  1.0000 -0.5528047171
O   O9        1.0  0.66450  0.39110  0.24470  1.0000 -0.6182592101
O   O10       1.0  0.39110  0.66450  0.25530  1.0000 -0.6182592101
O   O11       1.0  0.33550  0.60890  0.75530  1.0000 -0.6182592101
O   O12       1.0  0.60890  0.33550  0.74470  1.0000 -0.6182592101
O   O13       1.0  0.77470  0.49890  0.34020  1.0000 -0.481876824
O   O14       1.0  0.49890  0.77470  0.15980  1.0000 -0.481876824
O   O15       1.0  0.22530  0.50110  0.65980  1.0000 -0.481876824
O   O16       1.0  0.50110  0.22530  0.84020  1.0000 -0.481876824
O   O17       1.0  0.82270  0.59150  0.92830  1.0000 -0.4433689303
O   O18       1.0  0.59150  0.82270  0.57170  1.0000 -0.4433689303
O   O19       1.0  0.17730  0.40850  0.07170  1.0000 -0.4433689303
O   O20       1.0  0.40850  0.17730  0.42830  1.0000 -0.4433689303
O   O21       1.0  0.76550  0.46050  0.02540  1.0000 -0.5528047171
O   O22       1.0  0.46050  0.76550  0.47460  1.0000 -0.5528047171
O   O23       1.0  0.23450  0.53950  0.97460  1.0000 -0.5528047171
O   O24       1.0  0.53950  0.23450  0.52540  1.0000 -0.5528047171
O   O25       1.0  0.17110  0.58870  0.15100  1.0000 -0.5528047171
O   O26       1.0  0.58870  0.17110  0.34900  1.0000 -0.5528047171
O   O27       1.0  0.82890  0.41130  0.84900  1.0000 -0.5528047171
O   O28       1.0  0.41130  0.82890  0.65100  1.0000 -0.5528047171
O   O29       1.0  0.18930  0.61130  0.31540  1.0000 -0.5591851361
O   O30       1.0  0.61130  0.18930  0.18460  1.0000 -0.5591851361
O   O31       1.0  0.81070  0.38870  0.68460  1.0000 -0.5591851361
O   O32       1.0  0.38870  0.81070  0.81540  1.0000 -0.5591851361
O   O33       1.0  0.96010  0.71850  0.40440  1.0000 -0.2138009294
O   O34       1.0  0.71850  0.96010  0.09560  1.0000 -0.2138009294
O   O35       1.0  0.03990  0.28150  0.59560  1.0000 -0.2138009294
O   O36       1.0  0.28150  0.03990  0.90440  1.0000 -0.2138009294
O   O37       1.0  0.85500  0.74240  0.29720  1.0000 -0.2564171242
O   O38       1.0  0.74240  0.85500  0.20280  1.0000 -0.2538703568
O   O39       1.0  0.14500  0.25760  0.70280  1.0000 -0.2564171242
O   O40       1.0  0.25760  0.14500  0.79720  1.0000 -0.2564171242
O   O41       1.0  0.90240  0.81580  0.07050  1.0000 -0.303841006
O   O42       1.0  0.81580  0.90240  0.42950  1.0000 -0.303841006
O   O43       1.0  0.09760  0.18420  0.92950  1.0000 -0.303841006
O   O44       1.0  0.18420  0.09760  0.57050  1.0000 -0.303841006
O   O45       1.0  0.79650  0.83210  0.93900  1.0000 -0.3106617144
O   O46       1.0  0.83210  0.79650  0.56100  1.0000 -0.3106617144
O   O47       1.0  0.20350  0.16790  0.06100  1.0000 -0.3106617144
O   O48       1.0  0.16790  0.20350  0.43900  1.0000 -0.3106617144
O   O49       1.0  0.27790  0.66930  0.53130  1.0000 -0.6607405878
O   O50       1.0  0.66930  0.27790  0.96870  1.0000 -0.6607405878
O   O51       1.0  0.72210  0.33070  0.46870  1.0000 -0.6607405878
O   O52       1.0  0.33070  0.72210  0.03130  1.0000 -0.6607405878
