# DDEC6 charges by PACMAN v1.1 (https://github.com/mtap-research/PACMAN-charge/)
data_2017[Sm][kgd]2[ASR]1
_chemical_formula_sum              "Sm2 H20 C22 N2 O14"
_cell_length_a       8.6211
_cell_length_b       9.0625
_cell_length_c       10.361
_cell_angle_alpha    104.38
_cell_angle_beta     101.86
_cell_angle_gamma    95.41

_symmetry_space_group_name_H-M    "P 1"
_symmetry_Int_Tables_number       1

loop_
  _symmetry_equiv_pos_as_xyz
  'x, y, z'

loop_
  _atom_site_type_symbol
  _atom_site_label
  _atom_site_symmetry_multiplicity
  _atom_site_fract_x
  _atom_site_fract_y
  _atom_site_fract_z
  _atom_site_occupancy
  _atom_site_charge
Sm  Sm1       1.0  0.42355  0.28687  0.03045  1.0000 2.079281775
Sm  Sm2       1.0  0.57645  0.71313  0.96955  1.0000 2.079281775
H   H1        1.0  0.75500  0.21570  0.39230  1.0000 0.1258698233
H   H2        1.0  0.67370  0.31540  0.58840  1.0000 0.1124318965
H   H3        1.0  0.76090  0.74080  0.54680  1.0000 0.1205515616
H   H4        1.0  0.85190  0.64410  0.35500  1.0000 0.1205515616
H   H5        1.0  0.93390  0.16730  0.27720  1.0000 0.1385798284
H   H6        1.0  0.97180  0.18960  0.14130  1.0000 0.1584118881
H   H7        1.0  0.97940  0.40480  0.09610  1.0000 0.1584118881
H   H8        1.0  0.00910  0.54400  0.22710  1.0000 0.1385798284
H   H9        1.0  0.55280  0.20180  0.83640  1.0000 0.336884109
H   H10       1.0  0.48820  0.27120  0.73760  1.0000 0.3827007987
H   H11       1.0  0.24500  0.78430  0.60770  1.0000 0.1258698233
H   H12       1.0  0.32630  0.68460  0.41160  1.0000 0.1124318965
H   H13       1.0  0.23910  0.25920  0.45320  1.0000 0.1205515616
H   H14       1.0  0.14810  0.35590  0.64500  1.0000 0.1205515616
H   H15       1.0  0.06610  0.83270  0.72280  1.0000 0.1385798284
H   H16       1.0  0.02820  0.81040  0.85870  1.0000 0.1584118881
H   H17       1.0  0.02060  0.59520  0.90390  1.0000 0.1584118881
H   H18       1.0  0.99090  0.45600  0.77290  1.0000 0.1385798284
H   H19       1.0  0.44720  0.79820  0.16360  1.0000 0.336884109
H   H20       1.0  0.51180  0.72880  0.26240  1.0000 0.3827007987
C   C1        1.0  0.81760  0.41860  0.35230  1.0000 0.1943258919
C   C2        1.0  0.75910  0.32180  0.42410  1.0000 -0.2027742288
C   C3        1.0  0.70790  0.38160  0.54070  1.0000 -0.0810206032
C   C4        1.0  0.70570  0.53800  0.58880  1.0000 -0.059457403
C   C5        1.0  0.76110  0.63530  0.51640  1.0000 -0.0810206032
C   C6        1.0  0.81560  0.57720  0.40130  1.0000 -0.2027742288
C   C7        1.0  0.65160  0.60200  0.71450  1.0000 0.5542314329
C   C8        1.0  0.89230  0.19930  0.19580  1.0000 -0.2698457486
C   C9        1.0  0.74080  0.08980  0.11370  1.0000 0.6891454138
C   C10       1.0  0.92830  0.46240  0.16320  1.0000 -0.2698457486
C   C11       1.0  0.79930  0.53540  0.08990  1.0000 0.6420034446
C   C12       1.0  0.18240  0.58140  0.64770  1.0000 0.1943258919
C   C13       1.0  0.24090  0.67820  0.57590  1.0000 -0.2027742288
C   C14       1.0  0.29210  0.61840  0.45930  1.0000 -0.0810206032
C   C15       1.0  0.29430  0.46200  0.41120  1.0000 -0.059457403
C   C16       1.0  0.23890  0.36470  0.48360  1.0000 -0.0810206032
C   C17       1.0  0.18440  0.42280  0.59870  1.0000 -0.2027742288
C   C18       1.0  0.34840  0.39800  0.28550  1.0000 0.5542314329
C   C19       1.0  0.10770  0.80070  0.80420  1.0000 -0.2698457486
C   C20       1.0  0.25920  0.91020  0.88630  1.0000 0.6891454138
C   C21       1.0  0.07170  0.53760  0.83680  1.0000 -0.2698457486
C   C22       1.0  0.20070  0.46460  0.91010  1.0000 0.6420034446
N   N1        1.0  0.87380  0.36030  0.23790  1.0000 -0.0528384171
N   N2        1.0  0.12620  0.63970  0.76210  1.0000 -0.0528384171
O   O1        1.0  0.61390  0.14300  0.08720  1.0000 -0.7009222827
O   O2        1.0  0.75250  0.95030  0.07810  1.0000 -0.6472889505
O   O3        1.0  0.65180  0.48280  0.06550  1.0000 -0.7382109783
O   O4        1.0  0.84450  0.65110  0.05490  1.0000 -0.604721757
O   O5        1.0  0.59820  0.51020  0.77650  1.0000 -0.6603653751
O   O6        1.0  0.66090  0.74470  0.76490  1.0000 -0.6223585925
O   O7        1.0  0.47070  0.23620  0.80330  1.0000 -0.7585162244
O   O8        1.0  0.38610  0.85700  0.91280  1.0000 -0.7009222827
O   O9        1.0  0.24750  0.04970  0.92190  1.0000 -0.6472889505
O   O10       1.0  0.34820  0.51720  0.93450  1.0000 -0.7382109783
O   O11       1.0  0.15550  0.34890  0.94510  1.0000 -0.604721757
O   O12       1.0  0.40180  0.48980  0.22350  1.0000 -0.6603653751
O   O13       1.0  0.33910  0.25530  0.23510  1.0000 -0.6223585925
O   O14       1.0  0.52930  0.76380  0.19670  1.0000 -0.7585162244
