# DDEC6 charges by PACMAN v1.1 (https://github.com/mtap-research/PACMAN-charge/)
data_2017[ZnMn][nan]3[ASR]2
_chemical_formula_sum              "O48 C204 F72 H96 Zn6 Mn6"
_cell_length_a       21.2838
_cell_length_b       21.2838
_cell_length_c       15.0974
_cell_angle_alpha    90
_cell_angle_beta     90
_cell_angle_gamma    120

_symmetry_space_group_name_H-M    "P 1"
_symmetry_Int_Tables_number       1

loop_
  _symmetry_equiv_pos_as_xyz
  'x, y, z'

loop_
  _atom_site_type_symbol
  _atom_site_label
  _atom_site_symmetry_multiplicity
  _atom_site_fract_x
  _atom_site_fract_y
  _atom_site_fract_z
  _atom_site_occupancy
  _atom_site_charge
O   O1        1.0  0.69230  0.42530  0.35360  1.0000 -0.5400671291
O   O2        1.0  0.63080  0.37440  0.47910  1.0000 -0.61533656
O   O3        1.0  0.42250  0.65430  0.72350  1.0000 -0.5604197013
C   C1        1.0  0.48320  0.67900  0.76120  1.0000 0.5890255294
F   F1        1.0  0.79530  0.70150  0.68590  1.0000 -0.1896537833
O   O4        1.0  0.49550  0.70130  0.84100  1.0000 -0.5400671291
C   C2        1.0  0.73330  0.71250  0.56200  1.0000 -0.2792276669
C   C3        1.0  0.54660  0.68460  0.71270  1.0000 -0.033998314
C   C4        1.0  0.74400  0.63190  0.44200  1.0000 -0.1465210694
H   H1        1.0  0.77020  0.67260  0.40660  1.0000 0.119310226
F   F2        1.0  0.85710  0.74590  0.56810  1.0000 -0.1896537833
F   F3        1.0  0.82570  0.81000  0.64630  1.0000 -0.1896537833
C   C5        1.0  0.72980  0.56510  0.41310  1.0000 -0.091574599
H   H2        1.0  0.74690  0.56120  0.35790  1.0000 0.1286928159
F   F4        1.0  0.69080  0.73840  0.42760  1.0000 -0.1896537833
C   C6        1.0  0.68100  0.57740  0.57610  1.0000 -0.1291932988
H   H3        1.0  0.66430  0.58140  0.63160  1.0000 0.1286928159
F   F5        1.0  0.74110  0.82460  0.52270  1.0000 -0.1896537833
C   C7        1.0  0.67090  0.42970  0.42900  1.0000 0.6127531302
F   F6        1.0  0.80600  0.79380  0.44600  1.0000 -0.1896537833
C   C8        1.0  0.69060  0.50320  0.46360  1.0000 -0.0173517711
C   C9        1.0  0.61390  0.71870  0.75040  1.0000 -0.0832584876
H   H4        1.0  0.61950  0.73660  0.80770  1.0000 0.1286928159
C   C10       1.0  0.74280  0.76750  0.48890  1.0000 0.6634953591
C   C11       1.0  0.66740  0.70170  0.61830  1.0000 0.0767458305
C   C12       1.0  0.71890  0.63850  0.52490  1.0000 0.0767458305
C   C13       1.0  0.53900  0.65850  0.62550  1.0000 -0.0832584876
H   H5        1.0  0.49370  0.63580  0.59840  1.0000 0.1286928159
C   C14       1.0  0.80340  0.74300  0.61620  1.0000 0.6652539742
C   C15       1.0  0.66740  0.51070  0.54730  1.0000 -0.091574599
H   H6        1.0  0.64260  0.47030  0.58360  1.0000 0.1286928159
C   C16       1.0  0.67420  0.72710  0.70440  1.0000 -0.1566157021
H   H7        1.0  0.71950  0.74990  0.73160  1.0000 0.1146435437
C   C17       1.0  0.59840  0.66640  0.58020  1.0000 -0.1420246837
H   H8        1.0  0.59270  0.64790  0.52310  1.0000 0.119310226
O   O5        1.0  0.57470  0.26700  0.02027  1.0000 -0.5400671291
O   O6        1.0  0.62560  0.25640  0.14577  1.0000 -0.61533656
O   O7        1.0  0.34570  0.76820  0.39017  1.0000 -0.5604197013
C   C18       1.0  0.32100  0.80420  0.42787  1.0000 0.5890255294
F   F7        1.0  0.29850  0.09380  0.35257  1.0000 -0.1896537833
O   O8        1.0  0.29870  0.79420  0.50767  1.0000 -0.5400671291
C   C19       1.0  0.28750  0.02080  0.22867  1.0000 -0.2792276669
C   C20       1.0  0.31540  0.86200  0.37937  1.0000 -0.033998314
C   C21       1.0  0.36810  0.11210  0.10867  1.0000 -0.1465210694
H   H9        1.0  0.32740  0.09760  0.07327  1.0000 0.119310226
F   F8        1.0  0.25410  0.11120  0.23477  1.0000 -0.1896537833
F   F9        1.0  0.19000  0.01570  0.31297  1.0000 -0.1896537833
C   C22       1.0  0.43490  0.16470  0.07977  1.0000 -0.091574599
H   H10       1.0  0.43880  0.18570  0.02457  1.0000 0.1286928159
F   F10       1.0  0.26160  0.95240  0.09427  1.0000 -0.1896537833
C   C23       1.0  0.42260  0.10360  0.24277  1.0000 -0.1291932988
H   H11       1.0  0.41860  0.08290  0.29827  1.0000 0.1286928159
F   F11       1.0  0.17540  0.91650  0.18937  1.0000 -0.1896537833
C   C24       1.0  0.57030  0.24120  0.09567  1.0000 0.6127531302
F   F12       1.0  0.20620  0.01220  0.11267  1.0000 -0.1896537833
C   C25       1.0  0.49680  0.18740  0.13027  1.0000 -0.0173517711
C   C26       1.0  0.28130  0.89520  0.41707  1.0000 -0.0832584876
H   H12       1.0  0.26340  0.88290  0.47437  1.0000 0.1286928159
C   C27       1.0  0.23250  0.97530  0.15557  1.0000 0.6634953591
C   C28       1.0  0.29830  0.96570  0.28497  1.0000 0.0767458305
C   C29       1.0  0.36150  0.08040  0.19157  1.0000 0.0767458305
C   C30       1.0  0.34150  0.88050  0.29217  1.0000 -0.0832584876
H   H13       1.0  0.36420  0.85790  0.26507  1.0000 0.1286928159
C   C31       1.0  0.25700  0.06040  0.28287  1.0000 0.6652539742
C   C32       1.0  0.48930  0.15670  0.21397  1.0000 -0.091574599
H   H14       1.0  0.52970  0.17230  0.25027  1.0000 0.1286928159
C   C33       1.0  0.27290  0.94710  0.37107  1.0000 -0.1566157021
H   H15       1.0  0.25010  0.96960  0.39827  1.0000 0.1146435437
C   C34       1.0  0.33360  0.93200  0.24687  1.0000 -0.1420246837
H   H16       1.0  0.35210  0.94480  0.18977  1.0000 0.119310226
O   O9        1.0  0.73300  0.30770  0.68693  1.0000 -0.5400671291
O   O10       1.0  0.74360  0.36920  0.81243  1.0000 -0.61533656
O   O11       1.0  0.23180  0.57750  0.05683  1.0000 -0.5604197013
C   C35       1.0  0.19580  0.51680  0.09453  1.0000 0.5890255294
F   F13       1.0  0.90620  0.20470  0.01923  1.0000 -0.1896537833
O   O12       1.0  0.20580  0.50450  0.17433  1.0000 -0.5400671291
C   C36       1.0  0.97920  0.26670  0.89533  1.0000 -0.2792276669
C   C37       1.0  0.13800  0.45340  0.04603  1.0000 -0.033998314
C   C38       1.0  0.88790  0.25600  0.77533  1.0000 -0.1465210694
H   H17       1.0  0.90240  0.22980  0.73993  1.0000 0.119310226
F   F14       1.0  0.88880  0.14290  0.90143  1.0000 -0.1896537833
F   F15       1.0  0.98430  0.17430  0.97963  1.0000 -0.1896537833
C   C39       1.0  0.83530  0.27020  0.74643  1.0000 -0.091574599
H   H18       1.0  0.81430  0.25310  0.69123  1.0000 0.1286928159
F   F16       1.0  0.04760  0.30920  0.76093  1.0000 -0.1896537833
C   C40       1.0  0.89640  0.31900  0.90943  1.0000 -0.1291932988
H   H19       1.0  0.91710  0.33570  0.96493  1.0000 0.1286928159
F   F17       1.0  0.08350  0.25890  0.85603  1.0000 -0.1896537833
C   C41       1.0  0.75880  0.32910  0.76233  1.0000 0.6127531302
F   F18       1.0  0.98780  0.19400  0.77933  1.0000 -0.1896537833
C   C42       1.0  0.81260  0.30940  0.79693  1.0000 -0.0173517711
C   C43       1.0  0.10480  0.38610  0.08373  1.0000 -0.0832584876
H   H20       1.0  0.11710  0.38050  0.14103  1.0000 0.1286928159
C   C44       1.0  0.02470  0.25720  0.82223  1.0000 0.6634953591
C   C45       1.0  0.03430  0.33260  0.95163  1.0000 0.0767458305
C   C46       1.0  0.91960  0.28110  0.85823  1.0000 0.0767458305
C   C47       1.0  0.11950  0.46100  0.95883  1.0000 -0.0832584876
H   H21       1.0  0.14210  0.50630  0.93173  1.0000 0.1286928159
C   C48       1.0  0.93960  0.19660  0.94953  1.0000 0.6652539742
C   C49       1.0  0.84330  0.33260  0.88063  1.0000 -0.091574599
H   H22       1.0  0.82770  0.35740  0.91693  1.0000 0.1286928159
C   C50       1.0  0.05290  0.32580  0.03773  1.0000 -0.1566157021
H   H23       1.0  0.03040  0.28050  0.06493  1.0000 0.1146435437
C   C51       1.0  0.06800  0.40160  0.91353  1.0000 -0.1420246837
H   H24       1.0  0.05520  0.40730  0.85643  1.0000 0.119310226
O   O13       1.0  0.30770  0.57470  0.85360  1.0000 -0.5400671291
O   O14       1.0  0.36920  0.62560  0.97910  1.0000 -0.61533656
O   O15       1.0  0.57750  0.34570  0.22350  1.0000 -0.5604197013
C   C52       1.0  0.51680  0.32100  0.26120  1.0000 0.5890255294
F   F19       1.0  0.20470  0.29850  0.18590  1.0000 -0.1896537833
O   O16       1.0  0.50450  0.29870  0.34100  1.0000 -0.5400671291
C   C53       1.0  0.26670  0.28750  0.06200  1.0000 -0.2792276669
C   C54       1.0  0.45340  0.31540  0.21270  1.0000 -0.033998314
C   C55       1.0  0.25600  0.36810  0.94200  1.0000 -0.1465210694
H   H25       1.0  0.22980  0.32740  0.90660  1.0000 0.119310226
F   F20       1.0  0.14290  0.25410  0.06810  1.0000 -0.1896537833
F   F21       1.0  0.17430  0.19000  0.14630  1.0000 -0.1896537833
C   C56       1.0  0.27020  0.43490  0.91310  1.0000 -0.091574599
H   H26       1.0  0.25310  0.43880  0.85790  1.0000 0.1286928159
F   F22       1.0  0.30920  0.26160  0.92760  1.0000 -0.1896537833
C   C57       1.0  0.31900  0.42260  0.07610  1.0000 -0.1291932988
H   H27       1.0  0.33570  0.41860  0.13160  1.0000 0.1286928159
F   F23       1.0  0.25890  0.17540  0.02270  1.0000 -0.1896537833
C   C58       1.0  0.32910  0.57030  0.92900  1.0000 0.6127531302
F   F24       1.0  0.19400  0.20620  0.94600  1.0000 -0.1896537833
C   C59       1.0  0.30940  0.49680  0.96360  1.0000 -0.0173517711
C   C60       1.0  0.38610  0.28130  0.25040  1.0000 -0.0832584876
H   H28       1.0  0.38050  0.26340  0.30770  1.0000 0.1286928159
C   C61       1.0  0.25720  0.23250  0.98890  1.0000 0.6634953591
C   C62       1.0  0.33260  0.29830  0.11830  1.0000 0.0767458305
C   C63       1.0  0.28110  0.36150  0.02490  1.0000 0.0767458305
C   C64       1.0  0.46100  0.34150  0.12550  1.0000 -0.0832584876
H   H29       1.0  0.50630  0.36420  0.09840  1.0000 0.1286928159
C   C65       1.0  0.19660  0.25700  0.11620  1.0000 0.6652539742
C   C66       1.0  0.33260  0.48930  0.04730  1.0000 -0.091574599
H   H30       1.0  0.35740  0.52970  0.08360  1.0000 0.1286928159
C   C67       1.0  0.32580  0.27290  0.20440  1.0000 -0.1566157021
H   H31       1.0  0.28050  0.25010  0.23160  1.0000 0.1146435437
C   C68       1.0  0.40160  0.33360  0.08020  1.0000 -0.1420246837
H   H32       1.0  0.40730  0.35210  0.02310  1.0000 0.119310226
O   O17       1.0  0.42530  0.73300  0.52027  1.0000 -0.5400671291
O   O18       1.0  0.37440  0.74360  0.64577  1.0000 -0.61533656
O   O19       1.0  0.65430  0.23180  0.89017  1.0000 -0.5604197013
C   C69       1.0  0.67900  0.19580  0.92787  1.0000 0.5890255294
F   F25       1.0  0.70150  0.90620  0.85257  1.0000 -0.1896537833
O   O20       1.0  0.70130  0.20580  0.00767  1.0000 -0.5400671291
C   C70       1.0  0.71250  0.97920  0.72867  1.0000 -0.2792276669
C   C71       1.0  0.68460  0.13800  0.87937  1.0000 -0.033998314
C   C72       1.0  0.63190  0.88790  0.60867  1.0000 -0.1465210694
H   H33       1.0  0.67260  0.90240  0.57327  1.0000 0.119310226
F   F26       1.0  0.74590  0.88880  0.73477  1.0000 -0.1896537833
F   F27       1.0  0.81000  0.98430  0.81297  1.0000 -0.1896537833
C   C73       1.0  0.56510  0.83530  0.57977  1.0000 -0.091574599
H   H34       1.0  0.56120  0.81430  0.52457  1.0000 0.1286928159
F   F28       1.0  0.73840  0.04760  0.59427  1.0000 -0.1896537833
C   C74       1.0  0.57740  0.89640  0.74277  1.0000 -0.1291932988
H   H35       1.0  0.58140  0.91710  0.79827  1.0000 0.1286928159
F   F29       1.0  0.82460  0.08350  0.68937  1.0000 -0.1896537833
C   C75       1.0  0.42970  0.75880  0.59567  1.0000 0.6127531302
F   F30       1.0  0.79380  0.98780  0.61267  1.0000 -0.1896537833
C   C76       1.0  0.50320  0.81260  0.63027  1.0000 -0.0173517711
C   C77       1.0  0.71870  0.10480  0.91707  1.0000 -0.0832584876
H   H36       1.0  0.73660  0.11710  0.97437  1.0000 0.1286928159
C   C78       1.0  0.76750  0.02470  0.65557  1.0000 0.6634953591
C   C79       1.0  0.70170  0.03430  0.78497  1.0000 0.0767458305
C   C80       1.0  0.63850  0.91960  0.69157  1.0000 0.0767458305
C   C81       1.0  0.65850  0.11950  0.79217  1.0000 -0.0832584876
H   H37       1.0  0.63580  0.14210  0.76507  1.0000 0.1286928159
C   C82       1.0  0.74300  0.93960  0.78287  1.0000 0.6652539742
C   C83       1.0  0.51070  0.84330  0.71397  1.0000 -0.091574599
H   H38       1.0  0.47030  0.82770  0.75027  1.0000 0.1286928159
C   C84       1.0  0.72710  0.05290  0.87107  1.0000 -0.1566157021
H   H39       1.0  0.74990  0.03040  0.89827  1.0000 0.1146435437
C   C85       1.0  0.66640  0.06800  0.74687  1.0000 -0.1420246837
H   H40       1.0  0.64790  0.05520  0.68977  1.0000 0.119310226
O   O21       1.0  0.26700  0.69230  0.18693  1.0000 -0.5400671291
O   O22       1.0  0.25640  0.63080  0.31243  1.0000 -0.61533656
O   O23       1.0  0.76820  0.42250  0.55683  1.0000 -0.5604197013
C   C86       1.0  0.80420  0.48320  0.59453  1.0000 0.5890255294
F   F31       1.0  0.09380  0.79530  0.51923  1.0000 -0.1896537833
O   O24       1.0  0.79420  0.49550  0.67433  1.0000 -0.5400671291
C   C87       1.0  0.02080  0.73330  0.39533  1.0000 -0.2792276669
C   C88       1.0  0.86200  0.54660  0.54603  1.0000 -0.033998314
C   C89       1.0  0.11210  0.74400  0.27533  1.0000 -0.1465210694
H   H41       1.0  0.09760  0.77020  0.23993  1.0000 0.119310226
F   F32       1.0  0.11120  0.85710  0.40143  1.0000 -0.1896537833
F   F33       1.0  0.01570  0.82570  0.47963  1.0000 -0.1896537833
C   C90       1.0  0.16470  0.72980  0.24643  1.0000 -0.091574599
H   H42       1.0  0.18570  0.74690  0.19123  1.0000 0.1286928159
F   F34       1.0  0.95240  0.69080  0.26093  1.0000 -0.1896537833
C   C91       1.0  0.10360  0.68100  0.40943  1.0000 -0.1291932988
H   H43       1.0  0.08290  0.66430  0.46493  1.0000 0.1286928159
F   F35       1.0  0.91650  0.74110  0.35603  1.0000 -0.1896537833
C   C92       1.0  0.24120  0.67090  0.26233  1.0000 0.6127531302
F   F36       1.0  0.01220  0.80600  0.27933  1.0000 -0.1896537833
C   C93       1.0  0.18740  0.69060  0.29693  1.0000 -0.0173517711
C   C94       1.0  0.89520  0.61390  0.58373  1.0000 -0.0832584876
H   H44       1.0  0.88290  0.61950  0.64103  1.0000 0.1286928159
C   C95       1.0  0.97530  0.74280  0.32223  1.0000 0.6634953591
C   C96       1.0  0.96570  0.66740  0.45163  1.0000 0.0767458305
C   C97       1.0  0.08040  0.71890  0.35823  1.0000 0.0767458305
C   C98       1.0  0.88050  0.53900  0.45883  1.0000 -0.0832584876
H   H45       1.0  0.85790  0.49370  0.43173  1.0000 0.1286928159
C   C99       1.0  0.06040  0.80340  0.44953  1.0000 0.6652539742
C   C100      1.0  0.15670  0.66740  0.38063  1.0000 -0.091574599
H   H46       1.0  0.17230  0.64260  0.41693  1.0000 0.1286928159
C   C101      1.0  0.94710  0.67420  0.53773  1.0000 -0.1566157021
H   H47       1.0  0.96960  0.71950  0.56493  1.0000 0.1146435437
C   C102      1.0  0.93200  0.59840  0.41353  1.0000 -0.1420246837
H   H48       1.0  0.94480  0.59270  0.35643  1.0000 0.119310226
O   O25       1.0  0.42530  0.69230  0.31307  1.0000 -0.5400671291
O   O26       1.0  0.37440  0.63080  0.18757  1.0000 -0.61533656
O   O27       1.0  0.65430  0.42250  0.94317  1.0000 -0.5604197013
C   C103      1.0  0.67900  0.48320  0.90547  1.0000 0.5890255294
F   F37       1.0  0.70150  0.79530  0.98077  1.0000 -0.1896537833
O   O28       1.0  0.70130  0.49550  0.82567  1.0000 -0.5400671291
C   C104      1.0  0.71250  0.73330  0.10467  1.0000 -0.2792276669
C   C105      1.0  0.68460  0.54660  0.95397  1.0000 -0.033998314
C   C106      1.0  0.63190  0.74400  0.22467  1.0000 -0.1465210694
H   H49       1.0  0.67260  0.77020  0.26007  1.0000 0.119310226
F   F38       1.0  0.74590  0.85710  0.09857  1.0000 -0.1896537833
F   F39       1.0  0.81000  0.82570  0.02037  1.0000 -0.1896537833
C   C107      1.0  0.56510  0.72980  0.25357  1.0000 -0.091574599
H   H50       1.0  0.56120  0.74690  0.30877  1.0000 0.1286928159
F   F40       1.0  0.73840  0.69080  0.23907  1.0000 -0.1896537833
C   C108      1.0  0.57740  0.68100  0.09057  1.0000 -0.1291932988
H   H51       1.0  0.58140  0.66430  0.03507  1.0000 0.1286928159
F   F41       1.0  0.82460  0.74110  0.14397  1.0000 -0.1896537833
C   C109      1.0  0.42970  0.67090  0.23767  1.0000 0.6127531302
F   F42       1.0  0.79380  0.80600  0.22067  1.0000 -0.1896537833
C   C110      1.0  0.50320  0.69060  0.20307  1.0000 -0.0173517711
C   C111      1.0  0.71870  0.61390  0.91627  1.0000 -0.0832584876
H   H52       1.0  0.73660  0.61950  0.85897  1.0000 0.1286928159
C   C112      1.0  0.76750  0.74280  0.17777  1.0000 0.6634953591
C   C113      1.0  0.70170  0.66740  0.04837  1.0000 0.0767458305
C   C114      1.0  0.63850  0.71890  0.14177  1.0000 0.0767458305
C   C115      1.0  0.65850  0.53900  0.04117  1.0000 -0.0832584876
H   H53       1.0  0.63580  0.49370  0.06827  1.0000 0.1286928159
C   C116      1.0  0.74300  0.80340  0.05047  1.0000 0.6652539742
C   C117      1.0  0.51070  0.66740  0.11937  1.0000 -0.091574599
H   H54       1.0  0.47030  0.64260  0.08307  1.0000 0.1286928159
C   C118      1.0  0.72710  0.67420  0.96227  1.0000 -0.1566157021
H   H55       1.0  0.74990  0.71950  0.93507  1.0000 0.1146435437
C   C119      1.0  0.66640  0.59840  0.08647  1.0000 -0.1420246837
H   H56       1.0  0.64790  0.59270  0.14357  1.0000 0.119310226
O   O29       1.0  0.26700  0.57470  0.64640  1.0000 -0.5400671291
O   O30       1.0  0.25640  0.62560  0.52090  1.0000 -0.61533656
O   O31       1.0  0.76820  0.34570  0.27650  1.0000 -0.5604197013
C   C120      1.0  0.80420  0.32100  0.23880  1.0000 0.5890255294
F   F43       1.0  0.09380  0.29850  0.31410  1.0000 -0.1896537833
O   O32       1.0  0.79420  0.29870  0.15900  1.0000 -0.5400671291
C   C121      1.0  0.02080  0.28750  0.43800  1.0000 -0.2792276669
C   C122      1.0  0.86200  0.31540  0.28730  1.0000 -0.033998314
C   C123      1.0  0.11210  0.36810  0.55800  1.0000 -0.1465210694
H   H57       1.0  0.09760  0.32740  0.59340  1.0000 0.119310226
F   F44       1.0  0.11120  0.25410  0.43190  1.0000 -0.1896537833
F   F45       1.0  0.01570  0.19000  0.35370  1.0000 -0.1896537833
C   C124      1.0  0.16470  0.43490  0.58690  1.0000 -0.091574599
H   H58       1.0  0.18570  0.43880  0.64210  1.0000 0.1286928159
F   F46       1.0  0.95240  0.26160  0.57240  1.0000 -0.1896537833
C   C125      1.0  0.10360  0.42260  0.42390  1.0000 -0.1291932988
H   H59       1.0  0.08290  0.41860  0.36840  1.0000 0.1286928159
F   F47       1.0  0.91650  0.17540  0.47730  1.0000 -0.1896537833
C   C126      1.0  0.24120  0.57030  0.57100  1.0000 0.6127531302
F   F48       1.0  0.01220  0.20620  0.55400  1.0000 -0.1896537833
C   C127      1.0  0.18740  0.49680  0.53640  1.0000 -0.0173517711
C   C128      1.0  0.89520  0.28130  0.24960  1.0000 -0.0832584876
H   H60       1.0  0.88290  0.26340  0.19230  1.0000 0.1286928159
C   C129      1.0  0.97530  0.23250  0.51110  1.0000 0.6634953591
C   C130      1.0  0.96570  0.29830  0.38170  1.0000 0.0767458305
C   C131      1.0  0.08040  0.36150  0.47510  1.0000 0.0767458305
C   C132      1.0  0.88050  0.34150  0.37450  1.0000 -0.0832584876
H   H61       1.0  0.85790  0.36420  0.40160  1.0000 0.1286928159
C   C133      1.0  0.06040  0.25700  0.38380  1.0000 0.6652539742
C   C134      1.0  0.15670  0.48930  0.45270  1.0000 -0.091574599
H   H62       1.0  0.17230  0.52970  0.41640  1.0000 0.1286928159
C   C135      1.0  0.94710  0.27290  0.29560  1.0000 -0.1566157021
H   H63       1.0  0.96960  0.25010  0.26840  1.0000 0.1146435437
C   C136      1.0  0.93200  0.33360  0.41980  1.0000 -0.1420246837
H   H64       1.0  0.94480  0.35210  0.47690  1.0000 0.119310226
O   O33       1.0  0.30770  0.73300  0.97973  1.0000 -0.5400671291
O   O34       1.0  0.36920  0.74360  0.85423  1.0000 -0.61533656
O   O35       1.0  0.57750  0.23180  0.60983  1.0000 -0.5604197013
C   C137      1.0  0.51680  0.19580  0.57213  1.0000 0.5890255294
F   F49       1.0  0.20470  0.90620  0.64743  1.0000 -0.1896537833
O   O36       1.0  0.50450  0.20580  0.49233  1.0000 -0.5400671291
C   C138      1.0  0.26670  0.97920  0.77133  1.0000 -0.2792276669
C   C139      1.0  0.45340  0.13800  0.62063  1.0000 -0.033998314
C   C140      1.0  0.25600  0.88790  0.89133  1.0000 -0.1465210694
H   H65       1.0  0.22980  0.90240  0.92673  1.0000 0.119310226
F   F50       1.0  0.14290  0.88880  0.76523  1.0000 -0.1896537833
F   F51       1.0  0.17430  0.98430  0.68703  1.0000 -0.1896537833
C   C141      1.0  0.27020  0.83530  0.92023  1.0000 -0.091574599
H   H66       1.0  0.25310  0.81430  0.97543  1.0000 0.1286928159
F   F52       1.0  0.30920  0.04760  0.90573  1.0000 -0.1896537833
C   C142      1.0  0.31900  0.89640  0.75723  1.0000 -0.1291932988
H   H67       1.0  0.33570  0.91710  0.70173  1.0000 0.1286928159
F   F53       1.0  0.25890  0.08350  0.81063  1.0000 -0.1896537833
C   C143      1.0  0.32910  0.75880  0.90433  1.0000 0.6127531302
F   F54       1.0  0.19400  0.98780  0.88733  1.0000 -0.1896537833
C   C144      1.0  0.30940  0.81260  0.86973  1.0000 -0.0173517711
C   C145      1.0  0.38610  0.10480  0.58293  1.0000 -0.0832584876
H   H68       1.0  0.38050  0.11710  0.52563  1.0000 0.1286928159
C   C146      1.0  0.25720  0.02470  0.84443  1.0000 0.6634953591
C   C147      1.0  0.33260  0.03430  0.71503  1.0000 0.0767458305
C   C148      1.0  0.28110  0.91960  0.80843  1.0000 0.0767458305
C   C149      1.0  0.46100  0.11950  0.70783  1.0000 -0.0832584876
H   H69       1.0  0.50630  0.14210  0.73493  1.0000 0.1286928159
C   C150      1.0  0.19660  0.93960  0.71713  1.0000 0.6652539742
C   C151      1.0  0.33260  0.84330  0.78603  1.0000 -0.091574599
H   H70       1.0  0.35740  0.82770  0.74973  1.0000 0.1286928159
C   C152      1.0  0.32580  0.05290  0.62893  1.0000 -0.1566157021
H   H71       1.0  0.28050  0.03040  0.60173  1.0000 0.1146435437
C   C153      1.0  0.40160  0.06800  0.75313  1.0000 -0.1420246837
H   H72       1.0  0.40730  0.05520  0.81023  1.0000 0.119310226
O   O37       1.0  0.57470  0.30770  0.81307  1.0000 -0.5400671291
O   O38       1.0  0.62560  0.36920  0.68757  1.0000 -0.61533656
O   O39       1.0  0.34570  0.57750  0.44317  1.0000 -0.5604197013
C   C154      1.0  0.32100  0.51680  0.40547  1.0000 0.5890255294
F   F55       1.0  0.29850  0.20470  0.48077  1.0000 -0.1896537833
O   O40       1.0  0.29870  0.50450  0.32567  1.0000 -0.5400671291
C   C155      1.0  0.28750  0.26670  0.60467  1.0000 -0.2792276669
C   C156      1.0  0.31540  0.45340  0.45397  1.0000 -0.033998314
C   C157      1.0  0.36810  0.25600  0.72467  1.0000 -0.1465210694
H   H73       1.0  0.32740  0.22980  0.76007  1.0000 0.119310226
F   F56       1.0  0.25410  0.14290  0.59857  1.0000 -0.1896537833
F   F57       1.0  0.19000  0.17430  0.52037  1.0000 -0.1896537833
C   C158      1.0  0.43490  0.27020  0.75357  1.0000 -0.091574599
H   H74       1.0  0.43880  0.25310  0.80877  1.0000 0.1286928159
F   F58       1.0  0.26160  0.30920  0.73907  1.0000 -0.1896537833
C   C159      1.0  0.42260  0.31900  0.59057  1.0000 -0.1291932988
H   H75       1.0  0.41860  0.33570  0.53507  1.0000 0.1286928159
F   F59       1.0  0.17540  0.25890  0.64397  1.0000 -0.1896537833
C   C160      1.0  0.57030  0.32910  0.73767  1.0000 0.6127531302
F   F60       1.0  0.20620  0.19400  0.72067  1.0000 -0.1896537833
C   C161      1.0  0.49680  0.30940  0.70307  1.0000 -0.0173517711
C   C162      1.0  0.28130  0.38610  0.41627  1.0000 -0.0832584876
H   H76       1.0  0.26340  0.38050  0.35897  1.0000 0.1286928159
C   C163      1.0  0.23250  0.25720  0.67777  1.0000 0.6634953591
C   C164      1.0  0.29830  0.33260  0.54837  1.0000 0.0767458305
C   C165      1.0  0.36150  0.28110  0.64177  1.0000 0.0767458305
C   C166      1.0  0.34150  0.46100  0.54117  1.0000 -0.0832584876
H   H77       1.0  0.36420  0.50630  0.56827  1.0000 0.1286928159
C   C167      1.0  0.25700  0.19660  0.55047  1.0000 0.6652539742
C   C168      1.0  0.48930  0.33260  0.61937  1.0000 -0.091574599
H   H78       1.0  0.52970  0.35740  0.58307  1.0000 0.1286928159
C   C169      1.0  0.27290  0.32580  0.46227  1.0000 -0.1566157021
H   H79       1.0  0.25010  0.28050  0.43507  1.0000 0.1146435437
C   C170      1.0  0.33360  0.40160  0.58647  1.0000 -0.1420246837
H   H80       1.0  0.35210  0.40730  0.64357  1.0000 0.119310226
O   O41       1.0  0.73300  0.42530  0.14640  1.0000 -0.5400671291
O   O42       1.0  0.74360  0.37440  0.02090  1.0000 -0.61533656
O   O43       1.0  0.23180  0.65430  0.77650  1.0000 -0.5604197013
C   C171      1.0  0.19580  0.67900  0.73880  1.0000 0.5890255294
F   F61       1.0  0.90620  0.70150  0.81410  1.0000 -0.1896537833
O   O44       1.0  0.20580  0.70130  0.65900  1.0000 -0.5400671291
C   C172      1.0  0.97920  0.71250  0.93800  1.0000 -0.2792276669
C   C173      1.0  0.13800  0.68460  0.78730  1.0000 -0.033998314
C   C174      1.0  0.88790  0.63190  0.05800  1.0000 -0.1465210694
H   H81       1.0  0.90240  0.67260  0.09340  1.0000 0.119310226
F   F62       1.0  0.88880  0.74590  0.93190  1.0000 -0.1896537833
F   F63       1.0  0.98430  0.81000  0.85370  1.0000 -0.1896537833
C   C175      1.0  0.83530  0.56510  0.08690  1.0000 -0.091574599
H   H82       1.0  0.81430  0.56120  0.14210  1.0000 0.1286928159
F   F64       1.0  0.04760  0.73840  0.07240  1.0000 -0.1896537833
C   C176      1.0  0.89640  0.57740  0.92390  1.0000 -0.1291932988
H   H83       1.0  0.91710  0.58140  0.86840  1.0000 0.1286928159
F   F65       1.0  0.08350  0.82460  0.97730  1.0000 -0.1896537833
C   C177      1.0  0.75880  0.42970  0.07100  1.0000 0.6127531302
F   F66       1.0  0.98780  0.79380  0.05400  1.0000 -0.1896537833
C   C178      1.0  0.81260  0.50320  0.03640  1.0000 -0.0173517711
C   C179      1.0  0.10480  0.71870  0.74960  1.0000 -0.0832584876
H   H84       1.0  0.11710  0.73660  0.69230  1.0000 0.1286928159
C   C180      1.0  0.02470  0.76750  0.01110  1.0000 0.6634953591
C   C181      1.0  0.03430  0.70170  0.88170  1.0000 0.0767458305
C   C182      1.0  0.91960  0.63850  0.97510  1.0000 0.0767458305
C   C183      1.0  0.11950  0.65850  0.87450  1.0000 -0.0832584876
H   H85       1.0  0.14210  0.63580  0.90160  1.0000 0.1286928159
C   C184      1.0  0.93960  0.74300  0.88380  1.0000 0.6652539742
C   C185      1.0  0.84330  0.51070  0.95270  1.0000 -0.091574599
H   H86       1.0  0.82770  0.47030  0.91640  1.0000 0.1286928159
C   C186      1.0  0.05290  0.72710  0.79560  1.0000 -0.1566157021
H   H87       1.0  0.03040  0.74990  0.76840  1.0000 0.1146435437
C   C187      1.0  0.06800  0.66640  0.91980  1.0000 -0.1420246837
H   H88       1.0  0.05520  0.64790  0.97690  1.0000 0.119310226
O   O45       1.0  0.69230  0.26700  0.47973  1.0000 -0.5400671291
O   O46       1.0  0.63080  0.25640  0.35423  1.0000 -0.61533656
O   O47       1.0  0.42250  0.76820  0.10983  1.0000 -0.5604197013
C   C188      1.0  0.48320  0.80420  0.07213  1.0000 0.5890255294
F   F67       1.0  0.79530  0.09380  0.14743  1.0000 -0.1896537833
O   O48       1.0  0.49550  0.79420  0.99233  1.0000 -0.5400671291
C   C189      1.0  0.73330  0.02080  0.27133  1.0000 -0.2792276669
C   C190      1.0  0.54660  0.86200  0.12063  1.0000 -0.033998314
C   C191      1.0  0.74400  0.11210  0.39133  1.0000 -0.1465210694
H   H89       1.0  0.77020  0.09760  0.42673  1.0000 0.119310226
F   F68       1.0  0.85710  0.11120  0.26523  1.0000 -0.1896537833
F   F69       1.0  0.82570  0.01570  0.18703  1.0000 -0.1896537833
C   C192      1.0  0.72980  0.16470  0.42023  1.0000 -0.091574599
H   H90       1.0  0.74690  0.18570  0.47543  1.0000 0.1286928159
F   F70       1.0  0.69080  0.95240  0.40573  1.0000 -0.1896537833
C   C193      1.0  0.68100  0.10360  0.25723  1.0000 -0.1291932988
H   H91       1.0  0.66430  0.08290  0.20173  1.0000 0.1286928159
F   F71       1.0  0.74110  0.91650  0.31063  1.0000 -0.1896537833
C   C194      1.0  0.67090  0.24120  0.40433  1.0000 0.6127531302
F   F72       1.0  0.80600  0.01220  0.38733  1.0000 -0.1896537833
C   C195      1.0  0.69060  0.18740  0.36973  1.0000 -0.0173517711
C   C196      1.0  0.61390  0.89520  0.08293  1.0000 -0.0832584876
H   H92       1.0  0.61950  0.88290  0.02563  1.0000 0.1286928159
C   C197      1.0  0.74280  0.97530  0.34443  1.0000 0.6634953591
C   C198      1.0  0.66740  0.96570  0.21503  1.0000 0.0767458305
C   C199      1.0  0.71890  0.08040  0.30843  1.0000 0.0767458305
C   C200      1.0  0.53900  0.88050  0.20783  1.0000 -0.0832584876
H   H93       1.0  0.49370  0.85790  0.23493  1.0000 0.1286928159
C   C201      1.0  0.80340  0.06040  0.21713  1.0000 0.6652539742
C   C202      1.0  0.66740  0.15670  0.28603  1.0000 -0.091574599
H   H94       1.0  0.64260  0.17230  0.24973  1.0000 0.1286928159
C   C203      1.0  0.67420  0.94710  0.12893  1.0000 -0.1566157021
H   H95       1.0  0.71950  0.96960  0.10173  1.0000 0.1146435437
C   C204      1.0  0.59840  0.93200  0.25313  1.0000 -0.1420246837
H   H96       1.0  0.59270  0.94480  0.31023  1.0000 0.119310226
Zn  Zn1       1.0  0.43328  0.71664  0.91667  1.0000 0.9033167732
Zn  Zn2       1.0  0.28336  0.71664  0.58333  1.0000 0.9033167732
Zn  Zn3       1.0  0.28336  0.56672  0.25000  1.0000 0.9033167732
Zn  Zn4       1.0  0.56672  0.28336  0.41667  1.0000 0.9033167732
Zn  Zn5       1.0  0.71664  0.28336  0.08333  1.0000 0.9033167732
Zn  Zn6       1.0  0.71664  0.43328  0.75000  1.0000 0.9033167732
Mn  Mn1       1.0  0.32415  0.64830  0.75000  1.0000 1.0320115658
Mn  Mn2       1.0  0.35170  0.67585  0.41667  1.0000 1.0320115658
Mn  Mn3       1.0  0.32415  0.67585  0.08333  1.0000 1.0320115658
Mn  Mn4       1.0  0.67585  0.35170  0.25000  1.0000 1.0320115658
Mn  Mn5       1.0  0.64830  0.32415  0.91667  1.0000 1.0320115658
Mn  Mn6       1.0  0.67585  0.32415  0.58333  1.0000 1.0320115658
