# DDEC6 charges by PACMAN v1.1 (https://github.com/mtap-research/PACMAN-charge/)
data_2017[Cu][nan]2[ASR]1
_chemical_formula_sum              "Cu4 H44 C72 S4 N20 O16"
_cell_length_a       11.4865
_cell_length_b       27.263
_cell_length_c       11.8176
_cell_angle_alpha    90
_cell_angle_beta     114.828
_cell_angle_gamma    90

_symmetry_space_group_name_H-M    "P 1"
_symmetry_Int_Tables_number       1

loop_
  _symmetry_equiv_pos_as_xyz
  'x, y, z'

loop_
  _atom_site_type_symbol
  _atom_site_label
  _atom_site_symmetry_multiplicity
  _atom_site_fract_x
  _atom_site_fract_y
  _atom_site_fract_z
  _atom_site_occupancy
  _atom_site_charge
Cu  Cu1       1.0  0.92751  0.76004  0.61998  1.0000 0.7395734552
Cu  Cu2       1.0  0.07249  0.26004  0.88002  1.0000 0.7395734552
Cu  Cu3       1.0  0.07249  0.23996  0.38002  1.0000 0.7395734552
Cu  Cu4       1.0  0.92751  0.73996  0.11998  1.0000 0.7395734552
H   H1        1.0  0.09400  0.70130  0.53460  1.0000 0.1203444859
H   H2        1.0  0.22440  0.30760  0.75620  1.0000 0.1296396394
H   H3        1.0  0.31410  0.74640  0.56490  1.0000 0.1203444859
H   H4        1.0  0.24470  0.38220  0.67780  1.0000 0.1382137439
H   H5        1.0  0.54640  0.74480  0.64110  1.0000 0.1382137439
H   H6        1.0  0.91830  0.58120  0.68160  1.0000 0.1382137439
H   H7        1.0  0.16830  0.62250  0.54610  1.0000 0.1459182806
H   H8        1.0  0.00390  0.43800  0.81000  1.0000 0.1459182806
H   H9        1.0  0.98550  0.36200  0.87820  1.0000 0.1203444859
H   H10       1.0  0.27900  0.47000  0.62200  1.0000 0.2623276029
H   H11       1.0  0.85100  0.66280  0.67000  1.0000 0.1203444859
H   H12       1.0  0.90600  0.20130  0.96540  1.0000 0.1203444859
H   H13       1.0  0.77560  0.80760  0.74380  1.0000 0.1296396394
H   H14       1.0  0.68590  0.24640  0.93510  1.0000 0.1203444859
H   H15       1.0  0.75530  0.88220  0.82220  1.0000 0.1382137439
H   H16       1.0  0.45360  0.24480  0.85890  1.0000 0.1382137439
H   H17       1.0  0.08170  0.08120  0.81840  1.0000 0.1382137439
H   H18       1.0  0.83170  0.12250  0.95390  1.0000 0.1459182806
H   H19       1.0  0.99610  0.93800  0.69000  1.0000 0.1459182806
H   H20       1.0  0.01450  0.86200  0.62180  1.0000 0.1203444859
H   H21       1.0  0.72100  0.97000  0.87800  1.0000 0.2623276029
H   H22       1.0  0.14900  0.16280  0.83000  1.0000 0.1203444859
H   H23       1.0  0.90600  0.29870  0.46540  1.0000 0.1203444859
H   H24       1.0  0.77560  0.69240  0.24380  1.0000 0.1296396394
H   H25       1.0  0.68590  0.25360  0.43510  1.0000 0.1203444859
H   H26       1.0  0.75530  0.61780  0.32220  1.0000 0.1382137439
H   H27       1.0  0.45360  0.25520  0.35890  1.0000 0.1382137439
H   H28       1.0  0.08170  0.41880  0.31840  1.0000 0.1382137439
H   H29       1.0  0.83170  0.37750  0.45390  1.0000 0.1459182806
H   H30       1.0  0.99610  0.56200  0.19000  1.0000 0.1459182806
H   H31       1.0  0.01450  0.63800  0.12180  1.0000 0.1203444859
H   H32       1.0  0.72100  0.53000  0.37800  1.0000 0.2623276029
H   H33       1.0  0.14900  0.33720  0.33000  1.0000 0.1203444859
H   H34       1.0  0.09400  0.79870  0.03460  1.0000 0.1203444859
H   H35       1.0  0.22440  0.19240  0.25620  1.0000 0.1296396394
H   H36       1.0  0.31410  0.75360  0.06490  1.0000 0.1203444859
H   H37       1.0  0.24470  0.11780  0.17780  1.0000 0.1382137439
H   H38       1.0  0.54640  0.75520  0.14110  1.0000 0.1382137439
H   H39       1.0  0.91830  0.91880  0.18160  1.0000 0.1382137439
H   H40       1.0  0.16830  0.87750  0.04610  1.0000 0.1459182806
H   H41       1.0  0.00390  0.06200  0.31000  1.0000 0.1459182806
H   H42       1.0  0.98550  0.13800  0.37820  1.0000 0.1203444859
H   H43       1.0  0.27900  0.03000  0.12200  1.0000 0.2623276029
H   H44       1.0  0.85100  0.83720  0.17000  1.0000 0.1203444859
C   C1        1.0  0.66260  0.73799  0.47360  1.0000 0.5675541822
C   C2        1.0  0.29470  0.73598  0.38830  1.0000 -0.1116609969
C   C3        1.0  0.05920  0.67684  0.56600  1.0000 0.0998360839
C   C4        1.0  0.53020  0.73531  0.46510  1.0000 -0.1116609969
C   C5        1.0  0.15510  0.73818  0.31230  1.0000 0.5452264909
C   C6        1.0  0.17880  0.33416  0.76630  1.0000 0.0998360839
C   C7        1.0  0.05350  0.59234  0.61780  1.0000 0.0677090965
C   C8        1.0  0.12530  0.41912  0.73240  1.0000 0.0581905775
C   C9        1.0  0.10130  0.54199  0.63270  1.0000 0.2427020323
C   C10       1.0  0.13270  0.46803  0.68470  1.0000 0.2511134732
C   C11       1.0  0.35630  0.74215  0.51350  1.0000 -0.1224014621
C   C12       1.0  0.19150  0.37895  0.71890  1.0000 -0.177898001
C   C13       1.0  0.49050  0.74145  0.55740  1.0000 -0.1116609969
C   C14       1.0  0.95650  0.60504  0.65210  1.0000 -0.1674533721
C   C15       1.0  0.10420  0.62943  0.57230  1.0000 -0.177898001
C   C16       1.0  0.91670  0.65294  0.64250  1.0000 0.0807560969
C   C17       1.0  0.04850  0.41192  0.79630  1.0000 -0.1674533721
C   C18       1.0  0.03950  0.36623  0.83840  1.0000 0.0807560969
C   C19       1.0  0.33740  0.23799  0.02640  1.0000 0.5675541822
C   C20       1.0  0.70530  0.23598  0.11170  1.0000 -0.1116609969
C   C21       1.0  0.94080  0.17684  0.93400  1.0000 0.0998360839
C   C22       1.0  0.46980  0.23531  0.03490  1.0000 -0.1116609969
C   C23       1.0  0.84490  0.23818  0.18770  1.0000 0.5452264909
C   C24       1.0  0.82120  0.83416  0.73370  1.0000 0.0998360839
C   C25       1.0  0.94650  0.09234  0.88220  1.0000 0.0677090965
C   C26       1.0  0.87470  0.91912  0.76760  1.0000 0.0581905775
C   C27       1.0  0.89870  0.04199  0.86730  1.0000 0.2427020323
C   C28       1.0  0.86730  0.96803  0.81530  1.0000 0.2511134732
C   C29       1.0  0.64370  0.24215  0.98650  1.0000 -0.1224014621
C   C30       1.0  0.80850  0.87895  0.78110  1.0000 -0.177898001
C   C31       1.0  0.50950  0.24145  0.94260  1.0000 -0.1116609969
C   C32       1.0  0.04350  0.10504  0.84790  1.0000 -0.1674533721
C   C33       1.0  0.89580  0.12943  0.92770  1.0000 -0.177898001
C   C34       1.0  0.08330  0.15294  0.85750  1.0000 0.0807560969
C   C35       1.0  0.95150  0.91192  0.70370  1.0000 -0.1674533721
C   C36       1.0  0.96050  0.86623  0.66160  1.0000 0.0807560969
C   C37       1.0  0.33740  0.26201  0.52640  1.0000 0.5675541822
C   C38       1.0  0.70530  0.26402  0.61170  1.0000 -0.1116609969
C   C39       1.0  0.94080  0.32316  0.43400  1.0000 0.0998360839
C   C40       1.0  0.46980  0.26469  0.53490  1.0000 -0.1116609969
C   C41       1.0  0.84490  0.26182  0.68770  1.0000 0.5452264909
C   C42       1.0  0.82120  0.66584  0.23370  1.0000 0.0998360839
C   C43       1.0  0.94650  0.40766  0.38220  1.0000 0.0677090965
C   C44       1.0  0.87470  0.58088  0.26760  1.0000 0.0581905775
C   C45       1.0  0.89870  0.45801  0.36730  1.0000 0.2427020323
C   C46       1.0  0.86730  0.53197  0.31530  1.0000 0.2511134732
C   C47       1.0  0.64370  0.25785  0.48650  1.0000 -0.1224014621
C   C48       1.0  0.80850  0.62105  0.28110  1.0000 -0.177898001
C   C49       1.0  0.50950  0.25855  0.44260  1.0000 -0.1116609969
C   C50       1.0  0.04350  0.39496  0.34790  1.0000 -0.1674533721
C   C51       1.0  0.89580  0.37057  0.42770  1.0000 -0.177898001
C   C52       1.0  0.08330  0.34706  0.35750  1.0000 0.0807560969
C   C53       1.0  0.95150  0.58808  0.20370  1.0000 -0.1674533721
C   C54       1.0  0.96050  0.63377  0.16160  1.0000 0.0807560969
C   C55       1.0  0.66260  0.76201  0.97360  1.0000 0.5675541822
C   C56       1.0  0.29470  0.76402  0.88830  1.0000 -0.1116609969
C   C57       1.0  0.05920  0.82316  0.06600  1.0000 0.0998360839
C   C58       1.0  0.53020  0.76469  0.96510  1.0000 -0.1116609969
C   C59       1.0  0.15510  0.76182  0.81230  1.0000 0.5452264909
C   C60       1.0  0.17880  0.16584  0.26630  1.0000 0.0998360839
C   C61       1.0  0.05350  0.90766  0.11780  1.0000 0.0677090965
C   C62       1.0  0.12530  0.08088  0.23240  1.0000 0.0581905775
C   C63       1.0  0.10130  0.95801  0.13270  1.0000 0.2427020323
C   C64       1.0  0.13270  0.03197  0.18470  1.0000 0.2511134732
C   C65       1.0  0.35630  0.75785  0.01350  1.0000 -0.1224014621
C   C66       1.0  0.19150  0.12105  0.21890  1.0000 -0.177898001
C   C67       1.0  0.49050  0.75855  0.05740  1.0000 -0.1116609969
C   C68       1.0  0.95650  0.89496  0.15210  1.0000 -0.1674533721
C   C69       1.0  0.10420  0.87057  0.07230  1.0000 -0.177898001
C   C70       1.0  0.91670  0.84706  0.14250  1.0000 0.0807560969
C   C71       1.0  0.04850  0.08808  0.29630  1.0000 -0.1674533721
C   C72       1.0  0.03950  0.13377  0.33840  1.0000 0.0807560969
S   S1        1.0  0.40221  0.72999  0.32347  1.0000 0.1623135571
S   S2        1.0  0.59779  0.22999  0.17653  1.0000 0.1623135571
S   S3        1.0  0.59779  0.27001  0.67653  1.0000 0.1623135571
S   S4        1.0  0.40221  0.77001  0.82347  1.0000 0.1623135571
N   N1        1.0  0.96840  0.68913  0.60290  1.0000 -0.2112305771
N   N2        1.0  0.10330  0.32702  0.82650  1.0000 -0.2157636706
N   N3        1.0  0.06210  0.50636  0.68750  1.0000 -0.3986473169
N   N4        1.0  0.20990  0.47919  0.62830  1.0000 -0.177898001
N   N5        1.0  0.19040  0.52709  0.59600  1.0000 -0.2345708993
N   N6        1.0  0.03160  0.18913  0.89710  1.0000 -0.2112305771
N   N7        1.0  0.89670  0.82702  0.67350  1.0000 -0.2157636706
N   N8        1.0  0.93790  0.00636  0.81250  1.0000 -0.3986473169
N   N9        1.0  0.79010  0.97919  0.87170  1.0000 -0.177898001
N   N10       1.0  0.80960  0.02709  0.90400  1.0000 -0.2345708993
N   N11       1.0  0.03160  0.31087  0.39710  1.0000 -0.2112305771
N   N12       1.0  0.89670  0.67298  0.17350  1.0000 -0.2157636706
N   N13       1.0  0.93790  0.49364  0.31250  1.0000 -0.3986473169
N   N14       1.0  0.79010  0.52081  0.37170  1.0000 -0.177898001
N   N15       1.0  0.80960  0.47291  0.40400  1.0000 -0.2345708993
N   N16       1.0  0.96840  0.81087  0.10290  1.0000 -0.2112305771
N   N17       1.0  0.10330  0.17298  0.32650  1.0000 -0.2157636706
N   N18       1.0  0.06210  0.99364  0.18750  1.0000 -0.3986473169
N   N19       1.0  0.20990  0.02081  0.12830  1.0000 -0.1674533721
N   N20       1.0  0.19040  0.97291  0.09600  1.0000 -0.2345708993
O   O1        1.0  0.11480  0.72707  0.19670  1.0000 -0.5400164958
O   O2        1.0  0.74998  0.74395  0.58180  1.0000 -0.5307940479
O   O3        1.0  0.08480  0.75118  0.36170  1.0000 -0.5400164958
O   O4        1.0  0.67620  0.73570  0.37350  1.0000 -0.5809766587
O   O5        1.0  0.88520  0.22707  0.30330  1.0000 -0.5400164958
O   O6        1.0  0.25002  0.24395  0.91820  1.0000 -0.5307940479
O   O7        1.0  0.91520  0.25118  0.13830  1.0000 -0.5400164958
O   O8        1.0  0.32380  0.23570  0.12650  1.0000 -0.5809766587
O   O9        1.0  0.88520  0.27293  0.80330  1.0000 -0.5400164958
O   O10       1.0  0.25002  0.25605  0.41820  1.0000 -0.5307940479
O   O11       1.0  0.91520  0.24882  0.63830  1.0000 -0.5400164958
O   O12       1.0  0.32380  0.26430  0.62650  1.0000 -0.5809766587
O   O13       1.0  0.11480  0.77293  0.69670  1.0000 -0.5400164958
O   O14       1.0  0.74998  0.75605  0.08180  1.0000 -0.5307940479
O   O15       1.0  0.08480  0.74882  0.86170  1.0000 -0.5400164958
O   O16       1.0  0.67620  0.76430  0.87350  1.0000 -0.5809766587
