# DDEC6 charges by PACMAN v1.1 (https://github.com/mtap-research/PACMAN-charge/)
data_2017[Cu][pts]3[ASR]2
_chemical_formula_sum              "Cu8 H144 C244 N48 O32"
_cell_length_a       16.0604
_cell_length_b       16.0604
_cell_length_c       44.117
_cell_angle_alpha    90
_cell_angle_beta     90
_cell_angle_gamma    90

_symmetry_space_group_name_H-M    "P 1"
_symmetry_Int_Tables_number       1

loop_
  _symmetry_equiv_pos_as_xyz
  'x, y, z'

loop_
  _atom_site_type_symbol
  _atom_site_label
  _atom_site_symmetry_multiplicity
  _atom_site_fract_x
  _atom_site_fract_y
  _atom_site_fract_z
  _atom_site_occupancy
  _atom_site_charge
Cu  Cu1       1.0  0.95842  0.57051  0.78965  1.0000 0.8370421803
Cu  Cu2       1.0  0.07051  0.54158  0.28965  1.0000 0.8370421803
Cu  Cu3       1.0  0.92949  0.45842  0.28965  1.0000 0.8370421803
Cu  Cu4       1.0  0.04158  0.42949  0.78965  1.0000 0.8370421803
Cu  Cu5       1.0  0.45842  0.92949  0.71035  1.0000 0.8370421803
Cu  Cu6       1.0  0.57051  0.95842  0.21035  1.0000 0.8370421803
Cu  Cu7       1.0  0.54158  0.07051  0.71035  1.0000 0.8370421803
Cu  Cu8       1.0  0.42949  0.04158  0.21035  1.0000 0.8370421803
H   H1        1.0  0.32875  0.98389  0.03894  1.0000 0.1102762459
H   H2        1.0  0.48389  0.17125  0.53894  1.0000 0.1102762459
H   H3        1.0  0.51611  0.82875  0.53894  1.0000 0.1102762459
H   H4        1.0  0.67125  0.01611  0.03894  1.0000 0.1102762459
H   H5        1.0  0.58805  0.99337  0.98966  1.0000 0.1188555214
H   H6        1.0  0.49337  0.91195  0.48966  1.0000 0.1188555214
H   H7        1.0  0.50663  0.08805  0.48966  1.0000 0.1188555214
H   H8        1.0  0.41195  0.00663  0.98966  1.0000 0.1188555214
H   H9        1.0  0.22772  0.03817  0.07065  1.0000 0.1188555214
H   H10       1.0  0.53817  0.27228  0.57065  1.0000 0.1188555214
H   H11       1.0  0.46183  0.72772  0.57065  1.0000 0.1188555214
H   H12       1.0  0.77228  0.96183  0.07065  1.0000 0.1188555214
H   H13       1.0  0.72121  0.20130  0.93269  1.0000 0.137053974
H   H14       1.0  0.70130  0.77879  0.43269  1.0000 0.137053974
H   H15       1.0  0.29870  0.22121  0.43269  1.0000 0.137053974
H   H16       1.0  0.27879  0.79870  0.93269  1.0000 0.137053974
H   H17       1.0  0.50369  0.09251  0.09048  1.0000 0.1102762459
H   H18       1.0  0.59251  0.99631  0.59048  1.0000 0.1102762459
H   H19       1.0  0.40749  0.00369  0.59048  1.0000 0.1102762459
H   H20       1.0  0.49631  0.90749  0.09048  1.0000 0.1102762459
H   H21       1.0  0.92573  0.31648  0.86709  1.0000 0.1299937241
H   H22       1.0  0.81648  0.57427  0.36709  1.0000 0.1299937241
H   H23       1.0  0.18352  0.42573  0.36709  1.0000 0.1299937241
H   H24       1.0  0.07427  0.68352  0.86709  1.0000 0.1299937241
H   H25       1.0  0.40435  0.14233  0.12180  1.0000 0.1188555214
H   H26       1.0  0.64233  0.09565  0.62180  1.0000 0.1188555214
H   H27       1.0  0.35767  0.90435  0.62180  1.0000 0.1188555214
H   H28       1.0  0.59565  0.85767  0.12180  1.0000 0.1188555214
H   H29       1.0  0.29586  0.20472  0.15131  1.0000 0.1299937241
H   H30       1.0  0.70472  0.20414  0.65131  1.0000 0.1299937241
H   H31       1.0  0.29528  0.79586  0.65131  1.0000 0.1299937241
H   H32       1.0  0.70414  0.79528  0.15131  1.0000 0.1299937241
H   H33       1.0  0.54148  0.26934  0.00975  1.0000 0.1188555214
H   H34       1.0  0.76934  0.95852  0.50975  1.0000 0.1188555214
H   H35       1.0  0.23066  0.04148  0.50975  1.0000 0.1188555214
H   H36       1.0  0.45852  0.73066  0.00975  1.0000 0.1188555214
H   H37       1.0  0.65259  0.09354  0.96023  1.0000 0.1188555214
H   H38       1.0  0.59354  0.84741  0.46023  1.0000 0.1188555214
H   H39       1.0  0.40646  0.15259  0.46023  1.0000 0.1188555214
H   H40       1.0  0.34741  0.90646  0.96023  1.0000 0.1188555214
H   H41       1.0  0.48792  0.16755  0.04050  1.0000 0.1188555214
H   H42       1.0  0.66755  0.01208  0.54050  1.0000 0.1188555214
H   H43       1.0  0.33245  0.98792  0.54050  1.0000 0.1188555214
H   H44       1.0  0.51208  0.83245  0.04050  1.0000 0.1188555214
H   H45       1.0  0.75921  0.49805  0.85047  1.0000 0.1299937241
H   H46       1.0  0.99805  0.74079  0.35047  1.0000 0.1299937241
H   H47       1.0  0.00195  0.25921  0.35047  1.0000 0.1299937241
H   H48       1.0  0.24079  0.50195  0.85047  1.0000 0.1299937241
H   H49       1.0  0.67508  0.44715  0.88765  1.0000 0.137053974
H   H50       1.0  0.94715  0.82492  0.38765  1.0000 0.137053974
H   H51       1.0  0.05285  0.17508  0.38765  1.0000 0.137053974
H   H52       1.0  0.32492  0.55285  0.88765  1.0000 0.137053974
H   H53       1.0  0.83989  0.27117  0.90787  1.0000 0.1299937241
H   H54       1.0  0.77117  0.66011  0.40787  1.0000 0.1299937241
H   H55       1.0  0.22883  0.33989  0.40787  1.0000 0.1299937241
H   H56       1.0  0.16011  0.72883  0.90787  1.0000 0.1299937241
H   H57       1.0  0.24814  0.31474  0.18136  1.0000 0.1188555214
H   H58       1.0  0.81474  0.25186  0.68136  1.0000 0.1188555214
H   H59       1.0  0.18526  0.74814  0.68136  1.0000 0.1188555214
H   H60       1.0  0.75186  0.68526  0.18136  1.0000 0.1188555214
H   H61       1.0  0.20266  0.39405  0.22280  1.0000 0.1299937241
H   H62       1.0  0.89405  0.29734  0.72280  1.0000 0.1299937241
H   H63       1.0  0.10595  0.70266  0.72280  1.0000 0.1299937241
H   H64       1.0  0.79734  0.60595  0.22280  1.0000 0.1299937241
H   H65       1.0  0.02686  0.20298  0.17842  1.0000 0.1188555214
H   H66       1.0  0.70298  0.47314  0.67842  1.0000 0.1188555214
H   H67       1.0  0.29702  0.52686  0.67842  1.0000 0.1188555214
H   H68       1.0  0.97314  0.79702  0.17842  1.0000 0.1188555214
H   H69       1.0  0.98369  0.28092  0.22022  1.0000 0.1299937241
H   H70       1.0  0.78092  0.51631  0.72022  1.0000 0.1299937241
H   H71       1.0  0.21908  0.48369  0.72022  1.0000 0.1299937241
H   H72       1.0  0.01631  0.71908  0.22022  1.0000 0.1299937241
H   H73       1.0  0.82875  0.51611  0.46106  1.0000 0.1102762459
H   H74       1.0  0.98389  0.32875  0.96106  1.0000 0.1102762459
H   H75       1.0  0.17125  0.48389  0.46106  1.0000 0.1102762459
H   H76       1.0  0.01611  0.67125  0.96106  1.0000 0.1102762459
H   H77       1.0  0.08805  0.50663  0.51034  1.0000 0.1188555214
H   H78       1.0  0.99337  0.58805  0.01034  1.0000 0.1188555214
H   H79       1.0  0.91195  0.49337  0.51034  1.0000 0.1188555214
H   H80       1.0  0.00663  0.41195  0.01034  1.0000 0.1188555214
H   H81       1.0  0.72772  0.46183  0.42935  1.0000 0.1188555214
H   H82       1.0  0.03817  0.22772  0.92935  1.0000 0.1188555214
H   H83       1.0  0.27228  0.53817  0.42935  1.0000 0.1188555214
H   H84       1.0  0.96183  0.77228  0.92935  1.0000 0.1188555214
H   H85       1.0  0.22121  0.29870  0.56731  1.0000 0.137053974
H   H86       1.0  0.20130  0.72121  0.06731  1.0000 0.137053974
H   H87       1.0  0.77879  0.70130  0.56731  1.0000 0.137053974
H   H88       1.0  0.79870  0.27879  0.06731  1.0000 0.137053974
H   H89       1.0  0.00369  0.40749  0.40952  1.0000 0.1102762459
H   H90       1.0  0.09251  0.50369  0.90952  1.0000 0.1102762459
H   H91       1.0  0.99631  0.59251  0.40952  1.0000 0.1102762459
H   H92       1.0  0.90749  0.49631  0.90952  1.0000 0.1102762459
H   H93       1.0  0.42573  0.18352  0.63291  1.0000 0.1299937241
H   H94       1.0  0.31648  0.92573  0.13291  1.0000 0.1299937241
H   H95       1.0  0.57427  0.81648  0.63291  1.0000 0.1299937241
H   H96       1.0  0.68352  0.07427  0.13291  1.0000 0.1299937241
H   H97       1.0  0.90435  0.35767  0.37820  1.0000 0.1188555214
H   H98       1.0  0.14233  0.40435  0.87820  1.0000 0.1188555214
H   H99       1.0  0.09565  0.64233  0.37820  1.0000 0.1188555214
H   H100      1.0  0.85767  0.59565  0.87820  1.0000 0.1188555214
H   H101      1.0  0.79586  0.29528  0.34869  1.0000 0.1299937241
H   H102      1.0  0.20472  0.29586  0.84869  1.0000 0.1299937241
H   H103      1.0  0.20414  0.70472  0.34869  1.0000 0.1299937241
H   H104      1.0  0.79528  0.70414  0.84869  1.0000 0.1299937241
H   H105      1.0  0.04148  0.23066  0.49025  1.0000 0.1188555214
H   H106      1.0  0.26934  0.54148  0.99025  1.0000 0.1188555214
H   H107      1.0  0.95852  0.76934  0.49025  1.0000 0.1188555214
H   H108      1.0  0.73066  0.45852  0.99025  1.0000 0.1188555214
H   H109      1.0  0.15259  0.40646  0.53977  1.0000 0.1188555214
H   H110      1.0  0.09354  0.65259  0.03977  1.0000 0.1188555214
H   H111      1.0  0.84741  0.59354  0.53977  1.0000 0.1188555214
H   H112      1.0  0.90646  0.34741  0.03977  1.0000 0.1188555214
H   H113      1.0  0.98792  0.33245  0.45950  1.0000 0.1188555214
H   H114      1.0  0.16755  0.48792  0.95950  1.0000 0.1188555214
H   H115      1.0  0.01208  0.66755  0.45950  1.0000 0.1188555214
H   H116      1.0  0.83245  0.51208  0.95950  1.0000 0.1188555214
H   H117      1.0  0.25921  0.00195  0.64953  1.0000 0.1299937241
H   H118      1.0  0.49805  0.75921  0.14953  1.0000 0.1299937241
H   H119      1.0  0.74079  0.99805  0.64953  1.0000 0.1299937241
H   H120      1.0  0.50195  0.24079  0.14953  1.0000 0.1299937241
H   H121      1.0  0.17508  0.05285  0.61235  1.0000 0.137053974
H   H122      1.0  0.44715  0.67508  0.11235  1.0000 0.137053974
H   H123      1.0  0.82492  0.94715  0.61235  1.0000 0.137053974
H   H124      1.0  0.55285  0.32492  0.11235  1.0000 0.137053974
H   H125      1.0  0.33989  0.22883  0.59213  1.0000 0.1299937241
H   H126      1.0  0.27117  0.83989  0.09213  1.0000 0.1299937241
H   H127      1.0  0.66011  0.77117  0.59213  1.0000 0.1299937241
H   H128      1.0  0.72883  0.16011  0.09213  1.0000 0.1299937241
H   H129      1.0  0.74814  0.18526  0.31864  1.0000 0.1188555214
H   H130      1.0  0.31474  0.24814  0.81864  1.0000 0.1188555214
H   H131      1.0  0.25186  0.81474  0.31864  1.0000 0.1188555214
H   H132      1.0  0.68526  0.75186  0.81864  1.0000 0.1188555214
H   H133      1.0  0.70266  0.10595  0.27720  1.0000 0.1299937241
H   H134      1.0  0.39405  0.20266  0.77720  1.0000 0.1299937241
H   H135      1.0  0.29734  0.89405  0.27720  1.0000 0.1299937241
H   H136      1.0  0.60595  0.79734  0.77720  1.0000 0.1299937241
H   H137      1.0  0.52686  0.29702  0.32158  1.0000 0.1188555214
H   H138      1.0  0.20298  0.02686  0.82158  1.0000 0.1188555214
H   H139      1.0  0.47314  0.70298  0.32158  1.0000 0.1188555214
H   H140      1.0  0.79702  0.97314  0.82158  1.0000 0.1188555214
H   H141      1.0  0.48369  0.21908  0.27978  1.0000 0.1299937241
H   H142      1.0  0.28092  0.98369  0.77978  1.0000 0.1299937241
H   H143      1.0  0.51631  0.78092  0.27978  1.0000 0.1299937241
H   H144      1.0  0.71908  0.01631  0.77978  1.0000 0.1299937241
C   C1        1.0  0.53410  0.06980  0.01906  1.0000 0.0610321955
C   C2        1.0  0.56980  0.96590  0.51906  1.0000 0.0610321955
C   C3        1.0  0.43020  0.03410  0.51906  1.0000 0.0610321955
C   C4        1.0  0.46590  0.93020  0.01906  1.0000 0.0610321955
C   C5        1.0  0.50000  0.00000  0.03979  1.0000 -0.00136554
C   C6        1.0  0.50000  0.00000  0.53979  1.0000 -0.00136554
C   C7        1.0  0.43100  0.03300  0.06085  1.0000 0.0610321955
C   C8        1.0  0.53300  0.06900  0.56085  1.0000 0.0610321955
C   C9        1.0  0.46700  0.93100  0.56085  1.0000 0.0610321955
C   C10       1.0  0.56900  0.96700  0.06085  1.0000 0.0610321955
C   C11       1.0  0.84970  0.40990  0.85492  1.0000 -0.0215050136
C   C12       1.0  0.90990  0.65030  0.35492  1.0000 -0.0215050136
C   C13       1.0  0.09010  0.34970  0.35492  1.0000 -0.0215050136
C   C14       1.0  0.15030  0.59010  0.85492  1.0000 -0.0215050136
C   C15       1.0  0.60030  0.19330  0.98081  1.0000 0.0610321955
C   C16       1.0  0.69330  0.89970  0.48081  1.0000 0.0610321955
C   C17       1.0  0.30670  0.10030  0.48081  1.0000 0.0610321955
C   C18       1.0  0.39970  0.80670  0.98081  1.0000 0.0610321955
C   C19       1.0  0.63290  0.25700  0.96029  1.0000 0.0985606079
C   C20       1.0  0.75700  0.86710  0.46029  1.0000 0.0985606079
C   C21       1.0  0.24300  0.13290  0.46029  1.0000 0.0985606079
C   C22       1.0  0.36710  0.74300  0.96029  1.0000 0.0985606079
C   C23       1.0  0.30560  0.09810  0.09967  1.0000 0.0610321955
C   C24       1.0  0.59810  0.19440  0.59967  1.0000 0.0610321955
C   C25       1.0  0.40190  0.80560  0.59967  1.0000 0.0610321955
C   C26       1.0  0.69440  0.90190  0.09967  1.0000 0.0610321955
C   C27       1.0  0.34440  0.01650  0.05540  1.0000 -0.1503130029
C   C28       1.0  0.51650  0.15560  0.55540  1.0000 -0.1503130029
C   C29       1.0  0.48350  0.84440  0.55540  1.0000 -0.1503130029
C   C30       1.0  0.65560  0.98350  0.05540  1.0000 -0.1503130029
C   C31       1.0  0.58050  0.04930  0.99435  1.0000 -0.1598786798
C   C32       1.0  0.54930  0.91950  0.49435  1.0000 -0.1598786798
C   C33       1.0  0.45070  0.08050  0.49435  1.0000 -0.1598786798
C   C34       1.0  0.41950  0.95070  0.99435  1.0000 -0.1598786798
C   C35       1.0  0.90600  0.44340  0.83013  1.0000 0.5609591654
C   C36       1.0  0.94340  0.59400  0.33013  1.0000 0.5609591654
C   C37       1.0  0.05660  0.40600  0.33013  1.0000 0.5609591654
C   C38       1.0  0.09400  0.55660  0.83013  1.0000 0.5609591654
C   C39       1.0  0.28360  0.04910  0.07454  1.0000 -0.1276572632
C   C40       1.0  0.54910  0.21640  0.57454  1.0000 -0.1276572632
C   C41       1.0  0.45090  0.78360  0.57454  1.0000 -0.1276572632
C   C42       1.0  0.71640  0.95090  0.07454  1.0000 -0.1276572632
C   C43       1.0  0.69190  0.24890  0.93814  1.0000 -0.1742539057
C   C44       1.0  0.74890  0.80810  0.43814  1.0000 -0.1742539057
C   C45       1.0  0.25110  0.19190  0.43814  1.0000 -0.1742539057
C   C46       1.0  0.30810  0.75110  0.93814  1.0000 -0.1742539057
C   C47       1.0  0.44830  0.08070  0.08609  1.0000 -0.1410471151
C   C48       1.0  0.58070  0.05170  0.58609  1.0000 -0.1410471151
C   C49       1.0  0.41930  0.94830  0.58609  1.0000 -0.1410471151
C   C50       1.0  0.55170  0.91930  0.08609  1.0000 -0.1410471151
C   C51       1.0  0.87580  0.34320  0.87145  1.0000 -0.0811046563
C   C52       1.0  0.84320  0.62420  0.37145  1.0000 -0.0811046563
C   C53       1.0  0.15680  0.37580  0.37145  1.0000 -0.0811046563
C   C54       1.0  0.12420  0.65680  0.87145  1.0000 -0.0811046563
C   C55       1.0  0.38840  0.11150  0.10493  1.0000 -0.1276572632
C   C56       1.0  0.61150  0.11160  0.60493  1.0000 -0.1276572632
C   C57       1.0  0.38850  0.88840  0.60493  1.0000 -0.1276572632
C   C58       1.0  0.61160  0.88850  0.10493  1.0000 -0.1276572632
C   C59       1.0  0.24690  0.18420  0.14292  1.0000 -0.1503130029
C   C60       1.0  0.68420  0.25310  0.64292  1.0000 -0.1503130029
C   C61       1.0  0.31580  0.74690  0.64292  1.0000 -0.1503130029
C   C62       1.0  0.75310  0.81580  0.14292  1.0000 -0.1503130029
C   C63       1.0  0.55240  0.21370  0.00546  1.0000 -0.1182489866
C   C64       1.0  0.71370  0.94760  0.50546  1.0000 -0.1182489866
C   C65       1.0  0.28630  0.05240  0.50546  1.0000 -0.1182489866
C   C66       1.0  0.44760  0.78630  0.00546  1.0000 -0.1182489866
C   C67       1.0  0.61710  0.10940  0.97584  1.0000 -0.1410471151
C   C68       1.0  0.60940  0.88290  0.47584  1.0000 -0.1410471151
C   C69       1.0  0.39060  0.11710  0.47584  1.0000 -0.1410471151
C   C70       1.0  0.38290  0.89060  0.97584  1.0000 -0.1410471151
C   C71       1.0  0.52030  0.15200  0.02397  1.0000 -0.1598786798
C   C72       1.0  0.65200  0.97970  0.52397  1.0000 -0.1598786798
C   C73       1.0  0.34800  0.02030  0.52397  1.0000 -0.1598786798
C   C74       1.0  0.47970  0.84800  0.02397  1.0000 -0.1598786798
C   C75       1.0  0.75000  0.35550  0.90113  1.0000 0.137053974
C   C76       1.0  0.85550  0.75000  0.40113  1.0000 0.137053974
C   C77       1.0  0.14450  0.25000  0.40113  1.0000 0.137053974
C   C78       1.0  0.25000  0.64450  0.90113  1.0000 0.137053974
C   C79       1.0  0.77490  0.45120  0.86144  1.0000 -0.0940286531
C   C80       1.0  0.95120  0.72510  0.36144  1.0000 -0.0940286531
C   C81       1.0  0.04880  0.27490  0.36144  1.0000 -0.0940286531
C   C82       1.0  0.22510  0.54880  0.86144  1.0000 -0.0940286531
C   C83       1.0  0.72610  0.42180  0.88387  1.0000 -0.1598786798
C   C84       1.0  0.92180  0.77390  0.38387  1.0000 -0.1598786798
C   C85       1.0  0.07820  0.22610  0.38387  1.0000 -0.1598786798
C   C86       1.0  0.27390  0.57820  0.88387  1.0000 -0.1598786798
C   C87       1.0  0.82370  0.31580  0.89578  1.0000 -0.1780510234
C   C88       1.0  0.81580  0.67630  0.39578  1.0000 -0.1780510234
C   C89       1.0  0.18420  0.32370  0.39578  1.0000 -0.1780510234
C   C90       1.0  0.17630  0.68420  0.89578  1.0000 -0.1780510234
C   C91       1.0  0.24090  0.13440  0.11919  1.0000 0.0985606079
C   C92       1.0  0.63440  0.25910  0.61919  1.0000 0.0985606079
C   C93       1.0  0.36560  0.74090  0.61919  1.0000 0.0985606079
C   C94       1.0  0.75910  0.86560  0.11919  1.0000 0.0985606079
C   C95       1.0  0.14370  0.25400  0.17706  1.0000 0.1299937241
C   C96       1.0  0.75400  0.35630  0.67706  1.0000 0.1299937241
C   C97       1.0  0.24600  0.64370  0.67706  1.0000 0.1299937241
C   C98       1.0  0.85630  0.74600  0.17706  1.0000 0.1299937241
C   C99       1.0  0.19450  0.30820  0.18895  1.0000 -0.1780510234
C   C100      1.0  0.80820  0.30550  0.68895  1.0000 -0.1780510234
C   C101      1.0  0.19180  0.69450  0.68895  1.0000 -0.1780510234
C   C102      1.0  0.80550  0.69180  0.18895  1.0000 -0.1780510234
C   C103      1.0  0.16640  0.35660  0.21360  1.0000 -0.0736332988
C   C104      1.0  0.85660  0.33360  0.71360  1.0000 -0.0736332988
C   C105      1.0  0.14340  0.66640  0.71360  1.0000 -0.0736332988
C   C106      1.0  0.83360  0.64340  0.21360  1.0000 -0.0736332988
C   C107      1.0  0.06210  0.24160  0.18748  1.0000 -0.1503130029
C   C108      1.0  0.74160  0.43790  0.68748  1.0000 -0.1503130029
C   C109      1.0  0.25840  0.56210  0.68748  1.0000 -0.1503130029
C   C110      1.0  0.93790  0.75840  0.18748  1.0000 -0.1503130029
C   C111      1.0  0.03630  0.28980  0.21204  1.0000 -0.0811046563
C   C112      1.0  0.78980  0.46370  0.71204  1.0000 -0.0811046563
C   C113      1.0  0.21020  0.53630  0.71204  1.0000 -0.0811046563
C   C114      1.0  0.96370  0.71020  0.21204  1.0000 -0.0811046563
C   C115      1.0  0.08570  0.34930  0.22429  1.0000 -0.0362799708
C   C116      1.0  0.84930  0.41430  0.72429  1.0000 -0.0362799708
C   C117      1.0  0.15070  0.58570  0.72429  1.0000 -0.0362799708
C   C118      1.0  0.91430  0.65070  0.22429  1.0000 -0.0362799708
C   C119      1.0  0.05390  0.40590  0.24886  1.0000 0.5791274881
C   C120      1.0  0.90590  0.44610  0.74886  1.0000 0.5791274881
C   C121      1.0  0.09410  0.55390  0.74886  1.0000 0.5791274881
C   C122      1.0  0.94610  0.59410  0.24886  1.0000 0.5791274881
C   C123      1.0  0.03410  0.43020  0.48094  1.0000 0.0610321955
C   C124      1.0  0.06980  0.53410  0.98094  1.0000 0.0610321955
C   C125      1.0  0.96590  0.56980  0.48094  1.0000 0.0610321955
C   C126      1.0  0.93020  0.46590  0.98094  1.0000 0.0610321955
C   C127      1.0  0.00000  0.50000  0.46021  1.0000 -0.00136554
C   C128      1.0  0.00000  0.50000  0.96021  1.0000 -0.00136554
C   C129      1.0  0.93100  0.46700  0.43915  1.0000 0.0610321955
C   C130      1.0  0.03300  0.43100  0.93915  1.0000 0.0610321955
C   C131      1.0  0.06900  0.53300  0.43915  1.0000 0.0610321955
C   C132      1.0  0.96700  0.56900  0.93915  1.0000 0.0610321955
C   C133      1.0  0.34970  0.09010  0.64508  1.0000 -0.0215050136
C   C134      1.0  0.40990  0.84970  0.14508  1.0000 -0.0215050136
C   C135      1.0  0.65030  0.90990  0.64508  1.0000 -0.0215050136
C   C136      1.0  0.59010  0.15030  0.14508  1.0000 -0.0215050136
C   C137      1.0  0.10030  0.30670  0.51919  1.0000 0.0610321955
C   C138      1.0  0.19330  0.60030  0.01919  1.0000 0.0610321955
C   C139      1.0  0.89970  0.69330  0.51919  1.0000 0.0610321955
C   C140      1.0  0.80670  0.39970  0.01919  1.0000 0.0610321955
C   C141      1.0  0.13290  0.24300  0.53971  1.0000 0.0985606079
C   C142      1.0  0.25700  0.63290  0.03971  1.0000 0.0985606079
C   C143      1.0  0.86710  0.75700  0.53971  1.0000 0.0985606079
C   C144      1.0  0.74300  0.36710  0.03971  1.0000 0.0985606079
C   C145      1.0  0.80560  0.40190  0.40033  1.0000 0.0610321955
C   C146      1.0  0.09810  0.30560  0.90033  1.0000 0.0610321955
C   C147      1.0  0.19440  0.59810  0.40033  1.0000 0.0610321955
C   C148      1.0  0.90190  0.69440  0.90033  1.0000 0.0610321955
C   C149      1.0  0.84440  0.48350  0.44460  1.0000 -0.1503130029
C   C150      1.0  0.01650  0.34440  0.94460  1.0000 -0.1503130029
C   C151      1.0  0.15560  0.51650  0.44460  1.0000 -0.1503130029
C   C152      1.0  0.98350  0.65560  0.94460  1.0000 -0.1503130029
C   C153      1.0  0.08050  0.45070  0.50565  1.0000 -0.1598786798
C   C154      1.0  0.04930  0.58050  0.00565  1.0000 -0.1598786798
C   C155      1.0  0.91950  0.54930  0.50565  1.0000 -0.1598786798
C   C156      1.0  0.95070  0.41950  0.00565  1.0000 -0.1598786798
C   C157      1.0  0.40600  0.05660  0.66987  1.0000 0.5609591654
C   C158      1.0  0.44340  0.90600  0.16987  1.0000 0.5609591654
C   C159      1.0  0.59400  0.94340  0.66987  1.0000 0.5609591654
C   C160      1.0  0.55660  0.09400  0.16987  1.0000 0.5609591654
C   C161      1.0  0.78360  0.45090  0.42546  1.0000 -0.1276572632
C   C162      1.0  0.04910  0.28360  0.92546  1.0000 -0.1276572632
C   C163      1.0  0.21640  0.54910  0.42546  1.0000 -0.1276572632
C   C164      1.0  0.95090  0.71640  0.92546  1.0000 -0.1276572632
C   C165      1.0  0.19190  0.25110  0.56186  1.0000 -0.1742539057
C   C166      1.0  0.24890  0.69190  0.06186  1.0000 -0.1742539057
C   C167      1.0  0.80810  0.74890  0.56186  1.0000 -0.1742539057
C   C168      1.0  0.75110  0.30810  0.06186  1.0000 -0.1742539057
C   C169      1.0  0.94830  0.41930  0.41391  1.0000 -0.1410471151
C   C170      1.0  0.08070  0.44830  0.91391  1.0000 -0.1410471151
C   C171      1.0  0.05170  0.58070  0.41391  1.0000 -0.1410471151
C   C172      1.0  0.91930  0.55170  0.91391  1.0000 -0.1410471151
C   C173      1.0  0.37580  0.15680  0.62855  1.0000 -0.0811046563
C   C174      1.0  0.34320  0.87580  0.12855  1.0000 -0.0811046563
C   C175      1.0  0.62420  0.84320  0.62855  1.0000 -0.0811046563
C   C176      1.0  0.65680  0.12420  0.12855  1.0000 -0.0811046563
C   C177      1.0  0.88840  0.38850  0.39507  1.0000 -0.1276572632
C   C178      1.0  0.11150  0.38840  0.89507  1.0000 -0.1276572632
C   C179      1.0  0.11160  0.61150  0.39507  1.0000 -0.1276572632
C   C180      1.0  0.88850  0.61160  0.89507  1.0000 -0.1276572632
C   C181      1.0  0.74690  0.31580  0.35708  1.0000 -0.1503130029
C   C182      1.0  0.18420  0.24690  0.85708  1.0000 -0.1503130029
C   C183      1.0  0.25310  0.68420  0.35708  1.0000 -0.1503130029
C   C184      1.0  0.81580  0.75310  0.85708  1.0000 -0.1503130029
C   C185      1.0  0.05240  0.28630  0.49454  1.0000 -0.1182489866
C   C186      1.0  0.21370  0.55240  0.99454  1.0000 -0.1182489866
C   C187      1.0  0.94760  0.71370  0.49454  1.0000 -0.1182489866
C   C188      1.0  0.78630  0.44760  0.99454  1.0000 -0.1182489866
C   C189      1.0  0.11710  0.39060  0.52416  1.0000 -0.1410471151
C   C190      1.0  0.10940  0.61710  0.02416  1.0000 -0.1410471151
C   C191      1.0  0.88290  0.60940  0.52416  1.0000 -0.1410471151
C   C192      1.0  0.89060  0.38290  0.02416  1.0000 -0.1410471151
C   C193      1.0  0.02030  0.34800  0.47603  1.0000 -0.1598786798
C   C194      1.0  0.15200  0.52030  0.97603  1.0000 -0.1598786798
C   C195      1.0  0.97970  0.65200  0.47603  1.0000 -0.1598786798
C   C196      1.0  0.84800  0.47970  0.97603  1.0000 -0.1598786798
C   C197      1.0  0.25000  0.14450  0.59887  1.0000 0.137053974
C   C198      1.0  0.35550  0.75000  0.09887  1.0000 0.137053974
C   C199      1.0  0.75000  0.85550  0.59887  1.0000 0.137053974
C   C200      1.0  0.64450  0.25000  0.09887  1.0000 0.137053974
C   C201      1.0  0.27490  0.04880  0.63856  1.0000 -0.0940286531
C   C202      1.0  0.45120  0.77490  0.13856  1.0000 -0.0940286531
C   C203      1.0  0.72510  0.95120  0.63856  1.0000 -0.0940286531
C   C204      1.0  0.54880  0.22510  0.13856  1.0000 -0.0940286531
C   C205      1.0  0.22610  0.07820  0.61613  1.0000 -0.1598786798
C   C206      1.0  0.42180  0.72610  0.11613  1.0000 -0.1598786798
C   C207      1.0  0.77390  0.92180  0.61613  1.0000 -0.1598786798
C   C208      1.0  0.57820  0.27390  0.11613  1.0000 -0.1598786798
C   C209      1.0  0.32370  0.18420  0.60422  1.0000 -0.1780510234
C   C210      1.0  0.31580  0.82370  0.10422  1.0000 -0.1780510234
C   C211      1.0  0.67630  0.81580  0.60422  1.0000 -0.1780510234
C   C212      1.0  0.68420  0.17630  0.10422  1.0000 -0.1780510234
C   C213      1.0  0.74090  0.36560  0.38081  1.0000 0.0985606079
C   C214      1.0  0.13440  0.24090  0.88081  1.0000 0.0985606079
C   C215      1.0  0.25910  0.63440  0.38081  1.0000 0.0985606079
C   C216      1.0  0.86560  0.75910  0.88081  1.0000 0.0985606079
C   C217      1.0  0.64370  0.24600  0.32294  1.0000 0.1299937241
C   C218      1.0  0.25400  0.14370  0.82294  1.0000 0.1299937241
C   C219      1.0  0.35630  0.75400  0.32294  1.0000 0.1299937241
C   C220      1.0  0.74600  0.85630  0.82294  1.0000 0.1299937241
C   C221      1.0  0.69450  0.19180  0.31105  1.0000 -0.1780510234
C   C222      1.0  0.30820  0.19450  0.81105  1.0000 -0.1780510234
C   C223      1.0  0.30550  0.80820  0.31105  1.0000 -0.1780510234
C   C224      1.0  0.69180  0.80550  0.81105  1.0000 -0.1780510234
C   C225      1.0  0.66640  0.14340  0.28640  1.0000 -0.0736332988
C   C226      1.0  0.35660  0.16640  0.78640  1.0000 -0.0736332988
C   C227      1.0  0.33360  0.85660  0.28640  1.0000 -0.0736332988
C   C228      1.0  0.64340  0.83360  0.78640  1.0000 -0.0736332988
C   C229      1.0  0.56210  0.25840  0.31252  1.0000 -0.1503130029
C   C230      1.0  0.24160  0.06210  0.81252  1.0000 -0.1503130029
C   C231      1.0  0.43790  0.74160  0.31252  1.0000 -0.1503130029
C   C232      1.0  0.75840  0.93790  0.81252  1.0000 -0.1503130029
C   C233      1.0  0.53630  0.21020  0.28796  1.0000 -0.0811046563
C   C234      1.0  0.28980  0.03630  0.78796  1.0000 -0.0811046563
C   C235      1.0  0.46370  0.78980  0.28796  1.0000 -0.0811046563
C   C236      1.0  0.71020  0.96370  0.78796  1.0000 -0.0811046563
C   C237      1.0  0.58570  0.15070  0.27571  1.0000 -0.0362799708
C   C238      1.0  0.34930  0.08570  0.77571  1.0000 -0.0362799708
C   C239      1.0  0.41430  0.84930  0.27571  1.0000 -0.0362799708
C   C240      1.0  0.65070  0.91430  0.77571  1.0000 -0.0362799708
C   C241      1.0  0.55390  0.09410  0.25114  1.0000 0.5791274881
C   C242      1.0  0.40590  0.05390  0.75114  1.0000 0.5791274881
C   C243      1.0  0.44610  0.90590  0.25114  1.0000 0.5791274881
C   C244      1.0  0.59410  0.94610  0.75114  1.0000 0.5791274881
N   N1        1.0  0.69790  0.32760  0.92569  1.0000 0.1299937241
N   N2        1.0  0.82760  0.80210  0.42569  1.0000 0.1299937241
N   N3        1.0  0.17240  0.19790  0.42569  1.0000 0.1299937241
N   N4        1.0  0.30210  0.67240  0.92569  1.0000 0.1299937241
N   N5        1.0  0.17240  0.19890  0.15228  1.0000 0.1508317565
N   N6        1.0  0.69890  0.32760  0.65228  1.0000 0.1508317565
N   N7        1.0  0.30110  0.67240  0.65228  1.0000 0.1508317565
N   N8        1.0  0.82760  0.80110  0.15228  1.0000 0.1508317565
N   N9        1.0  0.60610  0.33890  0.96085  1.0000 -0.2179449355
N   N10       1.0  0.83890  0.89390  0.46085  1.0000 -0.2179449355
N   N11       1.0  0.16110  0.10610  0.46085  1.0000 -0.2179449355
N   N12       1.0  0.39390  0.66110  0.96085  1.0000 -0.2179449355
N   N13       1.0  0.64510  0.38220  0.93961  1.0000 -0.1061897777
N   N14       1.0  0.88220  0.85490  0.43961  1.0000 -0.1061897777
N   N15       1.0  0.11780  0.14510  0.43961  1.0000 -0.1061897777
N   N16       1.0  0.35490  0.61780  0.93961  1.0000 -0.1061897777
N   N17       1.0  0.16180  0.12370  0.11420  1.0000 -0.1936494657
N   N18       1.0  0.62370  0.33820  0.61420  1.0000 -0.1936494657
N   N19       1.0  0.37630  0.66180  0.61420  1.0000 -0.1936494657
N   N20       1.0  0.83820  0.87630  0.11420  1.0000 -0.1936494657
N   N21       1.0  0.11820  0.16040  0.13540  1.0000 -0.1023097751
N   N22       1.0  0.66040  0.38180  0.63540  1.0000 -0.1023097751
N   N23       1.0  0.33960  0.61820  0.63540  1.0000 -0.1023097751
N   N24       1.0  0.88180  0.83960  0.13540  1.0000 -0.1023097751
N   N25       1.0  0.19790  0.17240  0.57431  1.0000 0.1299937241
N   N26       1.0  0.32760  0.69790  0.07431  1.0000 0.1299937241
N   N27       1.0  0.80210  0.82760  0.57431  1.0000 0.1299937241
N   N28       1.0  0.67240  0.30210  0.07431  1.0000 0.1299937241
N   N29       1.0  0.67240  0.30110  0.34772  1.0000 0.1508317565
N   N30       1.0  0.19890  0.17240  0.84772  1.0000 0.1508317565
N   N31       1.0  0.32760  0.69890  0.34772  1.0000 0.1508317565
N   N32       1.0  0.80110  0.82760  0.84772  1.0000 0.1508317565
N   N33       1.0  0.10610  0.16110  0.53915  1.0000 -0.2179449355
N   N34       1.0  0.33890  0.60610  0.03915  1.0000 -0.2179449355
N   N35       1.0  0.89390  0.83890  0.53915  1.0000 -0.2179449355
N   N36       1.0  0.66110  0.39390  0.03915  1.0000 -0.2179449355
N   N37       1.0  0.14510  0.11780  0.56039  1.0000 -0.1061897777
N   N38       1.0  0.38220  0.64510  0.06039  1.0000 -0.1061897777
N   N39       1.0  0.85490  0.88220  0.56039  1.0000 -0.1061897777
N   N40       1.0  0.61780  0.35490  0.06039  1.0000 -0.1061897777
N   N41       1.0  0.66180  0.37630  0.38580  1.0000 -0.1936494657
N   N42       1.0  0.12370  0.16180  0.88580  1.0000 -0.1936494657
N   N43       1.0  0.33820  0.62370  0.38580  1.0000 -0.1936494657
N   N44       1.0  0.87630  0.83820  0.88580  1.0000 -0.1936494657
N   N45       1.0  0.61820  0.33960  0.36460  1.0000 -0.1023097751
N   N46       1.0  0.16040  0.11820  0.86460  1.0000 -0.1023097751
N   N47       1.0  0.38180  0.66040  0.36460  1.0000 -0.1023097751
N   N48       1.0  0.83960  0.88180  0.86460  1.0000 -0.1023097751
O   O1        1.0  0.88970  0.51440  0.81959  1.0000 -0.5191680062
O   O2        1.0  0.01440  0.61030  0.31959  1.0000 -0.5191680062
O   O3        1.0  0.98560  0.38970  0.31959  1.0000 -0.5191680062
O   O4        1.0  0.11030  0.48560  0.81959  1.0000 -0.5191680062
O   O5        1.0  0.96660  0.39830  0.82260  1.0000 -0.5103015394
O   O6        1.0  0.89830  0.53340  0.32260  1.0000 -0.5103015394
O   O7        1.0  0.10170  0.46660  0.32260  1.0000 -0.5103015394
O   O8        1.0  0.03340  0.60170  0.82260  1.0000 -0.5103015394
O   O9        1.0  0.98000  0.39440  0.25694  1.0000 -0.5191680062
O   O10       1.0  0.89440  0.52000  0.75694  1.0000 -0.5191680062
O   O11       1.0  0.10560  0.48000  0.75694  1.0000 -0.5191680062
O   O12       1.0  0.02000  0.60560  0.25694  1.0000 -0.5191680062
O   O13       1.0  0.10520  0.45790  0.25959  1.0000 -0.5191680062
O   O14       1.0  0.95790  0.39480  0.75959  1.0000 -0.5191680062
O   O15       1.0  0.04210  0.60520  0.75959  1.0000 -0.5191680062
O   O16       1.0  0.89480  0.54210  0.25959  1.0000 -0.5191680062
O   O17       1.0  0.38970  0.98560  0.68041  1.0000 -0.5191680062
O   O18       1.0  0.51440  0.88970  0.18041  1.0000 -0.5191680062
O   O19       1.0  0.61030  0.01440  0.68041  1.0000 -0.5191680062
O   O20       1.0  0.48560  0.11030  0.18041  1.0000 -0.5191680062
O   O21       1.0  0.46660  0.10170  0.67740  1.0000 -0.5103015394
O   O22       1.0  0.39830  0.96660  0.17740  1.0000 -0.5103015394
O   O23       1.0  0.53340  0.89830  0.67740  1.0000 -0.5103015394
O   O24       1.0  0.60170  0.03340  0.17740  1.0000 -0.5103015394
O   O25       1.0  0.48000  0.10560  0.24306  1.0000 -0.5191680062
O   O26       1.0  0.39440  0.98000  0.74306  1.0000 -0.5191680062
O   O27       1.0  0.52000  0.89440  0.24306  1.0000 -0.5191680062
O   O28       1.0  0.60560  0.02000  0.74306  1.0000 -0.5103015394
O   O29       1.0  0.60520  0.04210  0.24041  1.0000 -0.5191680062
O   O30       1.0  0.45790  0.10520  0.74041  1.0000 -0.5191680062
O   O31       1.0  0.39480  0.95790  0.24041  1.0000 -0.5191680062
O   O32       1.0  0.54210  0.89480  0.74041  1.0000 -0.5191680062
