# DDEC6 charges by PACMAN v1.1 (https://github.com/mtap-research/PACMAN-charge/)
data_2017[Ni][sqc]3[ASR]2
_chemical_formula_sum              "Ni8 H136 C232 N24 O40"
_cell_length_a       20.0609
_cell_length_b       20.0609
_cell_length_c       20.0609
_cell_angle_alpha    121.506
_cell_angle_beta     108.196
_cell_angle_gamma    99.5052

_symmetry_space_group_name_H-M    "P 1"
_symmetry_Int_Tables_number       1

loop_
  _symmetry_equiv_pos_as_xyz
  'x, y, z'

loop_
  _atom_site_type_symbol
  _atom_site_label
  _atom_site_symmetry_multiplicity
  _atom_site_fract_x
  _atom_site_fract_y
  _atom_site_fract_z
  _atom_site_occupancy
  _atom_site_charge
Ni  Ni1       1.0  0.36504  0.88408  0.84856  1.0000 0.697681634
Ni  Ni2       1.0  0.96448  0.61592  0.98096  1.0000 0.697681634
Ni  Ni3       1.0  0.46448  0.48352  0.34856  1.0000 0.697681634
Ni  Ni4       1.0  0.86504  0.01648  0.48096  1.0000 0.697681634
Ni  Ni5       1.0  0.53552  0.51648  0.65144  1.0000 0.697681634
Ni  Ni6       1.0  0.13496  0.98352  0.51904  1.0000 0.697681634
Ni  Ni7       1.0  0.63496  0.11592  0.15144  1.0000 0.697681634
Ni  Ni8       1.0  0.03552  0.38408  0.01904  1.0000 0.697681634
H   H1        1.0  0.76140  0.83200  0.38680  1.0000 0.1108029841
H   H2        1.0  0.55480  0.66800  0.42940  1.0000 0.1108029841
H   H3        1.0  0.05480  0.62540  0.88680  1.0000 0.1108029841
H   H4        1.0  0.26140  0.87460  0.92940  1.0000 0.1108029841
H   H5        1.0  0.64440  0.72900  0.26600  1.0000 0.1315073491
H   H6        1.0  0.53700  0.77100  0.41540  1.0000 0.1315073491
H   H7        1.0  0.03700  0.62160  0.76600  1.0000 0.1315073491
H   H8        1.0  0.14440  0.87840  0.91540  1.0000 0.1315073491
H   H9        1.0  0.59130  0.91580  0.26990  1.0000 0.1407005311
H   H10       1.0  0.35410  0.58420  0.17550  1.0000 0.1407005311
H   H11       1.0  0.85410  0.67860  0.76990  1.0000 0.1407005311
H   H12       1.0  0.09130  0.82140  0.67550  1.0000 0.1407005311
H   H13       1.0  0.70920  0.01310  0.39170  1.0000 0.1202130964
H   H14       1.0  0.37860  0.48690  0.19610  1.0000 0.1202130964
H   H15       1.0  0.87860  0.68250  0.89170  1.0000 0.1202130964
H   H16       1.0  0.20920  0.81750  0.69610  1.0000 0.1202130964
H   H17       1.0  0.51840  0.64530  0.17190  1.0000 0.1202130964
H   H18       1.0  0.52660  0.85470  0.37310  1.0000 0.1202130964
H   H19       1.0  0.02660  0.65350  0.67190  1.0000 0.1202130964
H   H20       1.0  0.01840  0.84650  0.87310  1.0000 0.1202130964
H   H21       1.0  0.36130  0.59110  0.94680  1.0000 0.1315073491
H   H22       1.0  0.35570  0.90890  0.27020  1.0000 0.1315073491
H   H23       1.0  0.85570  0.58550  0.44680  1.0000 0.1315073491
H   H24       1.0  0.86130  0.91450  0.77020  1.0000 0.1315073491
H   H25       1.0  0.36150  0.63900  0.86390  1.0000 0.1315073491
H   H26       1.0  0.22490  0.86100  0.22250  1.0000 0.1315073491
H   H27       1.0  0.72490  0.50240  0.36390  1.0000 0.1315073491
H   H28       1.0  0.86150  0.99760  0.72250  1.0000 0.1315073491
H   H29       1.0  0.33180  0.70120  0.79520  1.0000 0.1202130964
H   H30       1.0  0.09400  0.79880  0.13060  1.0000 0.1202130964
H   H31       1.0  0.59400  0.46340  0.29520  1.0000 0.1202130964
H   H32       1.0  0.83180  0.03660  0.63060  1.0000 0.1202130964
H   H33       1.0  0.43700  0.92830  0.02450  1.0000 0.1315073491
H   H34       1.0  0.09620  0.57170  0.00870  1.0000 0.1315073491
H   H35       1.0  0.59620  0.58750  0.52450  1.0000 0.1315073491
H   H36       1.0  0.93700  0.91250  0.50870  1.0000 0.1315073491
H   H37       1.0  0.46900  0.87250  0.09810  1.0000 0.1407005311
H   H38       1.0  0.22560  0.62750  0.09650  1.0000 0.1407005311
H   H39       1.0  0.72560  0.62910  0.59810  1.0000 0.1407005311
H   H40       1.0  0.96900  0.87090  0.59650  1.0000 0.1407005311
H   H41       1.0  0.29150  0.47710  0.93220  1.0000 0.1202130964
H   H42       1.0  0.45510  0.02290  0.31440  1.0000 0.1202130964
H   H43       1.0  0.95510  0.64070  0.43220  1.0000 0.1202130964
H   H44       1.0  0.79150  0.85930  0.81440  1.0000 0.1202130964
H   H45       1.0  0.24530  0.33340  0.87150  1.0000 0.1478135718
H   H46       1.0  0.53810  0.16660  0.41190  1.0000 0.1478135718
H   H47       1.0  0.03810  0.62620  0.37150  1.0000 0.1478135718
H   H48       1.0  0.74530  0.87380  0.91190  1.0000 0.1478135718
H   H49       1.0  0.45590  0.36740  0.01950  1.0000 0.1202130964
H   H50       1.0  0.65210  0.13260  0.58850  1.0000 0.1202130964
H   H51       1.0  0.15210  0.56360  0.51950  1.0000 0.1202130964
H   H52       1.0  0.95590  0.93640  0.08850  1.0000 0.1202130964
H   H53       1.0  0.50070  0.51140  0.08430  1.0000 0.1108029841
H   H54       1.0  0.57290  0.98860  0.48930  1.0000 0.1108029841
H   H55       1.0  0.07290  0.58360  0.58430  1.0000 0.1108029841
H   H56       1.0  0.00070  0.91640  0.98930  1.0000 0.1108029841
H   H57       1.0  0.35780  0.32870  0.06690  1.0000 0.1315073491
H   H58       1.0  0.73820  0.17130  0.52910  1.0000 0.1315073491
H   H59       1.0  0.23820  0.70910  0.56690  1.0000 0.1315073491
H   H60       1.0  0.85780  0.79090  0.02910  1.0000 0.1315073491
H   H61       1.0  0.40590  0.14830  0.08300  1.0000 0.1315073491
H   H62       1.0  0.93470  0.35170  0.75760  1.0000 0.1315073491
H   H63       1.0  0.43470  0.67710  0.58300  1.0000 0.1315073491
H   H64       1.0  0.90590  0.82290  0.25760  1.0000 0.1315073491
H   H65       1.0  0.33450  0.11210  0.84940  1.0000 0.1407005311
H   H66       1.0  0.73730  0.38790  0.72240  1.0000 0.1407005311
H   H67       1.0  0.23730  0.51490  0.34940  1.0000 0.1407005311
H   H68       1.0  0.83450  0.98510  0.22240  1.0000 0.1407005311
H   H69       1.0  0.94520  0.37460  0.11320  1.0000 0.1108029841
H   H70       1.0  0.73860  0.12540  0.07060  1.0000 0.1108029841
H   H71       1.0  0.23860  0.16800  0.61320  1.0000 0.1108029841
H   H72       1.0  0.44520  0.33200  0.57060  1.0000 0.1108029841
H   H73       1.0  0.96300  0.37840  0.23400  1.0000 0.1315073491
H   H74       1.0  0.85560  0.12160  0.08460  1.0000 0.1315073491
H   H75       1.0  0.35560  0.27100  0.73400  1.0000 0.1315073491
H   H76       1.0  0.46300  0.22900  0.58460  1.0000 0.1315073491
H   H77       1.0  0.14590  0.32140  0.23010  1.0000 0.1407005311
H   H78       1.0  0.90870  0.17860  0.32450  1.0000 0.1407005311
H   H79       1.0  0.40870  0.08420  0.73010  1.0000 0.1407005311
H   H80       1.0  0.64590  0.41580  0.82450  1.0000 0.1407005311
H   H81       1.0  0.12140  0.31750  0.10830  1.0000 0.1202130964
H   H82       1.0  0.79080  0.18250  0.30390  1.0000 0.1202130964
H   H83       1.0  0.29080  0.98690  0.60830  1.0000 0.1202130964
H   H84       1.0  0.62140  0.51310  0.80390  1.0000 0.1202130964
H   H85       1.0  0.97340  0.34650  0.32810  1.0000 0.1202130964
H   H86       1.0  0.98160  0.15350  0.12690  1.0000 0.1202130964
H   H87       1.0  0.48160  0.35470  0.82810  1.0000 0.1202130964
H   H88       1.0  0.47340  0.14530  0.62690  1.0000 0.1202130964
H   H89       1.0  0.14430  0.41450  0.55320  1.0000 0.1315073491
H   H90       1.0  0.13870  0.08550  0.22980  1.0000 0.1315073491
H   H91       1.0  0.63870  0.40890  0.05320  1.0000 0.1315073491
H   H92       1.0  0.64430  0.09110  0.72980  1.0000 0.1315073491
H   H93       1.0  0.27510  0.49760  0.63610  1.0000 0.1315073491
H   H94       1.0  0.13850  0.00240  0.27750  1.0000 0.1315073491
H   H95       1.0  0.63850  0.36100  0.13610  1.0000 0.1315073491
H   H96       1.0  0.77510  0.13900  0.77750  1.0000 0.1315073491
H   H97       1.0  0.40600  0.53660  0.70480  1.0000 0.1202130964
H   H98       1.0  0.16820  0.96340  0.36940  1.0000 0.1202130964
H   H99       1.0  0.66820  0.29880  0.20480  1.0000 0.1202130964
H   H100      1.0  0.90600  0.20120  0.86940  1.0000 0.1202130964
H   H101      1.0  0.40380  0.41250  0.47550  1.0000 0.1315073491
H   H102      1.0  0.06300  0.08750  0.49130  1.0000 0.1315073491
H   H103      1.0  0.56300  0.07170  0.97550  1.0000 0.1315073491
H   H104      1.0  0.90380  0.42830  0.99130  1.0000 0.1315073491
H   H105      1.0  0.27440  0.37090  0.40190  1.0000 0.1407005311
H   H106      1.0  0.03100  0.12910  0.40350  1.0000 0.1407005311
H   H107      1.0  0.53100  0.12750  0.90190  1.0000 0.1407005311
H   H108      1.0  0.77440  0.37250  0.90350  1.0000 0.1407005311
H   H109      1.0  0.04490  0.35930  0.56780  1.0000 0.1202130964
H   H110      1.0  0.20850  0.14070  0.18560  1.0000 0.1202130964
H   H111      1.0  0.70850  0.52290  0.06780  1.0000 0.1202130964
H   H112      1.0  0.54490  0.97710  0.68560  1.0000 0.1202130964
H   H113      1.0  0.96190  0.37380  0.62850  1.0000 0.1478135718
H   H114      1.0  0.25470  0.12620  0.08810  1.0000 0.1478135718
H   H115      1.0  0.75470  0.66667  0.12850  1.0000 0.1478135718
H   H116      1.0  0.46190  0.83340  0.58810  1.0000 0.1478135718
H   H117      1.0  0.84790  0.43640  0.48050  1.0000 0.1202130964
H   H118      1.0  0.04410  0.06360  0.91150  1.0000 0.1202130964
H   H119      1.0  0.54410  0.63260  0.98050  1.0000 0.1202130964
H   H120      1.0  0.34790  0.86740  0.41150  1.0000 0.1202130964
H   H121      1.0  0.92710  0.41640  0.41570  1.0000 0.1108029841
H   H122      1.0  0.99930  0.08360  0.01070  1.0000 0.1108029841
H   H123      1.0  0.49930  0.48860  0.91570  1.0000 0.1108029841
H   H124      1.0  0.42710  0.01140  0.51070  1.0000 0.1108029841
H   H125      1.0  0.76180  0.29090  0.43310  1.0000 0.1315073491
H   H126      1.0  0.14220  0.20910  0.97090  1.0000 0.1315073491
H   H127      1.0  0.64220  0.67130  0.93310  1.0000 0.1315073491
H   H128      1.0  0.26180  0.82870  0.47090  1.0000 0.1315073491
H   H129      1.0  0.56530  0.32290  0.41700  1.0000 0.1315073491
H   H130      1.0  0.09410  0.17710  0.74240  1.0000 0.1315073491
H   H131      1.0  0.59410  0.85170  0.91700  1.0000 0.1315073491
H   H132      1.0  0.06530  0.64830  0.24240  1.0000 0.1315073491
H   H133      1.0  0.76270  0.48510  0.65060  1.0000 0.1407005311
H   H134      1.0  0.16550  0.01490  0.77760  1.0000 0.1407005311
H   H135      1.0  0.66550  0.88790  0.15060  1.0000 0.1407005311
H   H136      1.0  0.26270  0.61210  0.27760  1.0000 0.1407005311
C   C1        1.0  0.72652  0.84928  0.36194  1.0000 0.0801114653
C   C2        1.0  0.51266  0.65072  0.37724  1.0000 0.0801114653
C   C3        1.0  0.01266  0.63542  0.86194  1.0000 0.0801114653
C   C4        1.0  0.22652  0.86458  0.87724  1.0000 0.0801114653
C   C5        1.0  0.65684  0.78730  0.28966  1.0000 -0.1938761953
C   C6        1.0  0.50236  0.71270  0.36954  1.0000 -0.1938761953
C   C7        1.0  0.00236  0.63282  0.78966  1.0000 -0.1938761953
C   C8        1.0  0.15684  0.86718  0.86954  1.0000 -0.1938761953
C   C9        1.0  0.60452  0.80997  0.25121  1.0000 0.0870215318
C   C10       1.0  0.44124  0.69003  0.29455  1.0000 0.0870215318
C   C11       1.0  0.94124  0.64669  0.75121  1.0000 0.0870215318
C   C12       1.0  0.10452  0.85331  0.79455  1.0000 0.0870215318
C   C13       1.0  0.62572  0.89649  0.29211  1.0000 -0.1794057803
C   C14       1.0  0.39562  0.60351  0.22923  1.0000 -0.1794057803
C   C15       1.0  0.89562  0.66639  0.79211  1.0000 -0.1794057803
C   C16       1.0  0.12572  0.83361  0.72923  1.0000 -0.1794057803
C   C17       1.0  0.69640  0.95415  0.36463  1.0000 0.0964279754
C   C18       1.0  0.41048  0.54585  0.24225  1.0000 0.0964279754
C   C19       1.0  0.91048  0.66823  0.86463  1.0000 0.0964279754
C   C20       1.0  0.19640  0.83177  0.74225  1.0000 0.0964279754
C   C21       1.0  0.53188  0.74516  0.16690  1.0000 0.204851168
C   C22       1.0  0.42174  0.75484  0.28672  1.0000 0.204851168
C   C23       1.0  0.92174  0.63502  0.66690  1.0000 0.2056884153
C   C24       1.0  0.03188  0.86498  0.78672  1.0000 0.204851168
C   C25       1.0  0.49772  0.66154  0.13596  1.0000 -0.2328443041
C   C26       1.0  0.47442  0.83846  0.33618  1.0000 -0.2328443041
C   C27       1.0  0.97442  0.63824  0.63596  1.0000 -0.2328443041
C   C28       1.0  0.99772  0.86176  0.83618  1.0000 -0.2328443041
C   C29       1.0  0.43372  0.60178  0.05306  1.0000 0.1202130964
C   C30       1.0  0.45128  0.89822  0.33194  1.0000 0.1202130964
C   C31       1.0  0.95128  0.61934  0.55306  1.0000 0.1202130964
C   C32       1.0  0.93372  0.88066  0.83194  1.0000 0.1202130964
C   C33       1.0  0.40520  0.62952  0.00386  1.0000 -0.2426148371
C   C34       1.0  0.37434  0.87048  0.27568  1.0000 -0.2426148371
C   C35       1.0  0.87434  0.59866  0.50386  1.0000 -0.2426148371
C   C36       1.0  0.90520  0.90134  0.77568  1.0000 -0.2426148371
C   C37       1.0  0.44193  0.71448  0.03953  1.0000 0.2158018334
C   C38       1.0  0.32505  0.78552  0.22745  1.0000 0.2158018334
C   C39       1.0  0.82505  0.59760  0.53953  1.0000 0.2158018334
C   C40       1.0  0.94193  0.90240  0.72745  1.0000 0.2158018334
C   C41       1.0  0.41761  0.74860  0.98959  1.0000 0.0801114653
C   C42       1.0  0.24099  0.75140  0.16901  1.0000 0.0801114653
C   C43       1.0  0.74099  0.57198  0.48959  1.0000 0.0801114653
C   C44       1.0  0.91761  0.92802  0.66901  1.0000 0.0801114653
C   C45       1.0  0.37759  0.69932  0.89893  1.0000 -0.1984121205
C   C46       1.0  0.19961  0.80068  0.17827  1.0000 -0.1984121205
C   C47       1.0  0.69961  0.52134  0.39893  1.0000 -0.1984121205
C   C48       1.0  0.87759  0.97866  0.67827  1.0000 -0.1984121205
C   C49       1.0  0.36044  0.73707  0.85815  1.0000 0.0870215318
C   C50       1.0  0.12108  0.76293  0.12337  1.0000 0.0870215318
C   C51       1.0  0.62108  0.49771  0.35815  1.0000 0.0870215318
C   C52       1.0  0.86044  0.00229  0.62337  1.0000 0.0870215318
C   C53       1.0  0.42126  0.86813  0.99067  1.0000 0.0801114653
C   C54       1.0  0.12254  0.63187  0.05313  1.0000 0.0801114653
C   C55       1.0  0.62254  0.56941  0.49067  1.0000 0.0801114653
C   C56       1.0  0.92126  0.93059  0.55313  1.0000 0.0801114653
C   C57       1.0  0.44014  0.83521  0.03519  1.0000 -0.1647980621
C   C58       1.0  0.19998  0.66479  0.10493  1.0000 -0.1647980621
C   C59       1.0  0.69998  0.59505  0.53519  1.0000 -0.1647980621
C   C60       1.0  0.94014  0.90495  0.60493  1.0000 -0.1647980621
C   C61       1.0  0.40151  0.51044  0.01543  1.0000 0.0419167143
C   C62       1.0  0.50499  0.98956  0.39107  1.0000 0.0419167143
C   C63       1.0  0.00499  0.61392  0.51543  1.0000 0.0419167143
C   C64       1.0  0.90151  0.88608  0.89107  1.0000 0.0419167143
C   C65       1.0  0.32517  0.45532  0.95109  1.0000 -0.1295135205
C   C66       1.0  0.49577  0.04468  0.36985  1.0000 -0.1295135205
C   C67       1.0  0.99577  0.62592  0.45109  1.0000 -0.1295135205
C   C68       1.0  0.82517  0.87408  0.86985  1.0000 -0.1295135205
C   C69       1.0  0.29770  0.36979  0.91449  1.0000 -0.1794057803
C   C70       1.0  0.54470  0.13021  0.42791  1.0000 -0.1794057803
C   C71       1.0  0.04470  0.61679  0.41449  1.0000 -0.1794057803
C   C72       1.0  0.79770  0.88321  0.92791  1.0000 -0.1794057803
C   C73       1.0  0.34635  0.33738  0.94039  1.0000 0.2407429537
C   C74       1.0  0.60301  0.16262  0.50897  1.0000 0.2407429537
C   C75       1.0  0.10301  0.59404  0.44039  1.0000 0.2407429537
C   C76       1.0  0.84635  0.90596  0.00897  1.0000 0.2407429537
C   C77       1.0  0.42207  0.39007  0.00262  1.0000 -0.2108490889
C   C78       1.0  0.61255  0.10993  0.53200  1.0000 -0.2108490889
C   C79       1.0  0.11255  0.58055  0.50262  1.0000 -0.2108490889
C   C80       1.0  0.92207  0.91945  0.03200  1.0000 -0.2108490889
C   C81       1.0  0.44864  0.47535  0.04017  1.0000 -0.1295135205
C   C82       1.0  0.56482  0.02465  0.47329  1.0000 -0.1295135205
C   C83       1.0  0.06482  0.59153  0.54017  1.0000 -0.1295135205
C   C84       1.0  0.94864  0.90847  0.97329  1.0000 -0.1295135205
C   C85       1.0  0.34340  0.22494  0.95124  1.0000 0.2407429537
C   C86       1.0  0.72630  0.27506  0.61846  1.0000 0.2407429537
C   C87       1.0  0.22630  0.60784  0.45124  1.0000 0.2407429537
C   C88       1.0  0.84340  0.89216  0.11846  1.0000 0.2407429537
C   C89       1.0  0.36219  0.27536  0.04017  1.0000 -0.2328443041
C   C90       1.0  0.76481  0.22464  0.58683  1.0000 -0.2328443041
C   C91       1.0  0.26481  0.67798  0.54017  1.0000 -0.2328443041
C   C92       1.0  0.86219  0.82202  0.08683  1.0000 -0.2328443041
C   C93       1.0  0.38725  0.24798  0.08987  1.0000 0.0024713352
C   C94       1.0  0.84189  0.25202  0.63927  1.0000 -0.0006119635
C   C95       1.0  0.34189  0.70262  0.58987  1.0000 -0.0006119635
C   C96       1.0  0.88725  0.79738  0.13927  1.0000 -0.0006119635
C   C97       1.0  0.39018  0.16815  0.04933  1.0000 -0.1295135205
C   C98       1.0  0.88118  0.33185  0.72203  1.0000 -0.1295135205
C   C99       1.0  0.38118  0.65915  0.54933  1.0000 -0.1295135205
C   C100      1.0  0.89018  0.84085  0.22203  1.0000 -0.1295135205
C   C101      1.0  0.37038  0.11751  0.96033  1.0000 0.0024713352
C   C102      1.0  0.84282  0.38249  0.75287  1.0000 0.0024713352
C   C103      1.0  0.34282  0.58995  0.46033  1.0000 0.0024713352
C   C104      1.0  0.87038  0.91005  0.25287  1.0000 0.0024713352
C   C105      1.0  0.34728  0.14618  0.91038  1.0000 -0.2108490889
C   C106      1.0  0.76420  0.35382  0.70110  1.0000 -0.2108490889
C   C107      1.0  0.26420  0.56310  0.41038  1.0000 -0.2108490889
C   C108      1.0  0.84728  0.93690  0.20110  1.0000 -0.2108490889
C   C109      1.0  0.41140  0.30549  0.18707  1.0000 0.5571729823
C   C110      1.0  0.88158  0.19451  0.60591  1.0000 0.5571729823
C   C111      1.0  0.38158  0.77567  0.68707  1.0000 0.5571729823
C   C112      1.0  0.91140  0.72433  0.10591  1.0000 0.5571729823
C   C113      1.0  0.37155  0.03060  0.91691  1.0000 0.5239318891
C   C114      1.0  0.88631  0.46940  0.84095  1.0000 0.5239318891
C   C115      1.0  0.38631  0.54536  0.41691  1.0000 0.5239318891
C   C116      1.0  0.87155  0.95464  0.34095  1.0000 0.5239318891
C   C117      1.0  0.98734  0.36458  0.13806  1.0000 0.0801114653
C   C118      1.0  0.77348  0.13542  0.12276  1.0000 0.0801114653
C   C119      1.0  0.27348  0.15072  0.63806  1.0000 0.0801114653
C   C120      1.0  0.48734  0.34928  0.62276  1.0000 0.0801114653
C   C121      1.0  0.99764  0.36718  0.21034  1.0000 -0.1938761953
C   C122      1.0  0.84316  0.13282  0.13046  1.0000 -0.1938761953
C   C123      1.0  0.34316  0.21270  0.71034  1.0000 -0.1938761953
C   C124      1.0  0.49764  0.28730  0.63046  1.0000 -0.1938761953
C   C125      1.0  0.05876  0.35331  0.24879  1.0000 0.0870215318
C   C126      1.0  0.89548  0.14669  0.20545  1.0000 0.0870215318
C   C127      1.0  0.39548  0.19003  0.74879  1.0000 0.0870215318
C   C128      1.0  0.55876  0.30997  0.70545  1.0000 0.0870215318
C   C129      1.0  0.10438  0.33361  0.20789  1.0000 -0.1794057803
C   C130      1.0  0.87428  0.16639  0.27077  1.0000 -0.1794057803
C   C131      1.0  0.37428  0.10351  0.70789  1.0000 -0.1794057803
C   C132      1.0  0.60438  0.39649  0.77077  1.0000 -0.1794057803
C   C133      1.0  0.08952  0.33177  0.13537  1.0000 0.0964279754
C   C134      1.0  0.80360  0.16823  0.25775  1.0000 0.0964279754
C   C135      1.0  0.30360  0.04585  0.63537  1.0000 0.0964279754
C   C136      1.0  0.58952  0.45415  0.75775  1.0000 0.0964279754
C   C137      1.0  0.07826  0.36498  0.33310  1.0000 0.204851168
C   C138      1.0  0.96812  0.13502  0.21328  1.0000 0.204851168
C   C139      1.0  0.46812  0.25484  0.83310  1.0000 0.204851168
C   C140      1.0  0.57826  0.24516  0.71328  1.0000 0.204851168
C   C141      1.0  0.02558  0.36176  0.36404  1.0000 -0.2328443041
C   C142      1.0  0.00228  0.13824  0.16382  1.0000 -0.2328443041
C   C143      1.0  0.50228  0.33846  0.86404  1.0000 -0.2328443041
C   C144      1.0  0.52558  0.16154  0.66382  1.0000 -0.2328443041
C   C145      1.0  0.04872  0.38066  0.44694  1.0000 0.1202130964
C   C146      1.0  0.06628  0.11934  0.16806  1.0000 0.1202130964
C   C147      1.0  0.56628  0.39822  0.94694  1.0000 0.1202130964
C   C148      1.0  0.54872  0.10178  0.66806  1.0000 0.1202130964
C   C149      1.0  0.12566  0.40134  0.49614  1.0000 -0.2426148371
C   C150      1.0  0.09480  0.09866  0.22432  1.0000 -0.2426148371
C   C151      1.0  0.59480  0.37048  0.99614  1.0000 -0.2426148371
C   C152      1.0  0.62566  0.12952  0.72432  1.0000 -0.2426148371
C   C153      1.0  0.17495  0.40240  0.46047  1.0000 0.2158018334
C   C154      1.0  0.05807  0.09760  0.27255  1.0000 0.2158018334
C   C155      1.0  0.55807  0.28552  0.96047  1.0000 0.2158018334
C   C156      1.0  0.67495  0.21448  0.77255  1.0000 0.2158018334
C   C157      1.0  0.25901  0.42802  0.51041  1.0000 0.0801114653
C   C158      1.0  0.08239  0.07198  0.33099  1.0000 0.0801114653
C   C159      1.0  0.58239  0.25140  0.01041  1.0000 0.0801114653
C   C160      1.0  0.75901  0.24860  0.83099  1.0000 0.0801114653
C   C161      1.0  0.30039  0.47866  0.60107  1.0000 -0.1984121205
C   C162      1.0  0.12241  0.02134  0.32173  1.0000 -0.1938761953
C   C163      1.0  0.62241  0.30068  0.10107  1.0000 -0.1984121205
C   C164      1.0  0.80039  0.19932  0.82173  1.0000 -0.1984121205
C   C165      1.0  0.37892  0.50229  0.64185  1.0000 0.0870215318
C   C166      1.0  0.13956  0.99771  0.37663  1.0000 0.0870215318
C   C167      1.0  0.63956  0.26293  0.14185  1.0000 0.0870215318
C   C168      1.0  0.87892  0.23707  0.87663  1.0000 0.0870215318
C   C169      1.0  0.37746  0.43059  0.50933  1.0000 0.0801114653
C   C170      1.0  0.07874  0.06941  0.44687  1.0000 0.0801114653
C   C171      1.0  0.57874  0.13187  0.00933  1.0000 0.0801114653
C   C172      1.0  0.87746  0.36813  0.94687  1.0000 0.0801114653
C   C173      1.0  0.30002  0.40495  0.46481  1.0000 -0.1647980621
C   C174      1.0  0.05986  0.09505  0.39507  1.0000 -0.1647980621
C   C175      1.0  0.55986  0.16479  0.96481  1.0000 -0.1647980621
C   C176      1.0  0.80002  0.33521  0.89507  1.0000 -0.1647980621
C   C177      1.0  0.99501  0.38608  0.48457  1.0000 0.0419167143
C   C178      1.0  0.09849  0.11392  0.10893  1.0000 0.0419167143
C   C179      1.0  0.59849  0.48956  0.98457  1.0000 0.0419167143
C   C180      1.0  0.49501  0.01044  0.60893  1.0000 0.0419167143
C   C181      1.0  0.00423  0.37408  0.54891  1.0000 -0.1295135205
C   C182      1.0  0.17483  0.12592  0.13015  1.0000 -0.1295135205
C   C183      1.0  0.67483  0.54468  0.04891  1.0000 -0.1295135205
C   C184      1.0  0.50423  0.95532  0.63015  1.0000 -0.1295135205
C   C185      1.0  0.95530  0.38321  0.58551  1.0000 -0.1794057803
C   C186      1.0  0.20230  0.11679  0.07209  1.0000 -0.1794057803
C   C187      1.0  0.70230  0.63021  0.08551  1.0000 -0.1794057803
C   C188      1.0  0.45530  0.86979  0.57209  1.0000 -0.1794057803
C   C189      1.0  0.89699  0.40596  0.55961  1.0000 0.2407429537
C   C190      1.0  0.15365  0.09404  0.99103  1.0000 0.2407429537
C   C191      1.0  0.65365  0.66262  0.05961  1.0000 0.2407429537
C   C192      1.0  0.39699  0.83738  0.49103  1.0000 0.2407429537
C   C193      1.0  0.88745  0.41945  0.49738  1.0000 -0.2108490889
C   C194      1.0  0.07793  0.08055  0.96800  1.0000 -0.2108490889
C   C195      1.0  0.57793  0.60993  0.99738  1.0000 -0.2108490889
C   C196      1.0  0.38745  0.89007  0.46800  1.0000 -0.2108490889
C   C197      1.0  0.93518  0.40847  0.45983  1.0000 -0.1295135205
C   C198      1.0  0.05136  0.09153  0.02671  1.0000 -0.1295135205
C   C199      1.0  0.55136  0.52465  0.95983  1.0000 -0.1295135205
C   C200      1.0  0.43518  0.97535  0.52671  1.0000 -0.1295135205
C   C201      1.0  0.77370  0.39216  0.54876  1.0000 0.2407429537
C   C202      1.0  0.15660  0.10784  0.88154  1.0000 0.2407429537
C   C203      1.0  0.65660  0.77506  0.04876  1.0000 0.2407429537
C   C204      1.0  0.27370  0.72494  0.38154  1.0000 0.2407429537
C   C205      1.0  0.73519  0.32202  0.45983  1.0000 -0.2328443041
C   C206      1.0  0.13781  0.17798  0.91317  1.0000 -0.2328443041
C   C207      1.0  0.63781  0.72464  0.95983  1.0000 -0.2328443041
C   C208      1.0  0.23519  0.77536  0.41317  1.0000 -0.2328443041
C   C209      1.0  0.65811  0.29738  0.41013  1.0000 0.0024713352
C   C210      1.0  0.11275  0.20262  0.86073  1.0000 -0.0006119635
C   C211      1.0  0.61275  0.75202  0.91013  1.0000 -0.0006119635
C   C212      1.0  0.15811  0.74798  0.36073  1.0000 -0.0006119635
C   C213      1.0  0.61882  0.34085  0.45067  1.0000 -0.1295135205
C   C214      1.0  0.10982  0.15915  0.77797  1.0000 -0.1295135205
C   C215      1.0  0.60982  0.83185  0.95067  1.0000 -0.1295135205
C   C216      1.0  0.11882  0.66815  0.27797  1.0000 -0.1295135205
C   C217      1.0  0.65718  0.41005  0.53967  1.0000 0.0024713352
C   C218      1.0  0.12962  0.08995  0.74713  1.0000 0.0024713352
C   C219      1.0  0.62962  0.88249  0.03967  1.0000 0.0024713352
C   C220      1.0  0.15718  0.61751  0.24713  1.0000 0.0024713352
C   C221      1.0  0.73580  0.43690  0.58962  1.0000 -0.2108490889
C   C222      1.0  0.15272  0.06310  0.79890  1.0000 -0.2108490889
C   C223      1.0  0.65272  0.85382  0.08962  1.0000 -0.2108490889
C   C224      1.0  0.23580  0.64618  0.29890  1.0000 -0.2108490889
C   C225      1.0  0.61842  0.22433  0.31293  1.0000 0.5571729823
C   C226      1.0  0.08860  0.27567  0.89409  1.0000 0.5571729823
C   C227      1.0  0.58860  0.69451  0.81293  1.0000 0.5571729823
C   C228      1.0  0.11842  0.80549  0.39409  1.0000 0.5571729823
C   C229      1.0  0.61369  0.45464  0.58309  1.0000 0.5239318891
C   C230      1.0  0.12845  0.04536  0.65905  1.0000 0.5239318891
C   C231      1.0  0.62845  0.96940  0.08309  1.0000 0.5239318891
C   C232      1.0  0.11369  0.53060  0.15905  1.0000 0.5239318891
N   N1        1.0  0.74833  0.93239  0.39948  1.0000 -0.2108490889
N   N2        1.0  0.46709  0.56761  0.31594  1.0000 -0.2108490889
N   N3        1.0  0.96709  0.65115  0.89948  1.0000 -0.2108490889
N   N4        1.0  0.24833  0.84885  0.81594  1.0000 -0.2108490889
N   N5        1.0  0.50338  0.77154  0.11976  1.0000 -0.3008932562
N   N6        1.0  0.34822  0.72846  0.23184  1.0000 -0.3008932562
N   N7        1.0  0.84822  0.61638  0.61976  1.0000 -0.3008932562
N   N8        1.0  0.00338  0.88362  0.73184  1.0000 -0.3008932562
N   N9        1.0  0.38215  0.82085  0.90286  1.0000 -0.2203250395
N   N10       1.0  0.08201  0.67915  0.06130  1.0000 -0.2203250395
N   N11       1.0  0.58201  0.52071  0.40286  1.0000 -0.2203250395
N   N12       1.0  0.88215  0.97929  0.56130  1.0000 -0.2203250395
N   N13       1.0  0.03291  0.34885  0.10052  1.0000 -0.2108490889
N   N14       1.0  0.75167  0.15115  0.18406  1.0000 -0.2108490889
N   N15       1.0  0.25167  0.06761  0.60052  1.0000 -0.2108490889
N   N16       1.0  0.53291  0.43239  0.68406  1.0000 -0.2108490889
N   N17       1.0  0.15178  0.38362  0.38024  1.0000 -0.3008932562
N   N18       1.0  0.99662  0.11638  0.26816  1.0000 -0.3008932562
N   N19       1.0  0.49662  0.22846  0.88024  1.0000 -0.3008932562
N   N20       1.0  0.65178  0.27154  0.76816  1.0000 -0.3008932562
N   N21       1.0  0.41799  0.47929  0.59714  1.0000 -0.2203250395
N   N22       1.0  0.11785  0.02071  0.43870  1.0000 -0.2203250395
N   N23       1.0  0.61785  0.17915  0.09714  1.0000 -0.2203250395
N   N24       1.0  0.91799  0.32085  0.93870  1.0000 -0.2203250395
O   O1        1.0  0.40811  0.27214  0.22441  1.0000 -0.5388428138
O   O2        1.0  0.95227  0.22786  0.63597  1.0000 -0.5388428138
O   O3        1.0  0.45227  0.81630  0.72441  1.0000 -0.5388428138
O   O4        1.0  0.90811  0.68370  0.13597  1.0000 -0.5388428138
O   O5        1.0  0.43376  0.38450  0.22398  1.0000 -0.5751899795
O   O6        1.0  0.83948  0.11550  0.54926  1.0000 -0.5742017941
O   O7        1.0  0.33948  0.79022  0.72398  1.0000 -0.5742017941
O   O8        1.0  0.93376  0.70978  0.04926  1.0000 -0.5742017941
O   O9        1.0  0.38848  0.00410  0.96282  1.0000 -0.5388428138
O   O10       1.0  0.95872  0.49590  0.88438  1.0000 -0.5388428138
O   O11       1.0  0.45872  0.57434  0.46282  1.0000 -0.5388428138
O   O12       1.0  0.88848  0.92566  0.38438  1.0000 -0.5388428138
O   O13       1.0  0.35475  0.98357  0.83632  1.0000 -0.5137189643
O   O14       1.0  0.85275  0.51643  0.87118  1.0000 -0.5137189643
O   O15       1.0  0.35275  0.48157  0.33632  1.0000 -0.5137189643
O   O16       1.0  0.85475  0.01843  0.37118  1.0000 -0.5137189643
O   O17       1.0  0.31724  0.25030  0.89878  1.0000 -0.2108490889
O   O18       1.0  0.64848  0.24970  0.56694  1.0000 -0.2108490889
O   O19       1.0  0.14848  0.58154  0.39878  1.0000 -0.2108490889
O   O20       1.0  0.81724  0.91846  0.06694  1.0000 -0.1984121205
O   O21       1.0  0.54773  0.18370  0.27559  1.0000 -0.5388428138
O   O22       1.0  0.09189  0.31630  0.86403  1.0000 -0.5388428138
O   O23       1.0  0.59189  0.72786  0.77559  1.0000 -0.5388428138
O   O24       1.0  0.04773  0.77214  0.36403  1.0000 -0.5388428138
O   O25       1.0  0.66052  0.20978  0.27602  1.0000 -0.5751899795
O   O26       1.0  0.06624  0.29022  0.95074  1.0000 -0.5751899795
O   O27       1.0  0.56624  0.61550  0.77602  1.0000 -0.5742017941
O   O28       1.0  0.16052  0.88450  0.45074  1.0000 -0.5751899795
O   O29       1.0  0.54128  0.42566  0.53718  1.0000 -0.5388428138
O   O30       1.0  0.11152  0.07434  0.61562  1.0000 -0.5388428138
O   O31       1.0  0.61152  0.99590  0.03718  1.0000 -0.5388428138
O   O32       1.0  0.04128  0.50410  0.11562  1.0000 -0.5388428138
O   O33       1.0  0.64725  0.51843  0.66368  1.0000 -0.5137189643
O   O34       1.0  0.14525  0.98157  0.62882  1.0000 -0.5137189643
O   O35       1.0  0.64525  0.01643  0.16368  1.0000 -0.5137189643
O   O36       1.0  0.14725  0.48357  0.12882  1.0000 -0.5137189643
O   O37       1.0  0.85152  0.41846  0.60122  1.0000 -0.2108490889
O   O38       1.0  0.18276  0.08154  0.93306  1.0000 -0.2108490889
O   O39       1.0  0.68276  0.74970  0.10122  1.0000 -0.1984121205
O   O40       1.0  0.35152  0.75030  0.43306  1.0000 -0.1984121205
