# DDEC6 charges by PACMAN v1.1 (https://github.com/mtap-research/PACMAN-charge/)
data_2017[SiNi][pcu]3[ASR]1
_chemical_formula_sum              "Si1 Ni1 H8 C8 N4 F6"
_cell_length_a       7.0187
_cell_length_b       7.0187
_cell_length_c       7.5098
_cell_angle_alpha    90
_cell_angle_beta     90
_cell_angle_gamma    90

_symmetry_space_group_name_H-M    "P 1"
_symmetry_Int_Tables_number       1

loop_
  _symmetry_equiv_pos_as_xyz
  'x, y, z'

loop_
  _atom_site_type_symbol
  _atom_site_label
  _atom_site_symmetry_multiplicity
  _atom_site_fract_x
  _atom_site_fract_y
  _atom_site_fract_z
  _atom_site_occupancy
  _atom_site_charge
Si  Si1       1.0  0.50000  0.50000  0.00000  1.0000 1.6836482569
Ni  Ni1       1.0  0.50000  0.50000  0.50000  1.0000 0.722351162
H   H1        1.0  0.81725  0.50000  0.77808  1.0000 0.1227215885
H   H2        1.0  0.18275  0.50000  0.77808  1.0000 0.1227215885
H   H3        1.0  0.50000  0.81725  0.77808  1.0000 0.1227215885
H   H4        1.0  0.50000  0.18275  0.77808  1.0000 0.1227215885
H   H5        1.0  0.18275  0.50000  0.22192  1.0000 0.1227215885
H   H6        1.0  0.81725  0.50000  0.22192  1.0000 0.1227215885
H   H7        1.0  0.50000  0.81725  0.22192  1.0000 0.1227215885
H   H8        1.0  0.50000  0.18275  0.22192  1.0000 0.1227215885
C   C1        1.0  0.89967  0.50000  0.65427  1.0000 0.0617000277
C   C2        1.0  0.10033  0.50000  0.65427  1.0000 0.0617000277
C   C3        1.0  0.50000  0.89967  0.65427  1.0000 0.0617000277
C   C4        1.0  0.50000  0.10033  0.65427  1.0000 0.0617000277
C   C5        1.0  0.10033  0.50000  0.34573  1.0000 0.0617000277
C   C6        1.0  0.89967  0.50000  0.34573  1.0000 0.0617000277
C   C7        1.0  0.50000  0.89967  0.34573  1.0000 0.0617000277
C   C8        1.0  0.50000  0.10033  0.34573  1.0000 0.0617000277
N   N1        1.0  0.80003  0.50000  0.50000  1.0000 -0.2056122885
N   N2        1.0  0.19997  0.50000  0.50000  1.0000 -0.2056122885
N   N3        1.0  0.50000  0.80003  0.50000  1.0000 -0.2056122885
N   N4        1.0  0.50000  0.19997  0.50000  1.0000 -0.2056122885
F   F1        1.0  0.50000  0.50000  0.77595  1.0000 -0.4905457811
F   F2        1.0  0.50000  0.50000  0.22405  1.0000 -0.4905457811
F   F3        1.0  0.67199  0.67199  0.00000  1.0000 -0.5194579081
F   F4        1.0  0.32801  0.32801  0.00000  1.0000 -0.5194579081
F   F5        1.0  0.32801  0.67199  0.00000  1.0000 -0.5194579081
F   F6        1.0  0.67199  0.32801  0.00000  1.0000 -0.5194579081
