# DDEC6 charges by PACMAN v1.1 (https://github.com/mtap-research/PACMAN-charge/)
data_2017[ZnMn][nan]3[ASR]1
_chemical_formula_sum              "Mn6 Zn6 H96 C204 O48 F72"
_cell_length_a       21.2887
_cell_length_b       21.2887
_cell_length_c       15.1272
_cell_angle_alpha    90
_cell_angle_beta     90
_cell_angle_gamma    120

_symmetry_space_group_name_H-M    "P 1"
_symmetry_Int_Tables_number       1

loop_
  _symmetry_equiv_pos_as_xyz
  'x, y, z'

loop_
  _atom_site_type_symbol
  _atom_site_label
  _atom_site_symmetry_multiplicity
  _atom_site_fract_x
  _atom_site_fract_y
  _atom_site_fract_z
  _atom_site_occupancy
  _atom_site_charge
Mn  Mn1       1.0  0.35152  0.67576  0.41667  1.0000 1.0510772541
Mn  Mn2       1.0  0.32424  0.64848  0.75000  1.0000 1.0510772541
Mn  Mn3       1.0  0.32424  0.67576  0.08333  1.0000 1.0510772541
Mn  Mn4       1.0  0.64848  0.32424  0.91667  1.0000 1.0510772541
Mn  Mn5       1.0  0.67576  0.35152  0.25000  1.0000 1.0510772541
Mn  Mn6       1.0  0.67576  0.32424  0.58333  1.0000 1.0510772541
Zn  Zn1       1.0  0.28303  0.71697  0.58333  1.0000 0.904292422
Zn  Zn2       1.0  0.43394  0.71697  0.91667  1.0000 0.904292422
Zn  Zn3       1.0  0.28303  0.56606  0.25000  1.0000 0.904292422
Zn  Zn4       1.0  0.71697  0.28303  0.08333  1.0000 0.904292422
Zn  Zn5       1.0  0.56606  0.28303  0.41667  1.0000 0.904292422
Zn  Zn6       1.0  0.71697  0.43394  0.75000  1.0000 0.904292422
H   H1        1.0  0.41799  0.08390  0.29953  1.0000 0.1204359873
H   H2        1.0  0.26499  0.88550  0.47563  1.0000 0.1204359873
H   H3        1.0  0.43929  0.18590  0.02423  1.0000 0.1290461024
H   H4        1.0  0.32769  0.09790  0.07383  1.0000 0.1204359873
H   H5        1.0  0.36389  0.85820  0.26643  1.0000 0.1290461024
H   H6        1.0  0.24899  0.96930  0.39723  1.0000 0.1204359873
H   H7        1.0  0.53029  0.17250  0.25003  1.0000 0.1204359873
H   H8        1.0  0.35069  0.94470  0.18993  1.0000 0.1204359873
H   H9        1.0  0.66591  0.58201  0.63287  1.0000 0.1204359873
H   H10       1.0  0.62051  0.73501  0.80897  1.0000 0.1204359873
H   H11       1.0  0.74661  0.56071  0.35757  1.0000 0.1290461024
H   H12       1.0  0.77021  0.67231  0.40717  1.0000 0.1204359873
H   H13       1.0  0.49431  0.63611  0.59977  1.0000 0.1290461024
H   H14       1.0  0.72031  0.75101  0.73057  1.0000 0.1204359873
H   H15       1.0  0.64221  0.46971  0.58337  1.0000 0.1204359873
H   H16       1.0  0.59401  0.64931  0.52327  1.0000 0.1204359873
H   H17       1.0  0.91610  0.33409  0.96620  1.0000 0.1204359873
H   H18       1.0  0.11450  0.37949  0.14230  1.0000 0.1204359873
H   H19       1.0  0.81410  0.25339  0.69090  1.0000 0.1290461024
H   H20       1.0  0.90210  0.22979  0.74050  1.0000 0.1204359873
H   H21       1.0  0.14180  0.50569  0.93310  1.0000 0.1290461024
H   H22       1.0  0.03070  0.27969  0.06390  1.0000 0.1204359873
H   H23       1.0  0.82750  0.35779  0.91670  1.0000 0.1204359873
H   H24       1.0  0.05530  0.40599  0.85660  1.0000 0.1204359873
H   H25       1.0  0.58201  0.91610  0.79953  1.0000 0.1204359873
H   H26       1.0  0.73501  0.11450  0.97563  1.0000 0.1204359873
H   H27       1.0  0.56071  0.81410  0.52423  1.0000 0.1290461024
H   H28       1.0  0.67231  0.90210  0.57383  1.0000 0.1204359873
H   H29       1.0  0.63611  0.14180  0.76643  1.0000 0.1290461024
H   H30       1.0  0.75101  0.03070  0.89723  1.0000 0.1204359873
H   H31       1.0  0.46971  0.82750  0.75003  1.0000 0.1204359873
H   H32       1.0  0.64931  0.05530  0.68993  1.0000 0.1204359873
H   H33       1.0  0.33409  0.41799  0.13287  1.0000 0.1204359873
H   H34       1.0  0.37949  0.26499  0.30897  1.0000 0.1204359873
H   H35       1.0  0.25339  0.43929  0.85757  1.0000 0.1290461024
H   H36       1.0  0.22979  0.32769  0.90717  1.0000 0.1204359873
H   H37       1.0  0.50569  0.36389  0.09977  1.0000 0.1290461024
H   H38       1.0  0.27969  0.24899  0.23057  1.0000 0.1204359873
H   H39       1.0  0.35779  0.53029  0.08337  1.0000 0.1204359873
H   H40       1.0  0.40599  0.35069  0.02327  1.0000 0.1204359873
H   H41       1.0  0.08390  0.66591  0.46620  1.0000 0.1204359873
H   H42       1.0  0.88550  0.62051  0.64230  1.0000 0.1204359873
H   H43       1.0  0.18590  0.74661  0.19090  1.0000 0.1290461024
H   H44       1.0  0.09790  0.77021  0.24050  1.0000 0.1204359873
H   H45       1.0  0.85820  0.49431  0.43310  1.0000 0.1290461024
H   H46       1.0  0.96930  0.72031  0.56390  1.0000 0.1204359873
H   H47       1.0  0.17250  0.64221  0.41670  1.0000 0.1204359873
H   H48       1.0  0.94470  0.59401  0.35660  1.0000 0.1204359873
H   H49       1.0  0.33409  0.91610  0.70047  1.0000 0.1204359873
H   H50       1.0  0.37949  0.11450  0.52437  1.0000 0.1204359873
H   H51       1.0  0.25339  0.81410  0.97577  1.0000 0.1290461024
H   H52       1.0  0.22979  0.90210  0.92617  1.0000 0.1204359873
H   H53       1.0  0.50569  0.14180  0.73357  1.0000 0.1290461024
H   H54       1.0  0.27969  0.03070  0.60277  1.0000 0.1204359873
H   H55       1.0  0.35779  0.82750  0.74997  1.0000 0.1204359873
H   H56       1.0  0.40599  0.05530  0.81007  1.0000 0.1204359873
H   H57       1.0  0.08390  0.41799  0.36713  1.0000 0.1204359873
H   H58       1.0  0.88550  0.26499  0.19103  1.0000 0.1204359873
H   H59       1.0  0.18590  0.43929  0.64243  1.0000 0.1290461024
H   H60       1.0  0.09790  0.32769  0.59283  1.0000 0.1204359873
H   H61       1.0  0.85820  0.36389  0.40023  1.0000 0.1290461024
H   H62       1.0  0.96930  0.24899  0.26943  1.0000 0.1204359873
H   H63       1.0  0.17250  0.53029  0.41663  1.0000 0.1204359873
H   H64       1.0  0.94470  0.35069  0.47673  1.0000 0.1204359873
H   H65       1.0  0.58201  0.66591  0.03380  1.0000 0.1204359873
H   H66       1.0  0.73501  0.62051  0.85770  1.0000 0.1204359873
H   H67       1.0  0.56071  0.74661  0.30910  1.0000 0.1290461024
H   H68       1.0  0.67231  0.77021  0.25950  1.0000 0.1204359873
H   H69       1.0  0.63611  0.49431  0.06690  1.0000 0.1290461024
H   H70       1.0  0.75101  0.72031  0.93610  1.0000 0.1204359873
H   H71       1.0  0.46971  0.64221  0.08330  1.0000 0.1204359873
H   H72       1.0  0.64931  0.59401  0.14340  1.0000 0.1204359873
H   H73       1.0  0.66591  0.08390  0.20047  1.0000 0.1204359873
H   H74       1.0  0.62051  0.88550  0.02437  1.0000 0.1204359873
H   H75       1.0  0.74661  0.18590  0.47577  1.0000 0.1290461024
H   H76       1.0  0.77021  0.09790  0.42617  1.0000 0.1204359873
H   H77       1.0  0.49431  0.85820  0.23357  1.0000 0.1290461024
H   H78       1.0  0.72031  0.96930  0.10277  1.0000 0.1204359873
H   H79       1.0  0.64221  0.17250  0.24997  1.0000 0.1204359873
H   H80       1.0  0.59401  0.94470  0.31007  1.0000 0.1204359873
H   H81       1.0  0.91610  0.58201  0.86713  1.0000 0.1204359873
H   H82       1.0  0.11450  0.73501  0.69103  1.0000 0.1204359873
H   H83       1.0  0.81410  0.56071  0.14243  1.0000 0.1290461024
H   H84       1.0  0.90210  0.67231  0.09283  1.0000 0.1204359873
H   H85       1.0  0.14180  0.63611  0.90023  1.0000 0.1290461024
H   H86       1.0  0.03070  0.75101  0.76943  1.0000 0.1204359873
H   H87       1.0  0.82750  0.46971  0.91663  1.0000 0.1204359873
H   H88       1.0  0.05530  0.64931  0.97673  1.0000 0.1204359873
H   H89       1.0  0.41799  0.33409  0.53380  1.0000 0.1204359873
H   H90       1.0  0.26499  0.37949  0.35770  1.0000 0.1204359873
H   H91       1.0  0.43929  0.25339  0.80910  1.0000 0.1290461024
H   H92       1.0  0.32769  0.22979  0.75950  1.0000 0.1204359873
H   H93       1.0  0.36389  0.50569  0.56690  1.0000 0.1290461024
H   H94       1.0  0.24899  0.27969  0.43610  1.0000 0.1204359873
H   H95       1.0  0.53029  0.35779  0.58330  1.0000 0.1204359873
H   H96       1.0  0.35069  0.40599  0.64340  1.0000 0.1204359873
C   C1        1.0  0.28779  0.02040  0.22943  1.0000 -0.2796177367
C   C2        1.0  0.42239  0.10370  0.24353  1.0000 -0.1278053671
C   C3        1.0  0.28179  0.89680  0.41783  1.0000 -0.0835487346
C   C4        1.0  0.49699  0.18680  0.13103  1.0000 -0.0173973142
C   C5        1.0  0.43519  0.16470  0.07923  1.0000 -0.0901138472
C   C6        1.0  0.31549  0.86260  0.37913  1.0000 -0.0333789995
C   C7        1.0  0.36849  0.11200  0.10883  1.0000 -0.150441557
C   C8        1.0  0.23249  0.97550  0.15553  1.0000 0.6628321931
C   C9        1.0  0.32069  0.80490  0.42853  1.0000 0.5780016904
C   C10       1.0  0.36129  0.07950  0.19063  1.0000 0.0789377913
C   C11       1.0  0.29839  0.96600  0.28633  1.0000 0.0789377913
C   C12       1.0  0.34109  0.88080  0.29323  1.0000 -0.0835487346
C   C13       1.0  0.27279  0.94750  0.37093  1.0000 -0.150441557
C   C14       1.0  0.48979  0.15690  0.21393  1.0000 -0.0991167408
C   C15       1.0  0.33289  0.93240  0.24733  1.0000 -0.1420500115
C   C16       1.0  0.25649  0.06070  0.28283  1.0000 0.6628321931
C   C17       1.0  0.57019  0.24120  0.09543  1.0000 0.5986678278
C   C18       1.0  0.73261  0.71221  0.56277  1.0000 -0.2796177367
C   C19       1.0  0.68131  0.57761  0.57687  1.0000 -0.1278053671
C   C20       1.0  0.61501  0.71821  0.75117  1.0000 -0.0835487346
C   C21       1.0  0.68981  0.50301  0.46437  1.0000 -0.0173973142
C   C22       1.0  0.72951  0.56481  0.41257  1.0000 -0.0901138472
C   C23       1.0  0.54711  0.68451  0.71247  1.0000 -0.0333789995
C   C24       1.0  0.74351  0.63151  0.44217  1.0000 -0.1420500115
C   C25       1.0  0.74301  0.76751  0.48887  1.0000 0.6628321931
C   C26       1.0  0.48421  0.67931  0.76187  1.0000 0.5780016904
C   C27       1.0  0.71821  0.63871  0.52397  1.0000 0.0789377913
C   C28       1.0  0.66761  0.70161  0.61967  1.0000 0.0789377913
C   C29       1.0  0.53971  0.65891  0.62657  1.0000 -0.0835487346
C   C30       1.0  0.67471  0.72721  0.70427  1.0000 -0.150441557
C   C31       1.0  0.66711  0.51021  0.54727  1.0000 -0.0991167408
C   C32       1.0  0.59951  0.66711  0.58067  1.0000 -0.1420500115
C   C33       1.0  0.80421  0.74351  0.61617  1.0000 0.6628321931
C   C34       1.0  0.67101  0.42981  0.42877  1.0000 0.5986678278
C   C35       1.0  0.97960  0.26739  0.89610  1.0000 -0.2796177367
C   C36       1.0  0.89630  0.31869  0.91020  1.0000 -0.1278053671
C   C37       1.0  0.10320  0.38499  0.08450  1.0000 -0.0835487346
C   C38       1.0  0.81320  0.31019  0.79770  1.0000 -0.0173973142
C   C39       1.0  0.83530  0.27049  0.74590  1.0000 -0.0901138472
C   C40       1.0  0.13740  0.45289  0.04580  1.0000 -0.0333789995
C   C41       1.0  0.88800  0.25649  0.77550  1.0000 -0.1420500115
C   C42       1.0  0.02450  0.25699  0.82220  1.0000 0.6628321931
C   C43       1.0  0.19510  0.51579  0.09520  1.0000 0.5780016904
C   C44       1.0  0.92050  0.28179  0.85730  1.0000 0.0789377913
C   C45       1.0  0.03400  0.33239  0.95300  1.0000 0.0789377913
C   C46       1.0  0.11920  0.46029  0.95990  1.0000 -0.0835487346
C   C47       1.0  0.05250  0.32529  0.03760  1.0000 -0.150441557
C   C48       1.0  0.84310  0.33289  0.88060  1.0000 -0.0991167408
C   C49       1.0  0.06760  0.40049  0.91400  1.0000 -0.1420500115
C   C50       1.0  0.93930  0.19579  0.94950  1.0000 0.6628321931
C   C51       1.0  0.75880  0.32899  0.76210  1.0000 0.5986678278
C   C52       1.0  0.71221  0.97960  0.72943  1.0000 -0.2796177367
C   C53       1.0  0.57761  0.89630  0.74353  1.0000 -0.1278053671
C   C54       1.0  0.71821  0.10320  0.91783  1.0000 -0.0835487346
C   C55       1.0  0.50301  0.81320  0.63103  1.0000 -0.0173973142
C   C56       1.0  0.56481  0.83530  0.57923  1.0000 -0.0901138472
C   C57       1.0  0.68451  0.13740  0.87913  1.0000 -0.0333789995
C   C58       1.0  0.63151  0.88800  0.60883  1.0000 -0.1420500115
C   C59       1.0  0.76751  0.02450  0.65553  1.0000 0.6628321931
C   C60       1.0  0.67931  0.19510  0.92853  1.0000 0.5780016904
C   C61       1.0  0.63871  0.92050  0.69063  1.0000 0.0789377913
C   C62       1.0  0.70161  0.03400  0.78633  1.0000 0.0789377913
C   C63       1.0  0.65891  0.11920  0.79323  1.0000 -0.0835487346
C   C64       1.0  0.72721  0.05250  0.87093  1.0000 -0.150441557
C   C65       1.0  0.51021  0.84310  0.71393  1.0000 -0.0991167408
C   C66       1.0  0.66711  0.06760  0.74733  1.0000 -0.1420500115
C   C67       1.0  0.74351  0.93930  0.78283  1.0000 0.6628321931
C   C68       1.0  0.42981  0.75880  0.59543  1.0000 0.5986678278
C   C69       1.0  0.26739  0.28779  0.06277  1.0000 -0.2796177367
C   C70       1.0  0.31869  0.42239  0.07687  1.0000 -0.1278053671
C   C71       1.0  0.38499  0.28179  0.25117  1.0000 -0.0835487346
C   C72       1.0  0.31019  0.49699  0.96437  1.0000 -0.0173973142
C   C73       1.0  0.27049  0.43519  0.91257  1.0000 -0.0901138472
C   C74       1.0  0.45289  0.31549  0.21247  1.0000 -0.0333789995
C   C75       1.0  0.25649  0.36849  0.94217  1.0000 -0.150441557
C   C76       1.0  0.25699  0.23249  0.98887  1.0000 0.6628321931
C   C77       1.0  0.51579  0.32069  0.26187  1.0000 0.5780016904
C   C78       1.0  0.28179  0.36129  0.02397  1.0000 0.0789377913
C   C79       1.0  0.33239  0.29839  0.11967  1.0000 0.0789377913
C   C80       1.0  0.46029  0.34109  0.12657  1.0000 -0.0835487346
C   C81       1.0  0.32529  0.27279  0.20427  1.0000 -0.150441557
C   C82       1.0  0.33289  0.48979  0.04727  1.0000 -0.0991167408
C   C83       1.0  0.40049  0.33289  0.08067  1.0000 -0.1420500115
C   C84       1.0  0.19579  0.25649  0.11617  1.0000 0.6628321931
C   C85       1.0  0.32899  0.57019  0.92877  1.0000 0.5986678278
C   C86       1.0  0.02040  0.73261  0.39610  1.0000 -0.2796177367
C   C87       1.0  0.10370  0.68131  0.41020  1.0000 -0.1278053671
C   C88       1.0  0.89680  0.61501  0.58450  1.0000 -0.0835487346
C   C89       1.0  0.18680  0.68981  0.29770  1.0000 -0.0173973142
C   C90       1.0  0.16470  0.72951  0.24590  1.0000 -0.0901138472
C   C91       1.0  0.86260  0.54711  0.54580  1.0000 -0.0333789995
C   C92       1.0  0.11200  0.74351  0.27550  1.0000 -0.150441557
C   C93       1.0  0.97550  0.74301  0.32220  1.0000 0.6628321931
C   C94       1.0  0.80490  0.48421  0.59520  1.0000 0.5780016904
C   C95       1.0  0.07950  0.71821  0.35730  1.0000 0.0789377913
C   C96       1.0  0.96600  0.66761  0.45300  1.0000 0.0789377913
C   C97       1.0  0.88080  0.53971  0.45990  1.0000 -0.0835487346
C   C98       1.0  0.94750  0.67471  0.53760  1.0000 -0.150441557
C   C99       1.0  0.15690  0.66711  0.38060  1.0000 -0.0991167408
C   C100      1.0  0.93240  0.59951  0.41400  1.0000 -0.1420500115
C   C101      1.0  0.06070  0.80421  0.44950  1.0000 0.6628321931
C   C102      1.0  0.24120  0.67101  0.26210  1.0000 0.5986678278
C   C103      1.0  0.26739  0.97960  0.77057  1.0000 -0.2796177367
C   C104      1.0  0.31869  0.89630  0.75647  1.0000 -0.1278053671
C   C105      1.0  0.38499  0.10320  0.58217  1.0000 -0.0835487346
C   C106      1.0  0.31019  0.81320  0.86897  1.0000 -0.0173973142
C   C107      1.0  0.27049  0.83530  0.92077  1.0000 -0.0901138472
C   C108      1.0  0.45289  0.13740  0.62087  1.0000 -0.0333789995
C   C109      1.0  0.25649  0.88800  0.89117  1.0000 -0.150441557
C   C110      1.0  0.25699  0.02450  0.84447  1.0000 0.6628321931
C   C111      1.0  0.51579  0.19510  0.57147  1.0000 0.5780016904
C   C112      1.0  0.28179  0.92050  0.80937  1.0000 0.0789377913
C   C113      1.0  0.33239  0.03400  0.71367  1.0000 0.0789377913
C   C114      1.0  0.46029  0.11920  0.70677  1.0000 -0.0835487346
C   C115      1.0  0.32529  0.05250  0.62907  1.0000 -0.150441557
C   C116      1.0  0.33289  0.84310  0.78607  1.0000 -0.0991167408
C   C117      1.0  0.40049  0.06760  0.75267  1.0000 -0.1420500115
C   C118      1.0  0.19579  0.93930  0.71717  1.0000 0.6628321931
C   C119      1.0  0.32899  0.75880  0.90457  1.0000 0.5986678278
C   C120      1.0  0.02040  0.28779  0.43723  1.0000 -0.2796177367
C   C121      1.0  0.10370  0.42239  0.42313  1.0000 -0.1278053671
C   C122      1.0  0.89680  0.28179  0.24883  1.0000 -0.0835487346
C   C123      1.0  0.18680  0.49699  0.53563  1.0000 -0.0173973142
C   C124      1.0  0.16470  0.43519  0.58743  1.0000 -0.0901138472
C   C125      1.0  0.86260  0.31549  0.28753  1.0000 -0.0333789995
C   C126      1.0  0.11200  0.36849  0.55783  1.0000 -0.150441557
C   C127      1.0  0.97550  0.23249  0.51113  1.0000 0.6628321931
C   C128      1.0  0.80490  0.32069  0.23813  1.0000 0.5780016904
C   C129      1.0  0.07950  0.36129  0.47603  1.0000 0.0789377913
C   C130      1.0  0.96600  0.29839  0.38033  1.0000 0.0789377913
C   C131      1.0  0.88080  0.34109  0.37343  1.0000 -0.0835487346
C   C132      1.0  0.94750  0.27279  0.29573  1.0000 -0.150441557
C   C133      1.0  0.15690  0.48979  0.45273  1.0000 -0.0991167408
C   C134      1.0  0.93240  0.33289  0.41933  1.0000 -0.1420500115
C   C135      1.0  0.06070  0.25649  0.38383  1.0000 0.6628321931
C   C136      1.0  0.24120  0.57019  0.57123  1.0000 0.5986678278
C   C137      1.0  0.71221  0.73261  0.10390  1.0000 -0.2796177367
C   C138      1.0  0.57761  0.68131  0.08980  1.0000 -0.1278053671
C   C139      1.0  0.71821  0.61501  0.91550  1.0000 -0.0835487346
C   C140      1.0  0.50301  0.68981  0.20230  1.0000 -0.0173973142
C   C141      1.0  0.56481  0.72951  0.25410  1.0000 -0.0901138472
C   C142      1.0  0.68451  0.54711  0.95420  1.0000 -0.0333789995
C   C143      1.0  0.63151  0.74351  0.22450  1.0000 -0.1420500115
C   C144      1.0  0.76751  0.74301  0.17780  1.0000 0.6628321931
C   C145      1.0  0.67931  0.48421  0.90480  1.0000 0.5780016904
C   C146      1.0  0.63871  0.71821  0.14270  1.0000 0.0789377913
C   C147      1.0  0.70161  0.66761  0.04700  1.0000 0.0789377913
C   C148      1.0  0.65891  0.53971  0.04010  1.0000 -0.0835487346
C   C149      1.0  0.72721  0.67471  0.96240  1.0000 -0.150441557
C   C150      1.0  0.51021  0.66711  0.11940  1.0000 -0.0991167408
C   C151      1.0  0.66711  0.59951  0.08600  1.0000 -0.1420500115
C   C152      1.0  0.74351  0.80421  0.05050  1.0000 0.6628321931
C   C153      1.0  0.42981  0.67101  0.23790  1.0000 0.5986678278
C   C154      1.0  0.73261  0.02040  0.27057  1.0000 -0.2796177367
C   C155      1.0  0.68131  0.10370  0.25647  1.0000 -0.1278053671
C   C156      1.0  0.61501  0.89680  0.08217  1.0000 -0.0835487346
C   C157      1.0  0.68981  0.18680  0.36897  1.0000 -0.0173973142
C   C158      1.0  0.72951  0.16470  0.42077  1.0000 -0.0901138472
C   C159      1.0  0.54711  0.86260  0.12087  1.0000 -0.0333789995
C   C160      1.0  0.74351  0.11200  0.39117  1.0000 -0.1420500115
C   C161      1.0  0.74301  0.97550  0.34447  1.0000 0.6628321931
C   C162      1.0  0.48421  0.80490  0.07147  1.0000 0.5780016904
C   C163      1.0  0.71821  0.07950  0.30937  1.0000 0.0789377913
C   C164      1.0  0.66761  0.96600  0.21367  1.0000 0.0789377913
C   C165      1.0  0.53971  0.88080  0.20677  1.0000 -0.0835487346
C   C166      1.0  0.67471  0.94750  0.12907  1.0000 -0.150441557
C   C167      1.0  0.66711  0.15690  0.28607  1.0000 -0.0991167408
C   C168      1.0  0.59951  0.93240  0.25267  1.0000 -0.1420500115
C   C169      1.0  0.80421  0.06070  0.21717  1.0000 0.6628321931
C   C170      1.0  0.67101  0.24120  0.40457  1.0000 0.5986678278
C   C171      1.0  0.97960  0.71221  0.93723  1.0000 -0.2796177367
C   C172      1.0  0.89630  0.57761  0.92313  1.0000 -0.1278053671
C   C173      1.0  0.10320  0.71821  0.74883  1.0000 -0.0835487346
C   C174      1.0  0.81320  0.50301  0.03563  1.0000 -0.0173973142
C   C175      1.0  0.83530  0.56481  0.08743  1.0000 -0.0901138472
C   C176      1.0  0.13740  0.68451  0.78753  1.0000 -0.0333789995
C   C177      1.0  0.88800  0.63151  0.05783  1.0000 -0.1420500115
C   C178      1.0  0.02450  0.76751  0.01113  1.0000 0.6628321931
C   C179      1.0  0.19510  0.67931  0.73813  1.0000 0.5780016904
C   C180      1.0  0.92050  0.63871  0.97603  1.0000 0.0789377913
C   C181      1.0  0.03400  0.70161  0.88033  1.0000 0.0789377913
C   C182      1.0  0.11920  0.65891  0.87343  1.0000 -0.0835487346
C   C183      1.0  0.05250  0.72721  0.79573  1.0000 -0.150441557
C   C184      1.0  0.84310  0.51021  0.95273  1.0000 -0.0991167408
C   C185      1.0  0.06760  0.66711  0.91933  1.0000 -0.1420500115
C   C186      1.0  0.93930  0.74351  0.88383  1.0000 0.6628321931
C   C187      1.0  0.75880  0.42981  0.07123  1.0000 0.5986678278
C   C188      1.0  0.28779  0.26739  0.60390  1.0000 -0.2796177367
C   C189      1.0  0.42239  0.31869  0.58980  1.0000 -0.1278053671
C   C190      1.0  0.28179  0.38499  0.41550  1.0000 -0.0835487346
C   C191      1.0  0.49699  0.31019  0.70230  1.0000 -0.0173973142
C   C192      1.0  0.43519  0.27049  0.75410  1.0000 -0.0901138472
C   C193      1.0  0.31549  0.45289  0.45420  1.0000 -0.0333789995
C   C194      1.0  0.36849  0.25649  0.72450  1.0000 -0.1420500115
C   C195      1.0  0.23249  0.25699  0.67780  1.0000 0.6628321931
C   C196      1.0  0.32069  0.51579  0.40480  1.0000 0.5780016904
C   C197      1.0  0.36129  0.28179  0.64270  1.0000 0.0789377913
C   C198      1.0  0.29839  0.33239  0.54700  1.0000 0.0789377913
C   C199      1.0  0.34109  0.46029  0.54010  1.0000 -0.0835487346
C   C200      1.0  0.27279  0.32529  0.46240  1.0000 -0.150441557
C   C201      1.0  0.48979  0.33289  0.61940  1.0000 -0.0991167408
C   C202      1.0  0.33289  0.40049  0.58600  1.0000 -0.1420500115
C   C203      1.0  0.25649  0.19579  0.55050  1.0000 0.6628321931
C   C204      1.0  0.57019  0.32899  0.73790  1.0000 0.5986678278
O   O1        1.0  0.62539  0.25570  0.14533  1.0000 -0.6010646745
O   O2        1.0  0.34429  0.76890  0.39133  1.0000 -0.5476811851
O   O3        1.0  0.57499  0.26680  0.02103  1.0000 -0.5258534575
O   O4        1.0  0.29849  0.79500  0.50823  1.0000 -0.5367987181
O   O5        1.0  0.63031  0.37461  0.47867  1.0000 -0.6010646745
O   O6        1.0  0.42461  0.65571  0.72467  1.0000 -0.5476811851
O   O7        1.0  0.69181  0.42501  0.35437  1.0000 -0.5258534575
O   O8        1.0  0.49651  0.70151  0.84157  1.0000 -0.5367987181
O   O9        1.0  0.74430  0.36969  0.81200  1.0000 -0.6010646745
O   O10       1.0  0.23110  0.57539  0.05800  1.0000 -0.5476811851
O   O11       1.0  0.73320  0.30819  0.68770  1.0000 -0.5258534575
O   O12       1.0  0.20500  0.50349  0.17490  1.0000 -0.5367987181
O   O13       1.0  0.37461  0.74430  0.64533  1.0000 -0.6010646745
O   O14       1.0  0.65571  0.23110  0.89133  1.0000 -0.5476811851
O   O15       1.0  0.42501  0.73320  0.52103  1.0000 -0.5258534575
O   O16       1.0  0.70151  0.20500  0.00823  1.0000 -0.5367987181
O   O17       1.0  0.36969  0.62539  0.97867  1.0000 -0.6010646745
O   O18       1.0  0.57539  0.34429  0.22467  1.0000 -0.5476811851
O   O19       1.0  0.30819  0.57499  0.85437  1.0000 -0.5258534575
O   O20       1.0  0.50349  0.29849  0.34157  1.0000 -0.5367987181
O   O21       1.0  0.25570  0.63031  0.31200  1.0000 -0.6010646745
O   O22       1.0  0.76890  0.42461  0.55800  1.0000 -0.5476811851
O   O23       1.0  0.26680  0.69181  0.18770  1.0000 -0.5258534575
O   O24       1.0  0.79500  0.49651  0.67490  1.0000 -0.5367987181
O   O25       1.0  0.36969  0.74430  0.85467  1.0000 -0.6010646745
O   O26       1.0  0.57539  0.23110  0.60867  1.0000 -0.5476811851
O   O27       1.0  0.30819  0.73320  0.97897  1.0000 -0.5258534575
O   O28       1.0  0.50349  0.20500  0.49177  1.0000 -0.5367987181
O   O29       1.0  0.25570  0.62539  0.52133  1.0000 -0.6010646745
O   O30       1.0  0.76890  0.34429  0.27533  1.0000 -0.5476811851
O   O31       1.0  0.26680  0.57499  0.64563  1.0000 -0.5258534575
O   O32       1.0  0.79500  0.29849  0.15843  1.0000 -0.5367987181
O   O33       1.0  0.37461  0.63031  0.18800  1.0000 -0.6010646745
O   O34       1.0  0.65571  0.42461  0.94200  1.0000 -0.5476811851
O   O35       1.0  0.42501  0.69181  0.31230  1.0000 -0.5258534575
O   O36       1.0  0.70151  0.49651  0.82510  1.0000 -0.5367987181
O   O37       1.0  0.63031  0.25570  0.35467  1.0000 -0.6010646745
O   O38       1.0  0.42461  0.76890  0.10867  1.0000 -0.5476811851
O   O39       1.0  0.69181  0.26680  0.47897  1.0000 -0.5258534575
O   O40       1.0  0.49651  0.79500  0.99177  1.0000 -0.5367987181
O   O41       1.0  0.74430  0.37461  0.02133  1.0000 -0.6010646745
O   O42       1.0  0.23110  0.65571  0.77533  1.0000 -0.5476811851
O   O43       1.0  0.73320  0.42501  0.14563  1.0000 -0.5258534575
O   O44       1.0  0.20500  0.70151  0.65843  1.0000 -0.5367987181
O   O45       1.0  0.62539  0.36969  0.68800  1.0000 -0.6010646745
O   O46       1.0  0.34429  0.57539  0.44200  1.0000 -0.5476811851
O   O47       1.0  0.57499  0.30819  0.81230  1.0000 -0.5258534575
O   O48       1.0  0.29849  0.50349  0.32510  1.0000 -0.5367987181
F   F1        1.0  0.26189  0.95290  0.09503  1.0000 -0.1912905819
F   F2        1.0  0.29789  0.09380  0.35193  1.0000 -0.1912905819
F   F3        1.0  0.20629  0.01200  0.11263  1.0000 -0.1912905819
F   F4        1.0  0.17559  0.91660  0.18933  1.0000 -0.1912905819
F   F5        1.0  0.18949  0.01590  0.31233  1.0000 -0.1976555622
F   F6        1.0  0.25389  0.11090  0.23443  1.0000 -0.1912905819
F   F7        1.0  0.69101  0.73811  0.42837  1.0000 -0.1912905819
F   F8        1.0  0.79591  0.70211  0.68527  1.0000 -0.1912905819
F   F9        1.0  0.80571  0.79371  0.44597  1.0000 -0.1912905819
F   F10       1.0  0.74101  0.82441  0.52267  1.0000 -0.1912905819
F   F11       1.0  0.82641  0.81051  0.64567  1.0000 -0.1976555622
F   F12       1.0  0.85701  0.74611  0.56777  1.0000 -0.1912905819
F   F13       1.0  0.04710  0.30899  0.76170  1.0000 -0.1912905819
F   F14       1.0  0.90620  0.20409  0.01860  1.0000 -0.1912905819
F   F15       1.0  0.98800  0.19429  0.77930  1.0000 -0.1912905819
F   F16       1.0  0.08340  0.25899  0.85600  1.0000 -0.1912905819
F   F17       1.0  0.98410  0.17359  0.97900  1.0000 -0.1976555622
F   F18       1.0  0.88910  0.14299  0.90110  1.0000 -0.1912905819
F   F19       1.0  0.73811  0.04710  0.59503  1.0000 -0.1912905819
F   F20       1.0  0.70211  0.90620  0.85193  1.0000 -0.1912905819
F   F21       1.0  0.79371  0.98800  0.61263  1.0000 -0.1912905819
F   F22       1.0  0.82441  0.08340  0.68933  1.0000 -0.1912905819
F   F23       1.0  0.81051  0.98410  0.81233  1.0000 -0.1976555622
F   F24       1.0  0.74611  0.88910  0.73443  1.0000 -0.1912905819
F   F25       1.0  0.30899  0.26189  0.92837  1.0000 -0.1912905819
F   F26       1.0  0.20409  0.29789  0.18527  1.0000 -0.1912905819
F   F27       1.0  0.19429  0.20629  0.94597  1.0000 -0.1912905819
F   F28       1.0  0.25899  0.17559  0.02267  1.0000 -0.1912905819
F   F29       1.0  0.17359  0.18949  0.14567  1.0000 -0.1976555622
F   F30       1.0  0.14299  0.25389  0.06777  1.0000 -0.1912905819
F   F31       1.0  0.95290  0.69101  0.26170  1.0000 -0.1912905819
F   F32       1.0  0.09380  0.79591  0.51860  1.0000 -0.1912905819
F   F33       1.0  0.01200  0.80571  0.27930  1.0000 -0.1912905819
F   F34       1.0  0.91660  0.74101  0.35600  1.0000 -0.1912905819
F   F35       1.0  0.01590  0.82641  0.47900  1.0000 -0.1976555622
F   F36       1.0  0.11090  0.85701  0.40110  1.0000 -0.1912905819
F   F37       1.0  0.30899  0.04710  0.90497  1.0000 -0.1912905819
F   F38       1.0  0.20409  0.90620  0.64807  1.0000 -0.1912905819
F   F39       1.0  0.19429  0.98800  0.88737  1.0000 -0.1912905819
F   F40       1.0  0.25899  0.08340  0.81067  1.0000 -0.1912905819
F   F41       1.0  0.17359  0.98410  0.68767  1.0000 -0.1976555622
F   F42       1.0  0.14299  0.88910  0.76557  1.0000 -0.1912905819
F   F43       1.0  0.95290  0.26189  0.57163  1.0000 -0.1912905819
F   F44       1.0  0.09380  0.29789  0.31473  1.0000 -0.1912905819
F   F45       1.0  0.01200  0.20629  0.55403  1.0000 -0.1912905819
F   F46       1.0  0.91660  0.17559  0.47733  1.0000 -0.1912905819
F   F47       1.0  0.01590  0.18949  0.35433  1.0000 -0.1976555622
F   F48       1.0  0.11090  0.25389  0.43223  1.0000 -0.1912905819
F   F49       1.0  0.73811  0.69101  0.23830  1.0000 -0.1912905819
F   F50       1.0  0.70211  0.79591  0.98140  1.0000 -0.1912905819
F   F51       1.0  0.79371  0.80571  0.22070  1.0000 -0.1912905819
F   F52       1.0  0.82441  0.74101  0.14400  1.0000 -0.1912905819
F   F53       1.0  0.81051  0.82641  0.02100  1.0000 -0.1976555622
F   F54       1.0  0.74611  0.85701  0.09890  1.0000 -0.1912905819
F   F55       1.0  0.69101  0.95290  0.40497  1.0000 -0.1912905819
F   F56       1.0  0.79591  0.09380  0.14807  1.0000 -0.1912905819
F   F57       1.0  0.80571  0.01200  0.38737  1.0000 -0.1912905819
F   F58       1.0  0.74101  0.91660  0.31067  1.0000 -0.1912905819
F   F59       1.0  0.82641  0.01590  0.18767  1.0000 -0.1976555622
F   F60       1.0  0.85701  0.11090  0.26557  1.0000 -0.1912905819
F   F61       1.0  0.04710  0.73811  0.07163  1.0000 -0.1912905819
F   F62       1.0  0.90620  0.70211  0.81473  1.0000 -0.1912905819
F   F63       1.0  0.98800  0.79371  0.05403  1.0000 -0.1912905819
F   F64       1.0  0.08340  0.82441  0.97733  1.0000 -0.1912905819
F   F65       1.0  0.98410  0.81051  0.85433  1.0000 -0.1976555622
F   F66       1.0  0.88910  0.74611  0.93223  1.0000 -0.1912905819
F   F67       1.0  0.26189  0.30899  0.73830  1.0000 -0.1912905819
F   F68       1.0  0.29789  0.20409  0.48140  1.0000 -0.1912905819
F   F69       1.0  0.20629  0.19429  0.72070  1.0000 -0.1976555622
F   F70       1.0  0.17559  0.25899  0.64400  1.0000 -0.1912905819
F   F71       1.0  0.18949  0.17359  0.52100  1.0000 -0.1976555622
F   F72       1.0  0.25389  0.14299  0.59890  1.0000 -0.1912905819
