# DDEC6 charges by PACMAN v1.1 (https://github.com/mtap-research/PACMAN-charge/)
data_2017[Cd][sql]2[ASR]13
_chemical_formula_sum              "Cd4 H56 C80 N16 O16"
_cell_length_a       10.2041
_cell_length_b       14.0747
_cell_length_c       16.4493
_cell_angle_alpha    90
_cell_angle_beta     101.202
_cell_angle_gamma    90

_symmetry_space_group_name_H-M    "P 1"
_symmetry_Int_Tables_number       1

loop_
  _symmetry_equiv_pos_as_xyz
  'x, y, z'

loop_
  _atom_site_type_symbol
  _atom_site_label
  _atom_site_symmetry_multiplicity
  _atom_site_fract_x
  _atom_site_fract_y
  _atom_site_fract_z
  _atom_site_occupancy
  _atom_site_charge
Cd  Cd1       1.0  0.11537  0.48205  0.41959  1.0000 0.8830847771
Cd  Cd2       1.0  0.88463  0.51795  0.58041  1.0000 0.8830847771
Cd  Cd3       1.0  0.88463  0.98205  0.08041  1.0000 0.8830847771
Cd  Cd4       1.0  0.11537  0.01795  0.91959  1.0000 0.8830847771
H   H1        1.0  0.25080  0.54280  0.79430  1.0000 0.1021722298
H   H2        1.0  0.46220  0.53120  0.87480  1.0000 0.1021722298
H   H3        1.0  0.64650  0.52390  0.81250  1.0000 0.1021722298
H   H4        1.0  0.40590  0.53020  0.58850  1.0000 0.1309247272
H   H5        1.0  0.03970  0.24980  0.38270  1.0000 0.1110421348
H   H6        1.0  0.27730  0.34380  0.58040  1.0000 0.1309247272
H   H7        1.0  0.28650  0.17020  0.58670  1.0000 0.1231537791
H   H8        1.0  0.30500  0.02540  0.51560  1.0000 0.1231537791
H   H9        1.0  0.26600  0.86780  0.47660  1.0000 0.1309247272
H   H10       1.0  0.91580  0.94140  0.33440  1.0000 0.1362063544
H   H11       1.0  0.95190  0.09810  0.37590  1.0000 0.1309247272
H   H12       1.0  0.15480  0.71560  0.47700  1.0000 0.1110421348
H   H13       1.0  0.94930  0.79940  0.25860  1.0000 0.1362063544
H   H14       1.0  0.95320  0.62500  0.26440  1.0000 0.1231537791
H   H15       1.0  0.74920  0.45720  0.20570  1.0000 0.1021722298
H   H16       1.0  0.53780  0.46880  0.12520  1.0000 0.1021722298
H   H17       1.0  0.35350  0.47610  0.18750  1.0000 0.1021722298
H   H18       1.0  0.59410  0.46980  0.41150  1.0000 0.1309247272
H   H19       1.0  0.96030  0.75020  0.61730  1.0000 0.1110421348
H   H20       1.0  0.72270  0.65620  0.41960  1.0000 0.1309247272
H   H21       1.0  0.71350  0.82980  0.41330  1.0000 0.1231537791
H   H22       1.0  0.69500  0.97460  0.48440  1.0000 0.1231537791
H   H23       1.0  0.73400  0.13220  0.52340  1.0000 0.1309247272
H   H24       1.0  0.08420  0.05860  0.66560  1.0000 0.1362063544
H   H25       1.0  0.04810  0.90190  0.62410  1.0000 0.1309247272
H   H26       1.0  0.84520  0.28440  0.52300  1.0000 0.1110421348
H   H27       1.0  0.05070  0.20060  0.74140  1.0000 0.1362063544
H   H28       1.0  0.04680  0.37500  0.73560  1.0000 0.1231537791
H   H29       1.0  0.74920  0.04280  0.70570  1.0000 0.1021722298
H   H30       1.0  0.53780  0.03120  0.62520  1.0000 0.1021722298
H   H31       1.0  0.35350  0.02390  0.68750  1.0000 0.1021722298
H   H32       1.0  0.59410  0.03020  0.91150  1.0000 0.1309247272
H   H33       1.0  0.96030  0.74980  0.11730  1.0000 0.1110421348
H   H34       1.0  0.72270  0.84380  0.91960  1.0000 0.1309247272
H   H35       1.0  0.71350  0.67020  0.91330  1.0000 0.1231537791
H   H36       1.0  0.69500  0.52540  0.98440  1.0000 0.1231537791
H   H37       1.0  0.73400  0.36780  0.02340  1.0000 0.1309247272
H   H38       1.0  0.08420  0.44140  0.16560  1.0000 0.1362063544
H   H39       1.0  0.04810  0.59810  0.12410  1.0000 0.1309247272
H   H40       1.0  0.84520  0.21560  0.02300  1.0000 0.1110421348
H   H41       1.0  0.05070  0.29940  0.24140  1.0000 0.1362063544
H   H42       1.0  0.04680  0.12500  0.23560  1.0000 0.1231537791
H   H43       1.0  0.25080  0.95720  0.29430  1.0000 0.1021722298
H   H44       1.0  0.46220  0.96880  0.37480  1.0000 0.1021722298
H   H45       1.0  0.64650  0.97610  0.31250  1.0000 0.1021722298
H   H46       1.0  0.40590  0.96980  0.08850  1.0000 0.1309247272
H   H47       1.0  0.03970  0.25020  0.88270  1.0000 0.1110421348
H   H48       1.0  0.27730  0.15620  0.08040  1.0000 0.1309247272
H   H49       1.0  0.28650  0.32980  0.08670  1.0000 0.1231537791
H   H50       1.0  0.30500  0.47460  0.01560  1.0000 0.1231537791
H   H51       1.0  0.26600  0.63220  0.97660  1.0000 0.1309247272
H   H52       1.0  0.91580  0.55860  0.83440  1.0000 0.1362063544
H   H53       1.0  0.95190  0.40190  0.87590  1.0000 0.1309247272
H   H54       1.0  0.15480  0.78440  0.97700  1.0000 0.1110421348
H   H55       1.0  0.94930  0.70060  0.75860  1.0000 0.1362063544
H   H56       1.0  0.95320  0.87500  0.76440  1.0000 0.1231537791
C   C1        1.0  0.16640  0.54530  0.63236  1.0000 0.5531640084
C   C2        1.0  0.30670  0.53950  0.68289  1.0000 -0.0235752619
C   C3        1.0  0.32470  0.53880  0.76912  1.0000 -0.1108088388
C   C4        1.0  0.45110  0.53240  0.81730  1.0000 -0.1192087938
C   C5        1.0  0.56120  0.52770  0.78000  1.0000 -0.1192087938
C   C6        1.0  0.54500  0.52840  0.69437  1.0000 -0.0045622759
C   C7        1.0  0.41720  0.53233  0.64596  1.0000 -0.1108088388
C   C8        1.0  0.66750  0.52610  0.65528  1.0000 0.5383741887
C   C9        1.0  0.10220  0.25190  0.43207  1.0000 0.0896362693
C   C10       1.0  0.23140  0.30290  0.54040  1.0000 -0.0085685848
C   C11       1.0  0.23710  0.20670  0.54440  1.0000 -0.1108088388
C   C12       1.0  0.13190  0.07693  0.44948  1.0000 0.1508782314
C   C13       1.0  0.22640  0.00840  0.47970  1.0000 -0.1734847935
C   C14       1.0  0.20320  0.91420  0.45624  1.0000 -0.1797229765
C   C15       1.0  0.08650  0.88950  0.40256  1.0000 0.1508782314
C   C16       1.0  0.99320  0.95820  0.37151  1.0000 -0.1373539536
C   C17       1.0  0.01530  0.05200  0.39575  1.0000 -0.1734847935
C   C18       1.0  0.10490  0.71430  0.42328  1.0000 0.1021722298
C   C19       1.0  0.99110  0.76200  0.30270  1.0000 -0.1029186348
C   C20       1.0  0.99400  0.66540  0.30650  1.0000 -0.0338552307
C   C21       1.0  0.83360  0.45470  0.36764  1.0000 0.5531640084
C   C22       1.0  0.69330  0.46050  0.31711  1.0000 -0.0235752619
C   C23       1.0  0.67530  0.46120  0.23088  1.0000 -0.1108088388
C   C24       1.0  0.54890  0.46760  0.18270  1.0000 -0.1192087938
C   C25       1.0  0.43880  0.47230  0.22000  1.0000 -0.1192087938
C   C26       1.0  0.45500  0.47160  0.30563  1.0000 -0.0045622759
C   C27       1.0  0.58280  0.46767  0.35404  1.0000 -0.1108088388
C   C28       1.0  0.33250  0.47390  0.34472  1.0000 0.5383741887
C   C29       1.0  0.89780  0.74810  0.56793  1.0000 0.0896362693
C   C30       1.0  0.76860  0.69710  0.45960  1.0000 -0.0085685848
C   C31       1.0  0.76290  0.79330  0.45560  1.0000 -0.1108088388
C   C32       1.0  0.86810  0.92307  0.55052  1.0000 0.1508782314
C   C33       1.0  0.77360  0.99160  0.52030  1.0000 -0.1734847935
C   C34       1.0  0.79680  0.08580  0.54376  1.0000 -0.1797229765
C   C35       1.0  0.91350  0.11050  0.59744  1.0000 0.1508782314
C   C36       1.0  0.00680  0.04180  0.62849  1.0000 -0.1373539536
C   C37       1.0  0.98470  0.94800  0.60425  1.0000 -0.1734847935
C   C38       1.0  0.89510  0.28570  0.57672  1.0000 0.1021722298
C   C39       1.0  0.00890  0.23800  0.69730  1.0000 -0.1029186348
C   C40       1.0  0.00600  0.33460  0.69350  1.0000 -0.0338552307
C   C41       1.0  0.83360  0.04530  0.86764  1.0000 0.5531640084
C   C42       1.0  0.69330  0.03950  0.81711  1.0000 -0.0235752619
C   C43       1.0  0.67530  0.03880  0.73088  1.0000 -0.1108088388
C   C44       1.0  0.54890  0.03240  0.68270  1.0000 -0.1192087938
C   C45       1.0  0.43880  0.02770  0.72000  1.0000 -0.1192087938
C   C46       1.0  0.45500  0.02840  0.80563  1.0000 -0.0085685848
C   C47       1.0  0.58280  0.03233  0.85404  1.0000 -0.1108088388
C   C48       1.0  0.33250  0.02610  0.84472  1.0000 0.5383741887
C   C49       1.0  0.89780  0.75190  0.06793  1.0000 0.0896362693
C   C50       1.0  0.76860  0.80290  0.95960  1.0000 -0.0085685848
C   C51       1.0  0.76290  0.70670  0.95560  1.0000 -0.1108088388
C   C52       1.0  0.86810  0.57693  0.05052  1.0000 0.1508782314
C   C53       1.0  0.77360  0.50840  0.02030  1.0000 -0.1734847935
C   C54       1.0  0.79680  0.41420  0.04376  1.0000 -0.1797229765
C   C55       1.0  0.91350  0.38950  0.09744  1.0000 0.1508782314
C   C56       1.0  0.00680  0.45820  0.12849  1.0000 -0.1373539536
C   C57       1.0  0.98470  0.55200  0.10425  1.0000 -0.1734847935
C   C58       1.0  0.89510  0.21430  0.07672  1.0000 0.1021722298
C   C59       1.0  0.00890  0.26200  0.19730  1.0000 -0.1029186348
C   C60       1.0  0.00600  0.16540  0.19350  1.0000 -0.0338552307
C   C61       1.0  0.16640  0.95470  0.13236  1.0000 0.5531640084
C   C62       1.0  0.30670  0.96050  0.18289  1.0000 -0.0235752619
C   C63       1.0  0.32470  0.96120  0.26912  1.0000 -0.1108088388
C   C64       1.0  0.45110  0.96760  0.31730  1.0000 -0.1192087938
C   C65       1.0  0.56120  0.97230  0.28000  1.0000 -0.1192087938
C   C66       1.0  0.54500  0.97160  0.19437  1.0000 -0.0085685848
C   C67       1.0  0.41720  0.96767  0.14596  1.0000 -0.1108088388
C   C68       1.0  0.66750  0.97390  0.15528  1.0000 0.5383741887
C   C69       1.0  0.10220  0.24810  0.93207  1.0000 0.0896362693
C   C70       1.0  0.23140  0.19710  0.04040  1.0000 -0.0085685848
C   C71       1.0  0.23710  0.29330  0.04440  1.0000 -0.1108088388
C   C72       1.0  0.13190  0.42307  0.94948  1.0000 0.1508782314
C   C73       1.0  0.22640  0.49160  0.97970  1.0000 -0.1734847935
C   C74       1.0  0.20320  0.58580  0.95624  1.0000 -0.1797229765
C   C75       1.0  0.08650  0.61050  0.90256  1.0000 0.1508782314
C   C76       1.0  0.99320  0.54180  0.87151  1.0000 -0.1373539536
C   C77       1.0  0.01530  0.44800  0.89575  1.0000 -0.1734847935
C   C78       1.0  0.10490  0.78570  0.92328  1.0000 0.1021722298
C   C79       1.0  0.99110  0.73800  0.80270  1.0000 -0.1029186348
C   C80       1.0  0.99400  0.83460  0.80650  1.0000 -0.0338552307
N   N1        1.0  0.14860  0.33067  0.46919  1.0000 -0.2717881171
N   N2        1.0  0.15560  0.17401  0.47389  1.0000 0.0007732105
N   N3        1.0  0.06310  0.79281  0.37776  1.0000 0.0007732105
N   N4        1.0  0.06600  0.63640  0.38188  1.0000 -0.2765562056
N   N5        1.0  0.85140  0.66933  0.53081  1.0000 -0.2717881171
N   N6        1.0  0.84440  0.82599  0.52611  1.0000 0.0007732105
N   N7        1.0  0.93690  0.20719  0.62224  1.0000 0.0007732105
N   N8        1.0  0.93400  0.36360  0.61812  1.0000 -0.2765562056
N   N9        1.0  0.85140  0.83067  0.03081  1.0000 -0.2717881171
N   N10       1.0  0.84440  0.67401  0.02611  1.0000 0.0007732105
N   N11       1.0  0.93690  0.29281  0.12224  1.0000 0.0007732105
N   N12       1.0  0.93400  0.13640  0.11812  1.0000 -0.2765562056
N   N13       1.0  0.14860  0.16933  0.96919  1.0000 -0.2717881171
N   N14       1.0  0.15560  0.32599  0.97389  1.0000 0.0007732105
N   N15       1.0  0.06310  0.70719  0.87776  1.0000 0.0007732105
N   N16       1.0  0.06600  0.86360  0.88188  1.0000 -0.2765562056
O   O1        1.0  0.14800  0.53162  0.55659  1.0000 -0.566661772
O   O2        1.0  0.07424  0.56106  0.67105  1.0000 -0.5456878661
O   O3        1.0  0.65430  0.50244  0.58059  1.0000 -0.5315734117
O   O4        1.0  0.77670  0.54850  0.69804  1.0000 -0.5612671344
O   O5        1.0  0.85200  0.46838  0.44341  1.0000 -0.566661772
O   O6        1.0  0.92576  0.43894  0.32895  1.0000 -0.5456878661
O   O7        1.0  0.34570  0.49756  0.41941  1.0000 -0.5315734117
O   O8        1.0  0.22330  0.45150  0.30196  1.0000 -0.5612671344
O   O9        1.0  0.85200  0.03162  0.94341  1.0000 -0.566661772
O   O10       1.0  0.92576  0.06106  0.82895  1.0000 -0.5456878661
O   O11       1.0  0.34570  0.00244  0.91941  1.0000 -0.5315734117
O   O12       1.0  0.22330  0.04850  0.80196  1.0000 -0.5612671344
O   O13       1.0  0.14800  0.96838  0.05659  1.0000 -0.566661772
O   O14       1.0  0.07424  0.93894  0.17105  1.0000 -0.5456878661
O   O15       1.0  0.65430  0.99756  0.08059  1.0000 -0.5315734117
O   O16       1.0  0.77670  0.95150  0.19804  1.0000 -0.5612671344
