# DDEC6 charges by PACMAN v1.1 (https://github.com/mtap-research/PACMAN-charge/)
data_2017[Cu][fjh]3[ASR]2
_chemical_formula_sum              "Cu40 H176 C304 S24 N16 O168"
_cell_length_a       31.236
_cell_length_b       31.236
_cell_length_c       28.194
_cell_angle_alpha    90
_cell_angle_beta     90
_cell_angle_gamma    90

_symmetry_space_group_name_H-M    "P 1"
_symmetry_Int_Tables_number       1

loop_
  _symmetry_equiv_pos_as_xyz
  'x, y, z'

loop_
  _atom_site_type_symbol
  _atom_site_label
  _atom_site_symmetry_multiplicity
  _atom_site_fract_x
  _atom_site_fract_y
  _atom_site_fract_z
  _atom_site_occupancy
  _atom_site_charge
Cu  Cu1       1.0  0.19247  0.83302  0.50000  1.0000 0.8611825739
Cu  Cu2       1.0  0.83302  0.80753  0.00000  1.0000 0.8611825739
Cu  Cu3       1.0  0.80753  0.16698  0.50000  1.0000 0.8611825739
Cu  Cu4       1.0  0.16698  0.19247  0.00000  1.0000 0.8611825739
Cu  Cu5       1.0  0.30753  0.33302  0.50000  1.0000 0.8611825739
Cu  Cu6       1.0  0.33302  0.69247  0.00000  1.0000 0.8611825739
Cu  Cu7       1.0  0.69247  0.66698  0.50000  1.0000 0.8611825739
Cu  Cu8       1.0  0.66698  0.30753  0.00000  1.0000 0.8611825739
Cu  Cu9       1.0  0.13060  0.89026  0.50000  1.0000 0.8611825739
Cu  Cu10      1.0  0.89026  0.86940  0.00000  1.0000 0.8611825739
Cu  Cu11      1.0  0.86940  0.10974  0.50000  1.0000 0.8611825739
Cu  Cu12      1.0  0.10974  0.13060  0.00000  1.0000 0.8611825739
Cu  Cu13      1.0  0.36940  0.39026  0.50000  1.0000 0.8611825739
Cu  Cu14      1.0  0.39026  0.63060  0.00000  1.0000 0.8611825739
Cu  Cu15      1.0  0.63060  0.60974  0.50000  1.0000 0.8611825739
Cu  Cu16      1.0  0.60974  0.36940  0.00000  1.0000 0.8611825739
Cu  Cu17      1.0  0.40859  0.02158  0.24561  1.0000 0.9696525072
Cu  Cu18      1.0  0.02158  0.59141  0.74561  1.0000 0.9696525072
Cu  Cu19      1.0  0.59141  0.97842  0.24561  1.0000 0.9696525072
Cu  Cu20      1.0  0.97842  0.40859  0.74561  1.0000 0.9696525072
Cu  Cu21      1.0  0.09141  0.52158  0.75439  1.0000 0.9696525072
Cu  Cu22      1.0  0.52158  0.90859  0.25439  1.0000 0.9696525072
Cu  Cu23      1.0  0.90859  0.47842  0.75439  1.0000 0.9696525072
Cu  Cu24      1.0  0.47842  0.09141  0.25439  1.0000 0.9696525072
Cu  Cu25      1.0  0.59141  0.97842  0.75439  1.0000 0.9696525072
Cu  Cu26      1.0  0.97842  0.40859  0.25439  1.0000 0.9696525072
Cu  Cu27      1.0  0.40859  0.02158  0.75439  1.0000 0.9696525072
Cu  Cu28      1.0  0.02158  0.59141  0.25439  1.0000 0.9696525072
Cu  Cu29      1.0  0.90859  0.47842  0.24561  1.0000 0.9696525072
Cu  Cu30      1.0  0.47842  0.09141  0.74561  1.0000 0.9696525072
Cu  Cu31      1.0  0.09141  0.52158  0.24561  1.0000 0.9696525072
Cu  Cu32      1.0  0.52158  0.90859  0.74561  1.0000 0.9696525072
Cu  Cu33      1.0  0.50000  0.00000  0.29964  1.0000 1.0162951465
Cu  Cu34      1.0  0.00000  0.50000  0.79964  1.0000 1.0162951465
Cu  Cu35      1.0  0.00000  0.50000  0.70036  1.0000 1.0162951465
Cu  Cu36      1.0  0.50000  0.00000  0.20036  1.0000 1.0146643293
Cu  Cu37      1.0  0.50000  0.00000  0.70036  1.0000 1.0162951465
Cu  Cu38      1.0  0.00000  0.50000  0.20036  1.0000 1.0162951465
Cu  Cu39      1.0  0.00000  0.50000  0.29964  1.0000 1.0162951465
Cu  Cu40      1.0  0.50000  0.00000  0.79964  1.0000 1.0162951465
H   H1        1.0  0.27330  0.88920  0.39130  1.0000 0.1396938962
H   H2        1.0  0.88920  0.72670  0.89130  1.0000 0.1396938962
H   H3        1.0  0.72670  0.11080  0.39130  1.0000 0.1396938962
H   H4        1.0  0.11080  0.27330  0.89130  1.0000 0.1396938962
H   H5        1.0  0.22670  0.38920  0.60870  1.0000 0.1396938962
H   H6        1.0  0.38920  0.77330  0.10870  1.0000 0.1396938962
H   H7        1.0  0.77330  0.61080  0.60870  1.0000 0.1396938962
H   H8        1.0  0.61080  0.22670  0.10870  1.0000 0.1396938962
H   H9        1.0  0.72670  0.11080  0.60870  1.0000 0.1396938962
H   H10       1.0  0.11080  0.27330  0.10870  1.0000 0.1396938962
H   H11       1.0  0.27330  0.88920  0.60870  1.0000 0.1396938962
H   H12       1.0  0.88920  0.72670  0.10870  1.0000 0.1396938962
H   H13       1.0  0.77330  0.61080  0.39130  1.0000 0.1396938962
H   H14       1.0  0.61080  0.22670  0.89130  1.0000 0.1396938962
H   H15       1.0  0.22670  0.38920  0.39130  1.0000 0.1396938962
H   H16       1.0  0.38920  0.77330  0.89130  1.0000 0.1396938962
H   H17       1.0  0.30570  0.92500  0.32930  1.0000 0.1469570508
H   H18       1.0  0.92500  0.69430  0.82930  1.0000 0.1469570508
H   H19       1.0  0.69430  0.07500  0.32930  1.0000 0.1469570508
H   H20       1.0  0.07500  0.30570  0.82930  1.0000 0.1469570508
H   H21       1.0  0.19430  0.42500  0.67070  1.0000 0.1469570508
H   H22       1.0  0.42500  0.80570  0.17070  1.0000 0.1469570508
H   H23       1.0  0.80570  0.57500  0.67070  1.0000 0.1469570508
H   H24       1.0  0.57500  0.19430  0.17070  1.0000 0.1469570508
H   H25       1.0  0.69430  0.07500  0.67070  1.0000 0.1469570508
H   H26       1.0  0.07500  0.30570  0.17070  1.0000 0.1469570508
H   H27       1.0  0.30570  0.92500  0.67070  1.0000 0.1469570508
H   H28       1.0  0.92500  0.69430  0.17070  1.0000 0.1469570508
H   H29       1.0  0.80570  0.57500  0.32930  1.0000 0.1469570508
H   H30       1.0  0.57500  0.19430  0.82930  1.0000 0.1469570508
H   H31       1.0  0.19430  0.42500  0.32930  1.0000 0.1469570508
H   H32       1.0  0.42500  0.80570  0.82930  1.0000 0.1469570508
H   H33       1.0  0.20820  0.00730  0.32620  1.0000 0.1193463264
H   H34       1.0  0.00730  0.79180  0.82620  1.0000 0.1193463264
H   H35       1.0  0.79180  0.99270  0.32620  1.0000 0.1193463264
H   H36       1.0  0.99270  0.20820  0.82620  1.0000 0.1193463264
H   H37       1.0  0.29180  0.50730  0.67380  1.0000 0.1193463264
H   H38       1.0  0.50730  0.70820  0.17380  1.0000 0.1193463264
H   H39       1.0  0.70820  0.49270  0.67380  1.0000 0.1193463264
H   H40       1.0  0.49270  0.29180  0.17380  1.0000 0.1193463264
H   H41       1.0  0.79180  0.99270  0.67380  1.0000 0.1193463264
H   H42       1.0  0.99270  0.20820  0.17380  1.0000 0.1193463264
H   H43       1.0  0.20820  0.00730  0.67380  1.0000 0.1193463264
H   H44       1.0  0.00730  0.79180  0.17380  1.0000 0.1193463264
H   H45       1.0  0.70820  0.49270  0.32620  1.0000 0.1193463264
H   H46       1.0  0.49270  0.29180  0.82620  1.0000 0.1193463264
H   H47       1.0  0.29180  0.50730  0.32620  1.0000 0.1193463264
H   H48       1.0  0.50730  0.70820  0.82620  1.0000 0.1193463264
H   H49       1.0  0.17680  0.97110  0.38910  1.0000 0.1396938962
H   H50       1.0  0.97110  0.82320  0.88910  1.0000 0.1396938962
H   H51       1.0  0.82320  0.02890  0.38910  1.0000 0.1396938962
H   H52       1.0  0.02890  0.17680  0.88910  1.0000 0.1396938962
H   H53       1.0  0.32320  0.47110  0.61090  1.0000 0.1396938962
H   H54       1.0  0.47110  0.67680  0.11090  1.0000 0.1396938962
H   H55       1.0  0.67680  0.52890  0.61090  1.0000 0.1396938962
H   H56       1.0  0.52890  0.32320  0.11090  1.0000 0.1396938962
H   H57       1.0  0.82320  0.02890  0.61090  1.0000 0.1396938962
H   H58       1.0  0.02890  0.17680  0.11090  1.0000 0.1396938962
H   H59       1.0  0.17680  0.97110  0.61090  1.0000 0.1396938962
H   H60       1.0  0.97110  0.82320  0.11090  1.0000 0.1396938962
H   H61       1.0  0.67680  0.52890  0.38910  1.0000 0.1396938962
H   H62       1.0  0.52890  0.32320  0.88910  1.0000 0.1396938962
H   H63       1.0  0.32320  0.47110  0.38910  1.0000 0.1396938962
H   H64       1.0  0.47110  0.67680  0.88910  1.0000 0.1396938962
H   H65       1.0  0.34070  0.98360  0.30160  1.0000 0.129967393
H   H66       1.0  0.98360  0.65930  0.80160  1.0000 0.129967393
H   H67       1.0  0.65930  0.01640  0.30160  1.0000 0.129967393
H   H68       1.0  0.01640  0.34070  0.80160  1.0000 0.129967393
H   H69       1.0  0.15930  0.48360  0.69840  1.0000 0.129967393
H   H70       1.0  0.48360  0.84070  0.19840  1.0000 0.129967393
H   H71       1.0  0.84070  0.51640  0.69840  1.0000 0.129967393
H   H72       1.0  0.51640  0.15930  0.19840  1.0000 0.129967393
H   H73       1.0  0.65930  0.01640  0.69840  1.0000 0.129967393
H   H74       1.0  0.01640  0.34070  0.19840  1.0000 0.129967393
H   H75       1.0  0.34070  0.98360  0.69840  1.0000 0.129967393
H   H76       1.0  0.98360  0.65930  0.19840  1.0000 0.129967393
H   H77       1.0  0.84070  0.51640  0.30160  1.0000 0.129967393
H   H78       1.0  0.51640  0.15930  0.80160  1.0000 0.129967393
H   H79       1.0  0.15930  0.48360  0.30160  1.0000 0.129967393
H   H80       1.0  0.48360  0.84070  0.80160  1.0000 0.129967393
H   H81       1.0  0.22590  0.01070  0.24550  1.0000 0.1193463264
H   H82       1.0  0.01070  0.77410  0.74550  1.0000 0.1193463264
H   H83       1.0  0.77410  0.98930  0.24550  1.0000 0.1193463264
H   H84       1.0  0.98930  0.22590  0.74550  1.0000 0.1193463264
H   H85       1.0  0.27410  0.51070  0.75450  1.0000 0.1193463264
H   H86       1.0  0.51070  0.72590  0.25450  1.0000 0.1193463264
H   H87       1.0  0.72590  0.48930  0.75450  1.0000 0.1193463264
H   H88       1.0  0.48930  0.27410  0.25450  1.0000 0.1193463264
H   H89       1.0  0.77410  0.98930  0.75450  1.0000 0.1193463264
H   H90       1.0  0.98930  0.22590  0.25450  1.0000 0.1193463264
H   H91       1.0  0.22590  0.01070  0.75450  1.0000 0.1193463264
H   H92       1.0  0.01070  0.77410  0.25450  1.0000 0.1193463264
H   H93       1.0  0.72590  0.48930  0.24550  1.0000 0.1193463264
H   H94       1.0  0.48930  0.27410  0.74550  1.0000 0.1193463264
H   H95       1.0  0.27410  0.51070  0.24550  1.0000 0.1193463264
H   H96       1.0  0.51070  0.72590  0.74550  1.0000 0.1193463264
H   H97       1.0  0.33470  0.04870  0.18370  1.0000 0.1396938962
H   H98       1.0  0.04870  0.66530  0.68370  1.0000 0.1396938962
H   H99       1.0  0.66530  0.95130  0.18370  1.0000 0.1396938962
H   H100      1.0  0.95130  0.33470  0.68370  1.0000 0.1396938962
H   H101      1.0  0.16530  0.54870  0.81630  1.0000 0.1396938962
H   H102      1.0  0.54870  0.83470  0.31630  1.0000 0.1396938962
H   H103      1.0  0.83470  0.45130  0.81630  1.0000 0.1396938962
H   H104      1.0  0.45130  0.16530  0.31630  1.0000 0.1396938962
H   H105      1.0  0.66530  0.95130  0.81630  1.0000 0.1396938962
H   H106      1.0  0.95130  0.33470  0.31630  1.0000 0.1396938962
H   H107      1.0  0.33470  0.04870  0.81630  1.0000 0.1396938962
H   H108      1.0  0.04870  0.66530  0.31630  1.0000 0.1396938962
H   H109      1.0  0.83470  0.45130  0.18370  1.0000 0.1396938962
H   H110      1.0  0.45130  0.16530  0.68370  1.0000 0.1396938962
H   H111      1.0  0.16530  0.54870  0.18370  1.0000 0.1396938962
H   H112      1.0  0.54870  0.83470  0.68370  1.0000 0.1396938962
H   H113      1.0  0.20320  0.01590  0.16920  1.0000 0.129967393
H   H114      1.0  0.01590  0.79680  0.66920  1.0000 0.129967393
H   H115      1.0  0.79680  0.98410  0.16920  1.0000 0.129967393
H   H116      1.0  0.98410  0.20320  0.66920  1.0000 0.129967393
H   H117      1.0  0.29680  0.51590  0.83080  1.0000 0.129967393
H   H118      1.0  0.51590  0.70320  0.33080  1.0000 0.129967393
H   H119      1.0  0.70320  0.48410  0.83080  1.0000 0.129967393
H   H120      1.0  0.48410  0.29680  0.33080  1.0000 0.129967393
H   H121      1.0  0.79680  0.98410  0.83080  1.0000 0.129967393
H   H122      1.0  0.98410  0.20320  0.33080  1.0000 0.129967393
H   H123      1.0  0.20320  0.01590  0.83080  1.0000 0.129967393
H   H124      1.0  0.01590  0.79680  0.33080  1.0000 0.129967393
H   H125      1.0  0.70320  0.48410  0.16920  1.0000 0.129967393
H   H126      1.0  0.48410  0.29680  0.66920  1.0000 0.129967393
H   H127      1.0  0.29680  0.51590  0.16920  1.0000 0.129967393
H   H128      1.0  0.51590  0.70320  0.66920  1.0000 0.129967393
H   H129      1.0  0.16420  0.04920  0.10840  1.0000 0.1396938962
H   H130      1.0  0.04920  0.83580  0.60840  1.0000 0.129967393
H   H131      1.0  0.83580  0.95080  0.10840  1.0000 0.129967393
H   H132      1.0  0.95080  0.16420  0.60840  1.0000 0.129967393
H   H133      1.0  0.33580  0.54920  0.89160  1.0000 0.1396938962
H   H134      1.0  0.54920  0.66420  0.39160  1.0000 0.129967393
H   H135      1.0  0.66420  0.45080  0.89160  1.0000 0.129967393
H   H136      1.0  0.45080  0.33580  0.39160  1.0000 0.129967393
H   H137      1.0  0.83580  0.95080  0.89160  1.0000 0.129967393
H   H138      1.0  0.95080  0.16420  0.39160  1.0000 0.129967393
H   H139      1.0  0.16420  0.04920  0.89160  1.0000 0.1396938962
H   H140      1.0  0.04920  0.83580  0.39160  1.0000 0.129967393
H   H141      1.0  0.66420  0.45080  0.10840  1.0000 0.129967393
H   H142      1.0  0.45080  0.33580  0.60840  1.0000 0.129967393
H   H143      1.0  0.33580  0.54920  0.10840  1.0000 0.129967393
H   H144      1.0  0.54920  0.66420  0.60840  1.0000 0.129967393
H   H145      1.0  0.25440  0.13890  0.10170  1.0000 0.1396938962
H   H146      1.0  0.13890  0.74560  0.60170  1.0000 0.1396938962
H   H147      1.0  0.74560  0.86110  0.10170  1.0000 0.1396938962
H   H148      1.0  0.86110  0.25440  0.60170  1.0000 0.1396938962
H   H149      1.0  0.24560  0.63890  0.89830  1.0000 0.1396938962
H   H150      1.0  0.63890  0.75440  0.39830  1.0000 0.1396938962
H   H151      1.0  0.75440  0.36110  0.89830  1.0000 0.1396938962
H   H152      1.0  0.36110  0.24560  0.39830  1.0000 0.1396938962
H   H153      1.0  0.74560  0.86110  0.89830  1.0000 0.1396938962
H   H154      1.0  0.86110  0.25440  0.39830  1.0000 0.1396938962
H   H155      1.0  0.25440  0.13890  0.89830  1.0000 0.1396938962
H   H156      1.0  0.13890  0.74560  0.39830  1.0000 0.1396938962
H   H157      1.0  0.75440  0.36110  0.10170  1.0000 0.1396938962
H   H158      1.0  0.36110  0.24560  0.60170  1.0000 0.1396938962
H   H159      1.0  0.24560  0.63890  0.10170  1.0000 0.1396938962
H   H160      1.0  0.63890  0.75440  0.60170  1.0000 0.1396938962
H   H161      1.0  0.29150  0.10500  0.16110  1.0000 0.1396938962
H   H162      1.0  0.10500  0.70850  0.66110  1.0000 0.1396938962
H   H163      1.0  0.70850  0.89500  0.16110  1.0000 0.1396938962
H   H164      1.0  0.89500  0.29150  0.66110  1.0000 0.1396938962
H   H165      1.0  0.20850  0.60500  0.83890  1.0000 0.1396938962
H   H166      1.0  0.60500  0.79150  0.33890  1.0000 0.1396938962
H   H167      1.0  0.79150  0.39500  0.83890  1.0000 0.1396938962
H   H168      1.0  0.39500  0.20850  0.33890  1.0000 0.1396938962
H   H169      1.0  0.70850  0.89500  0.83890  1.0000 0.1396938962
H   H170      1.0  0.89500  0.29150  0.33890  1.0000 0.1396938962
H   H171      1.0  0.29150  0.10500  0.83890  1.0000 0.1396938962
H   H172      1.0  0.10500  0.70850  0.33890  1.0000 0.1396938962
H   H173      1.0  0.79150  0.39500  0.16110  1.0000 0.1396938962
H   H174      1.0  0.39500  0.20850  0.66110  1.0000 0.1396938962
H   H175      1.0  0.20850  0.60500  0.16110  1.0000 0.1396938962
H   H176      1.0  0.60500  0.79150  0.66110  1.0000 0.1396938962
C   C1        1.0  0.20030  0.90230  0.43560  1.0000 0.5861094815
C   C2        1.0  0.90230  0.79970  0.93560  1.0000 0.5861094815
C   C3        1.0  0.79970  0.09770  0.43560  1.0000 0.5861094815
C   C4        1.0  0.09770  0.20030  0.93560  1.0000 0.5861094815
C   C5        1.0  0.29970  0.40230  0.56440  1.0000 0.5861094815
C   C6        1.0  0.40230  0.70030  0.06440  1.0000 0.5861094815
C   C7        1.0  0.70030  0.59770  0.56440  1.0000 0.5861094815
C   C8        1.0  0.59770  0.29970  0.06440  1.0000 0.5861094815
C   C9        1.0  0.79970  0.09770  0.56440  1.0000 0.5861094815
C   C10       1.0  0.09770  0.20030  0.06440  1.0000 0.5861094815
C   C11       1.0  0.20030  0.90230  0.56440  1.0000 0.5861094815
C   C12       1.0  0.90230  0.79970  0.06440  1.0000 0.5861094815
C   C13       1.0  0.70030  0.59770  0.43560  1.0000 0.5861094815
C   C14       1.0  0.59770  0.29970  0.93560  1.0000 0.5861094815
C   C15       1.0  0.29970  0.40230  0.43560  1.0000 0.5861094815
C   C16       1.0  0.40230  0.70030  0.93560  1.0000 0.5861094815
C   C17       1.0  0.22082  0.92610  0.39600  1.0000 -0.03006198
C   C18       1.0  0.92610  0.77918  0.89600  1.0000 -0.03006198
C   C19       1.0  0.77918  0.07390  0.39600  1.0000 -0.03006198
C   C20       1.0  0.07390  0.22082  0.89600  1.0000 -0.03006198
C   C21       1.0  0.27918  0.42610  0.60400  1.0000 -0.03006198
C   C22       1.0  0.42610  0.72082  0.10400  1.0000 -0.03006198
C   C23       1.0  0.72082  0.57390  0.60400  1.0000 -0.03006198
C   C24       1.0  0.57390  0.27918  0.10400  1.0000 -0.03006198
C   C25       1.0  0.77918  0.07390  0.60400  1.0000 -0.03006198
C   C26       1.0  0.07390  0.22082  0.10400  1.0000 -0.03006198
C   C27       1.0  0.22082  0.92610  0.60400  1.0000 -0.03006198
C   C28       1.0  0.92610  0.77918  0.10400  1.0000 -0.03006198
C   C29       1.0  0.72082  0.57390  0.39600  1.0000 -0.03006198
C   C30       1.0  0.57390  0.27918  0.89600  1.0000 -0.03006198
C   C31       1.0  0.27918  0.42610  0.39600  1.0000 -0.03006198
C   C32       1.0  0.42610  0.72082  0.89600  1.0000 -0.03006198
C   C33       1.0  0.25990  0.91290  0.37810  1.0000 -0.0730146063
C   C34       1.0  0.91290  0.74010  0.87810  1.0000 -0.0730146063
C   C35       1.0  0.74010  0.08710  0.37810  1.0000 -0.0730146063
C   C36       1.0  0.08710  0.25990  0.87810  1.0000 -0.0730146063
C   C37       1.0  0.24010  0.41290  0.62190  1.0000 -0.0730146063
C   C38       1.0  0.41290  0.75990  0.12190  1.0000 -0.0730146063
C   C39       1.0  0.75990  0.58710  0.62190  1.0000 -0.0730146063
C   C40       1.0  0.58710  0.24010  0.12190  1.0000 -0.0730146063
C   C41       1.0  0.74010  0.08710  0.62190  1.0000 -0.0730146063
C   C42       1.0  0.08710  0.25990  0.12190  1.0000 -0.0730146063
C   C43       1.0  0.25990  0.91290  0.62190  1.0000 -0.0730146063
C   C44       1.0  0.91290  0.74010  0.12190  1.0000 -0.0730146063
C   C45       1.0  0.75990  0.58710  0.37810  1.0000 -0.0730146063
C   C46       1.0  0.58710  0.24010  0.87810  1.0000 -0.0730146063
C   C47       1.0  0.24010  0.41290  0.37810  1.0000 -0.0730146063
C   C48       1.0  0.41290  0.75990  0.87810  1.0000 -0.0730146063
C   C49       1.0  0.27940  0.93430  0.34090  1.0000 -0.1285683199
C   C50       1.0  0.93430  0.72060  0.84090  1.0000 -0.1285683199
C   C51       1.0  0.72060  0.06570  0.34090  1.0000 -0.1285683199
C   C52       1.0  0.06570  0.27940  0.84090  1.0000 -0.1285683199
C   C53       1.0  0.22060  0.43430  0.65910  1.0000 -0.1285683199
C   C54       1.0  0.43430  0.77940  0.15910  1.0000 -0.1285683199
C   C55       1.0  0.77940  0.56570  0.65910  1.0000 -0.1285683199
C   C56       1.0  0.56570  0.22060  0.15910  1.0000 -0.1285683199
C   C57       1.0  0.72060  0.06570  0.65910  1.0000 -0.1285683199
C   C58       1.0  0.06570  0.27940  0.15910  1.0000 -0.1285683199
C   C59       1.0  0.27940  0.93430  0.65910  1.0000 -0.1285683199
C   C60       1.0  0.93430  0.72060  0.15910  1.0000 -0.1285683199
C   C61       1.0  0.77940  0.56570  0.34090  1.0000 -0.1285683199
C   C62       1.0  0.56570  0.22060  0.84090  1.0000 -0.1285683199
C   C63       1.0  0.22060  0.43430  0.34090  1.0000 -0.1285683199
C   C64       1.0  0.43430  0.77940  0.84090  1.0000 -0.1285683199
C   C65       1.0  0.22170  0.98340  0.33890  1.0000 -0.1384135665
C   C66       1.0  0.98340  0.77830  0.83890  1.0000 -0.1384135665
C   C67       1.0  0.77830  0.01660  0.33890  1.0000 -0.1384135665
C   C68       1.0  0.01660  0.22170  0.83890  1.0000 -0.1384135665
C   C69       1.0  0.27830  0.48340  0.66110  1.0000 -0.1384135665
C   C70       1.0  0.48340  0.72170  0.16110  1.0000 -0.1384135665
C   C71       1.0  0.72170  0.51660  0.66110  1.0000 -0.1384135665
C   C72       1.0  0.51660  0.27830  0.16110  1.0000 -0.1384135665
C   C73       1.0  0.77830  0.01660  0.66110  1.0000 -0.1384135665
C   C74       1.0  0.01660  0.22170  0.16110  1.0000 -0.1384135665
C   C75       1.0  0.22170  0.98340  0.66110  1.0000 -0.1384135665
C   C76       1.0  0.98340  0.77830  0.16110  1.0000 -0.1384135665
C   C77       1.0  0.72170  0.51660  0.33890  1.0000 -0.1384135665
C   C78       1.0  0.51660  0.27830  0.83890  1.0000 -0.1384135665
C   C79       1.0  0.27830  0.48340  0.33890  1.0000 -0.1384135665
C   C80       1.0  0.48340  0.72170  0.83890  1.0000 -0.1384135665
C   C81       1.0  0.20260  0.96130  0.37690  1.0000 -0.0730146063
C   C82       1.0  0.96130  0.79740  0.87690  1.0000 -0.0730146063
C   C83       1.0  0.79740  0.03870  0.37690  1.0000 -0.0730146063
C   C84       1.0  0.03870  0.20260  0.87690  1.0000 -0.0730146063
C   C85       1.0  0.29740  0.46130  0.62310  1.0000 -0.0730146063
C   C86       1.0  0.46130  0.70260  0.12310  1.0000 -0.0730146063
C   C87       1.0  0.70260  0.53870  0.62310  1.0000 -0.0730146063
C   C88       1.0  0.53870  0.29740  0.12310  1.0000 -0.0730146063
C   C89       1.0  0.79740  0.03870  0.62310  1.0000 -0.0730146063
C   C90       1.0  0.03870  0.20260  0.12310  1.0000 -0.0730146063
C   C91       1.0  0.20260  0.96130  0.62310  1.0000 -0.0730146063
C   C92       1.0  0.96130  0.79740  0.12310  1.0000 -0.0730146063
C   C93       1.0  0.70260  0.53870  0.37690  1.0000 -0.0730146063
C   C94       1.0  0.53870  0.29740  0.87690  1.0000 -0.0730146063
C   C95       1.0  0.29740  0.46130  0.37690  1.0000 -0.0730146063
C   C96       1.0  0.46130  0.70260  0.87690  1.0000 -0.0730146063
C   C97       1.0  0.25930  0.97020  0.32070  1.0000 0.0812561793
C   C98       1.0  0.97020  0.74070  0.82070  1.0000 0.0812561793
C   C99       1.0  0.74070  0.02980  0.32070  1.0000 0.0812561793
C   C100      1.0  0.02980  0.25930  0.82070  1.0000 0.0812561793
C   C101      1.0  0.24070  0.47020  0.67930  1.0000 0.0812561793
C   C102      1.0  0.47020  0.75930  0.17930  1.0000 0.0812561793
C   C103      1.0  0.75930  0.52980  0.67930  1.0000 0.0812561793
C   C104      1.0  0.52980  0.24070  0.17930  1.0000 0.0812561793
C   C105      1.0  0.74070  0.02980  0.67930  1.0000 0.0812561793
C   C106      1.0  0.02980  0.25930  0.17930  1.0000 0.0812561793
C   C107      1.0  0.25930  0.97020  0.67930  1.0000 0.0812561793
C   C108      1.0  0.97020  0.74070  0.17930  1.0000 0.0812561793
C   C109      1.0  0.75930  0.52980  0.32070  1.0000 0.0812561793
C   C110      1.0  0.52980  0.24070  0.82070  1.0000 0.0812561793
C   C111      1.0  0.24070  0.47020  0.32070  1.0000 0.0812561793
C   C112      1.0  0.47020  0.75930  0.82070  1.0000 0.0812561793
C   C113      1.0  0.32420  0.99630  0.27790  1.0000 0.0812561793
C   C114      1.0  0.99630  0.67580  0.77790  1.0000 0.0812561793
C   C115      1.0  0.67580  0.00370  0.27790  1.0000 0.0812561793
C   C116      1.0  0.00370  0.32420  0.77790  1.0000 0.0812561793
C   C117      1.0  0.17580  0.49630  0.72210  1.0000 0.0812561793
C   C118      1.0  0.49630  0.82420  0.22210  1.0000 0.0812561793
C   C119      1.0  0.82420  0.50370  0.72210  1.0000 0.0812561793
C   C120      1.0  0.50370  0.17580  0.22210  1.0000 0.0812561793
C   C121      1.0  0.67580  0.00370  0.72210  1.0000 0.0812561793
C   C122      1.0  0.00370  0.32420  0.22210  1.0000 0.0812561793
C   C123      1.0  0.32420  0.99630  0.72210  1.0000 0.0812561793
C   C124      1.0  0.99630  0.67580  0.22210  1.0000 0.0812561793
C   C125      1.0  0.82420  0.50370  0.27790  1.0000 0.0812561793
C   C126      1.0  0.50370  0.17580  0.77790  1.0000 0.0812561793
C   C127      1.0  0.17580  0.49630  0.27790  1.0000 0.0812561793
C   C128      1.0  0.49630  0.82420  0.77790  1.0000 0.0812561793
C   C129      1.0  0.27969  0.99270  0.28040  1.0000 0.0399729559
C   C130      1.0  0.99270  0.72031  0.78040  1.0000 0.0399729559
C   C131      1.0  0.72031  0.00730  0.28040  1.0000 0.0399729559
C   C132      1.0  0.00730  0.27969  0.78040  1.0000 0.0399729559
C   C133      1.0  0.22031  0.49270  0.71960  1.0000 0.0399729559
C   C134      1.0  0.49270  0.77969  0.21960  1.0000 0.0399729559
C   C135      1.0  0.77969  0.50730  0.71960  1.0000 0.0399729559
C   C136      1.0  0.50730  0.22031  0.21960  1.0000 0.0399729559
C   C137      1.0  0.72031  0.00730  0.71960  1.0000 0.0399729559
C   C138      1.0  0.00730  0.27969  0.21960  1.0000 0.0399729559
C   C139      1.0  0.27969  0.99270  0.71960  1.0000 0.0399729559
C   C140      1.0  0.99270  0.72031  0.21960  1.0000 0.0399729559
C   C141      1.0  0.77969  0.50730  0.28040  1.0000 0.0399729559
C   C142      1.0  0.50730  0.22031  0.78040  1.0000 0.0399729559
C   C143      1.0  0.22031  0.49270  0.28040  1.0000 0.0399729559
C   C144      1.0  0.49270  0.77969  0.78040  1.0000 0.0399729559
C   C145      1.0  0.25560  0.01220  0.24460  1.0000 -0.1496320873
C   C146      1.0  0.01220  0.74440  0.74460  1.0000 -0.1496320873
C   C147      1.0  0.74440  0.98780  0.24460  1.0000 -0.1496320873
C   C148      1.0  0.98780  0.25560  0.74460  1.0000 -0.1496320873
C   C149      1.0  0.24440  0.51220  0.75540  1.0000 -0.1496320873
C   C150      1.0  0.51220  0.75560  0.25540  1.0000 -0.1496320873
C   C151      1.0  0.75560  0.48780  0.75540  1.0000 -0.1496320873
C   C152      1.0  0.48780  0.24440  0.25540  1.0000 -0.1496320873
C   C153      1.0  0.74440  0.98780  0.75540  1.0000 -0.1496320873
C   C154      1.0  0.98780  0.25560  0.25540  1.0000 -0.1496320873
C   C155      1.0  0.25560  0.01220  0.75540  1.0000 -0.1496320873
C   C156      1.0  0.01220  0.74440  0.25540  1.0000 -0.1496320873
C   C157      1.0  0.75560  0.48780  0.24460  1.0000 -0.1496320873
C   C158      1.0  0.48780  0.24440  0.74460  1.0000 -0.1496320873
C   C159      1.0  0.24440  0.51220  0.24460  1.0000 -0.1496320873
C   C160      1.0  0.51220  0.75560  0.74460  1.0000 -0.1496320873
C   C161      1.0  0.27600  0.03420  0.20740  1.0000 0.0399729559
C   C162      1.0  0.03420  0.72400  0.70740  1.0000 0.0399729559
C   C163      1.0  0.72400  0.96580  0.20740  1.0000 0.0399729559
C   C164      1.0  0.96580  0.27600  0.70740  1.0000 0.0399729559
C   C165      1.0  0.22400  0.53420  0.79260  1.0000 0.0399729559
C   C166      1.0  0.53420  0.77600  0.29260  1.0000 0.0399729559
C   C167      1.0  0.77600  0.46580  0.79260  1.0000 0.0399729559
C   C168      1.0  0.46580  0.22400  0.29260  1.0000 0.0399729559
C   C169      1.0  0.72400  0.96580  0.79260  1.0000 0.0399729559
C   C170      1.0  0.96580  0.27600  0.29260  1.0000 0.0399729559
C   C171      1.0  0.27600  0.03420  0.79260  1.0000 0.0399729559
C   C172      1.0  0.03420  0.72400  0.29260  1.0000 0.0399729559
C   C173      1.0  0.77600  0.46580  0.20740  1.0000 0.0399729559
C   C174      1.0  0.46580  0.22400  0.70740  1.0000 0.0399729559
C   C175      1.0  0.22400  0.53420  0.20740  1.0000 0.0399729559
C   C176      1.0  0.53420  0.77600  0.70740  1.0000 0.0399729559
C   C177      1.0  0.32044  0.03500  0.20830  1.0000 0.0647716408
C   C178      1.0  0.03500  0.67956  0.70830  1.0000 0.0647716408
C   C179      1.0  0.67956  0.96500  0.20830  1.0000 0.0655928549
C   C180      1.0  0.96500  0.32044  0.70830  1.0000 0.0655928549
C   C181      1.0  0.17956  0.53500  0.79170  1.0000 0.0647716408
C   C182      1.0  0.53500  0.82044  0.29170  1.0000 0.0655928549
C   C183      1.0  0.82044  0.46500  0.79170  1.0000 0.0655928549
C   C184      1.0  0.46500  0.17956  0.29170  1.0000 0.0647716408
C   C185      1.0  0.67956  0.96500  0.79170  1.0000 0.0655928549
C   C186      1.0  0.96500  0.32044  0.29170  1.0000 0.0655928549
C   C187      1.0  0.32044  0.03500  0.79170  1.0000 0.0647716408
C   C188      1.0  0.03500  0.67956  0.29170  1.0000 0.0647716408
C   C189      1.0  0.82044  0.46500  0.20830  1.0000 0.0647716408
C   C190      1.0  0.46500  0.17956  0.70830  1.0000 0.0647716408
C   C191      1.0  0.17956  0.53500  0.20830  1.0000 0.0647716408
C   C192      1.0  0.53500  0.82044  0.70830  1.0000 0.0647716408
C   C193      1.0  0.25171  0.05670  0.17020  1.0000 0.0812561793
C   C194      1.0  0.05670  0.74829  0.67020  1.0000 0.0812561793
C   C195      1.0  0.74829  0.94330  0.17020  1.0000 0.0812561793
C   C196      1.0  0.94330  0.25171  0.67020  1.0000 0.0812561793
C   C197      1.0  0.24829  0.55670  0.82980  1.0000 0.0812561793
C   C198      1.0  0.55670  0.75171  0.32980  1.0000 0.0812561793
C   C199      1.0  0.75171  0.44330  0.82980  1.0000 0.0812561793
C   C200      1.0  0.44330  0.24829  0.32980  1.0000 0.0812561793
C   C201      1.0  0.74829  0.94330  0.82980  1.0000 0.0812561793
C   C202      1.0  0.94330  0.25171  0.32980  1.0000 0.0812561793
C   C203      1.0  0.25171  0.05670  0.82980  1.0000 0.0812561793
C   C204      1.0  0.05670  0.74829  0.32980  1.0000 0.0812561793
C   C205      1.0  0.75171  0.44330  0.17020  1.0000 0.0812561793
C   C206      1.0  0.44330  0.24829  0.67020  1.0000 0.0812561793
C   C207      1.0  0.24829  0.55670  0.17020  1.0000 0.0812561793
C   C208      1.0  0.55670  0.75171  0.67020  1.0000 0.0812561793
C   C209      1.0  0.21380  0.04070  0.15530  1.0000 -0.1496320873
C   C210      1.0  0.04070  0.78620  0.65530  1.0000 -0.1496320873
C   C211      1.0  0.78620  0.95930  0.15530  1.0000 -0.1496320873
C   C212      1.0  0.95930  0.21380  0.65530  1.0000 -0.1496320873
C   C213      1.0  0.28620  0.54070  0.84470  1.0000 -0.1496320873
C   C214      1.0  0.54070  0.71380  0.34470  1.0000 -0.1496320873
C   C215      1.0  0.71380  0.45930  0.84470  1.0000 -0.1496320873
C   C216      1.0  0.45930  0.28620  0.34470  1.0000 -0.1496320873
C   C217      1.0  0.78620  0.95930  0.84470  1.0000 -0.1496320873
C   C218      1.0  0.95930  0.21380  0.34470  1.0000 -0.1496320873
C   C219      1.0  0.21380  0.04070  0.84470  1.0000 -0.1496320873
C   C220      1.0  0.04070  0.78620  0.34470  1.0000 -0.1496320873
C   C221      1.0  0.71380  0.45930  0.15530  1.0000 -0.1496320873
C   C222      1.0  0.45930  0.28620  0.65530  1.0000 -0.1496320873
C   C223      1.0  0.28620  0.54070  0.15530  1.0000 -0.1496320873
C   C224      1.0  0.54070  0.71380  0.65530  1.0000 -0.1496320873
C   C225      1.0  0.18980  0.06100  0.11890  1.0000 -0.0602067497
C   C226      1.0  0.06100  0.81020  0.61890  1.0000 -0.0602067497
C   C227      1.0  0.81020  0.93900  0.11890  1.0000 -0.0602067497
C   C228      1.0  0.93900  0.18980  0.61890  1.0000 -0.0602067497
C   C229      1.0  0.31020  0.56100  0.88110  1.0000 -0.0602067497
C   C230      1.0  0.56100  0.68980  0.38110  1.0000 -0.0602067497
C   C231      1.0  0.68980  0.43900  0.88110  1.0000 -0.0602067497
C   C232      1.0  0.43900  0.31020  0.38110  1.0000 -0.0602067497
C   C233      1.0  0.81020  0.93900  0.88110  1.0000 -0.0602067497
C   C234      1.0  0.93900  0.18980  0.38110  1.0000 -0.0602067497
C   C235      1.0  0.18980  0.06100  0.88110  1.0000 -0.0602067497
C   C236      1.0  0.06100  0.81020  0.38110  1.0000 -0.0602067497
C   C237      1.0  0.68980  0.43900  0.11890  1.0000 -0.0602067497
C   C238      1.0  0.43900  0.31020  0.61890  1.0000 -0.0602067497
C   C239      1.0  0.31020  0.56100  0.11890  1.0000 -0.0602067497
C   C240      1.0  0.56100  0.68980  0.61890  1.0000 -0.0602067497
C   C241      1.0  0.20520  0.09900  0.09930  1.0000 -0.0498039886
C   C242      1.0  0.09900  0.79480  0.59930  1.0000 -0.0498039886
C   C243      1.0  0.79480  0.90100  0.09930  1.0000 -0.0498039886
C   C244      1.0  0.90100  0.20520  0.59930  1.0000 -0.0498039886
C   C245      1.0  0.29480  0.59900  0.90070  1.0000 -0.0498039886
C   C246      1.0  0.59900  0.70520  0.40070  1.0000 -0.0498039886
C   C247      1.0  0.70520  0.40100  0.90070  1.0000 -0.0498039886
C   C248      1.0  0.40100  0.29480  0.40070  1.0000 -0.0498039886
C   C249      1.0  0.79480  0.90100  0.90070  1.0000 -0.0498039886
C   C250      1.0  0.90100  0.20520  0.40070  1.0000 -0.0498039886
C   C251      1.0  0.20520  0.09900  0.90070  1.0000 -0.0498039886
C   C252      1.0  0.09900  0.79480  0.40070  1.0000 -0.0498039886
C   C253      1.0  0.70520  0.40100  0.09930  1.0000 -0.0498039886
C   C254      1.0  0.40100  0.29480  0.59930  1.0000 -0.0498039886
C   C255      1.0  0.29480  0.59900  0.09930  1.0000 -0.0498039886
C   C256      1.0  0.59900  0.70520  0.59930  1.0000 -0.0498039886
C   C257      1.0  0.24320  0.11400  0.11500  1.0000 -0.0602067497
C   C258      1.0  0.11400  0.75680  0.61500  1.0000 -0.0602067497
C   C259      1.0  0.75680  0.88600  0.11500  1.0000 -0.0602067497
C   C260      1.0  0.88600  0.24320  0.61500  1.0000 -0.0602067497
C   C261      1.0  0.25680  0.61400  0.88500  1.0000 -0.0602067497
C   C262      1.0  0.61400  0.74320  0.38500  1.0000 -0.0602067497
C   C263      1.0  0.74320  0.38600  0.88500  1.0000 -0.0602067497
C   C264      1.0  0.38600  0.25680  0.38500  1.0000 -0.0602067497
C   C265      1.0  0.75680  0.88600  0.88500  1.0000 -0.0602067497
C   C266      1.0  0.88600  0.24320  0.38500  1.0000 -0.0602067497
C   C267      1.0  0.24320  0.11400  0.88500  1.0000 -0.0602067497
C   C268      1.0  0.11400  0.75680  0.38500  1.0000 -0.0602067497
C   C269      1.0  0.74320  0.38600  0.11500  1.0000 -0.0602067497
C   C270      1.0  0.38600  0.25680  0.61500  1.0000 -0.0602067497
C   C271      1.0  0.25680  0.61400  0.11500  1.0000 -0.0602067497
C   C272      1.0  0.61400  0.74320  0.61500  1.0000 -0.0602067497
C   C273      1.0  0.26590  0.09330  0.15050  1.0000 -0.1384135665
C   C274      1.0  0.09330  0.73410  0.65050  1.0000 -0.1384135665
C   C275      1.0  0.73410  0.90670  0.15050  1.0000 -0.1384135665
C   C276      1.0  0.90670  0.26590  0.65050  1.0000 -0.1384135665
C   C277      1.0  0.23410  0.59330  0.84950  1.0000 -0.1384135665
C   C278      1.0  0.59330  0.76590  0.34950  1.0000 -0.1384135665
C   C279      1.0  0.76590  0.40670  0.84950  1.0000 -0.1384135665
C   C280      1.0  0.40670  0.23410  0.34950  1.0000 -0.1384135665
C   C281      1.0  0.73410  0.90670  0.84950  1.0000 -0.1384135665
C   C282      1.0  0.90670  0.26590  0.34950  1.0000 -0.1384135665
C   C283      1.0  0.26590  0.09330  0.84950  1.0000 -0.1384135665
C   C284      1.0  0.09330  0.73410  0.34950  1.0000 -0.1384135665
C   C285      1.0  0.76590  0.40670  0.15050  1.0000 -0.1384135665
C   C286      1.0  0.40670  0.23410  0.65050  1.0000 -0.1384135665
C   C287      1.0  0.23410  0.59330  0.15050  1.0000 -0.1384135665
C   C288      1.0  0.59330  0.76590  0.65050  1.0000 -0.1384135665
C   C289      1.0  0.18020  0.12180  0.06320  1.0000 0.5806097273
C   C290      1.0  0.12180  0.81980  0.56320  1.0000 0.5806097273
C   C291      1.0  0.81980  0.87820  0.06320  1.0000 0.5806097273
C   C292      1.0  0.87820  0.18020  0.56320  1.0000 0.5806097273
C   C293      1.0  0.31980  0.62180  0.93680  1.0000 0.5806097273
C   C294      1.0  0.62180  0.68020  0.43680  1.0000 0.5806097273
C   C295      1.0  0.68020  0.37820  0.93680  1.0000 0.5806097273
C   C296      1.0  0.37820  0.31980  0.43680  1.0000 0.5806097273
C   C297      1.0  0.81980  0.87820  0.93680  1.0000 0.5806097273
C   C298      1.0  0.87820  0.18020  0.43680  1.0000 0.5806097273
C   C299      1.0  0.18020  0.12180  0.93680  1.0000 0.5806097273
C   C300      1.0  0.12180  0.81980  0.43680  1.0000 0.5806097273
C   C301      1.0  0.68020  0.37820  0.06320  1.0000 0.5806097273
C   C302      1.0  0.37820  0.31980  0.56320  1.0000 0.5806097273
C   C303      1.0  0.31980  0.62180  0.06320  1.0000 0.5806097273
C   C304      1.0  0.62180  0.68020  0.56320  1.0000 0.5806097273
S   S1        1.0  0.43211  0.05600  0.34416  1.0000 1.3689770472
S   S2        1.0  0.05600  0.56789  0.84416  1.0000 1.3788856757
S   S3        1.0  0.56789  0.94400  0.34416  1.0000 1.3788856757
S   S4        1.0  0.94400  0.43211  0.84416  1.0000 1.3689770472
S   S5        1.0  0.06789  0.55600  0.65584  1.0000 1.3788856757
S   S6        1.0  0.55600  0.93211  0.15584  1.0000 1.3788856757
S   S7        1.0  0.93211  0.44400  0.65584  1.0000 1.3788856757
S   S8        1.0  0.44400  0.06789  0.15584  1.0000 1.3788856757
S   S9        1.0  0.56789  0.94400  0.65584  1.0000 1.3788856757
S   S10       1.0  0.94400  0.43211  0.15584  1.0000 1.3689770472
S   S11       1.0  0.43211  0.05600  0.65584  1.0000 1.3689770472
S   S12       1.0  0.05600  0.56789  0.15584  1.0000 1.3788856757
S   S13       1.0  0.93211  0.44400  0.34416  1.0000 1.3788856757
S   S14       1.0  0.44400  0.06789  0.84416  1.0000 1.3788856757
S   S15       1.0  0.06789  0.55600  0.34416  1.0000 1.3788856757
S   S16       1.0  0.55600  0.93211  0.84416  1.0000 1.3788856757
S   S17       1.0  0.41945  0.91945  0.25000  1.0000 1.3788856757
S   S18       1.0  0.91945  0.58055  0.75000  1.0000 1.3788856757
S   S19       1.0  0.58055  0.08055  0.25000  1.0000 1.3788856757
S   S20       1.0  0.08055  0.41945  0.75000  1.0000 1.3788856757
S   S21       1.0  0.58055  0.08055  0.75000  1.0000 1.3788856757
S   S22       1.0  0.08055  0.41945  0.25000  1.0000 1.3788856757
S   S23       1.0  0.41945  0.91945  0.75000  1.0000 1.3788856757
S   S24       1.0  0.91945  0.58055  0.25000  1.0000 1.3788856757
N   N1        1.0  0.34408  0.01703  0.24286  1.0000 -0.2138246208
N   N2        1.0  0.01703  0.65592  0.74286  1.0000 -0.2138246208
N   N3        1.0  0.65592  0.98297  0.24286  1.0000 -0.2138246208
N   N4        1.0  0.98297  0.34408  0.74286  1.0000 -0.2138246208
N   N5        1.0  0.15592  0.51703  0.75714  1.0000 -0.2138246208
N   N6        1.0  0.51703  0.84408  0.25714  1.0000 -0.2138246208
N   N7        1.0  0.84408  0.48297  0.75714  1.0000 -0.2138246208
N   N8        1.0  0.48297  0.15592  0.25714  1.0000 -0.2138246208
N   N9        1.0  0.65592  0.98297  0.75714  1.0000 -0.2138246208
N   N10       1.0  0.98297  0.34408  0.25714  1.0000 -0.2138246208
N   N11       1.0  0.34408  0.01703  0.75714  1.0000 -0.2138246208
N   N12       1.0  0.01703  0.65592  0.25714  1.0000 -0.2138246208
N   N13       1.0  0.84408  0.48297  0.24286  1.0000 -0.2138246208
N   N14       1.0  0.48297  0.15592  0.74286  1.0000 -0.2138246208
N   N15       1.0  0.15592  0.51703  0.24286  1.0000 -0.2138246208
N   N16       1.0  0.51703  0.84408  0.74286  1.0000 -0.2138246208
O   O1        1.0  0.19510  0.15695  0.04884  1.0000 -0.5089536293
O   O2        1.0  0.15695  0.80490  0.54884  1.0000 -0.5089536293
O   O3        1.0  0.80490  0.84305  0.04884  1.0000 -0.5089536293
O   O4        1.0  0.84305  0.19510  0.54884  1.0000 -0.5089536293
O   O5        1.0  0.30490  0.65695  0.95116  1.0000 -0.5089536293
O   O6        1.0  0.65695  0.69510  0.45116  1.0000 -0.5089536293
O   O7        1.0  0.69510  0.34305  0.95116  1.0000 -0.5089536293
O   O8        1.0  0.34305  0.30490  0.45116  1.0000 -0.5089536293
O   O9        1.0  0.80490  0.84305  0.95116  1.0000 -0.5089536293
O   O10       1.0  0.84305  0.19510  0.45116  1.0000 -0.5089536293
O   O11       1.0  0.19510  0.15695  0.95116  1.0000 -0.5089536293
O   O12       1.0  0.15695  0.80490  0.45116  1.0000 -0.5089536293
O   O13       1.0  0.69510  0.34305  0.04884  1.0000 -0.5089536293
O   O14       1.0  0.34305  0.30490  0.54884  1.0000 -0.5089536293
O   O15       1.0  0.30490  0.65695  0.04884  1.0000 -0.5089536293
O   O16       1.0  0.65695  0.69510  0.54884  1.0000 -0.5089536293
O   O17       1.0  0.14601  0.10478  0.04909  1.0000 -0.500226781
O   O18       1.0  0.10478  0.85399  0.54909  1.0000 -0.500226781
O   O19       1.0  0.85399  0.89522  0.04909  1.0000 -0.500226781
O   O20       1.0  0.89522  0.14601  0.54909  1.0000 -0.500226781
O   O21       1.0  0.35399  0.60478  0.95091  1.0000 -0.500226781
O   O22       1.0  0.60478  0.64601  0.45091  1.0000 -0.500226781
O   O23       1.0  0.64601  0.39522  0.95091  1.0000 -0.500226781
O   O24       1.0  0.39522  0.35399  0.45091  1.0000 -0.500226781
O   O25       1.0  0.85399  0.89522  0.95091  1.0000 -0.500226781
O   O26       1.0  0.89522  0.14601  0.45091  1.0000 -0.500226781
O   O27       1.0  0.14601  0.10478  0.95091  1.0000 -0.500226781
O   O28       1.0  0.10478  0.85399  0.45091  1.0000 -0.500226781
O   O29       1.0  0.64601  0.39522  0.04909  1.0000 -0.500226781
O   O30       1.0  0.39522  0.35399  0.54909  1.0000 -0.500226781
O   O31       1.0  0.35399  0.60478  0.04909  1.0000 -0.500226781
O   O32       1.0  0.60478  0.64601  0.54909  1.0000 -0.500226781
O   O33       1.0  0.21796  0.86918  0.45075  1.0000 -0.500226781
O   O34       1.0  0.86918  0.78204  0.95075  1.0000 -0.500226781
O   O35       1.0  0.78204  0.13082  0.45075  1.0000 -0.500226781
O   O36       1.0  0.13082  0.21796  0.95075  1.0000 -0.500226781
O   O37       1.0  0.28204  0.36918  0.54925  1.0000 -0.500226781
O   O38       1.0  0.36918  0.71796  0.04925  1.0000 -0.500226781
O   O39       1.0  0.71796  0.63082  0.54925  1.0000 -0.500226781
O   O40       1.0  0.63082  0.28204  0.04925  1.0000 -0.500226781
O   O41       1.0  0.78204  0.13082  0.54925  1.0000 -0.500226781
O   O42       1.0  0.13082  0.21796  0.04925  1.0000 -0.500226781
O   O43       1.0  0.21796  0.86918  0.54925  1.0000 -0.500226781
O   O44       1.0  0.86918  0.78204  0.04925  1.0000 -0.500226781
O   O45       1.0  0.71796  0.63082  0.45075  1.0000 -0.500226781
O   O46       1.0  0.63082  0.28204  0.95075  1.0000 -0.500226781
O   O47       1.0  0.28204  0.36918  0.45075  1.0000 -0.500226781
O   O48       1.0  0.36918  0.71796  0.95075  1.0000 -0.500226781
O   O49       1.0  0.16539  0.91733  0.45027  1.0000 -0.5089536293
O   O50       1.0  0.91733  0.83461  0.95027  1.0000 -0.5089536293
O   O51       1.0  0.83461  0.08267  0.45027  1.0000 -0.5089536293
O   O52       1.0  0.08267  0.16539  0.95027  1.0000 -0.5089536293
O   O53       1.0  0.33461  0.41733  0.54973  1.0000 -0.5089536293
O   O54       1.0  0.41733  0.66539  0.04973  1.0000 -0.5089536293
O   O55       1.0  0.66539  0.58267  0.54973  1.0000 -0.5089536293
O   O56       1.0  0.58267  0.33461  0.04973  1.0000 -0.5089536293
O   O57       1.0  0.83461  0.08267  0.54973  1.0000 -0.5089536293
O   O58       1.0  0.08267  0.16539  0.04973  1.0000 -0.5089536293
O   O59       1.0  0.16539  0.91733  0.54973  1.0000 -0.5089536293
O   O60       1.0  0.91733  0.83461  0.04973  1.0000 -0.5089536293
O   O61       1.0  0.66539  0.58267  0.45027  1.0000 -0.5089536293
O   O62       1.0  0.58267  0.33461  0.95027  1.0000 -0.5089536293
O   O63       1.0  0.33461  0.41733  0.45027  1.0000 -0.5089536293
O   O64       1.0  0.41733  0.66539  0.95027  1.0000 -0.5089536293
O   O65       1.0  0.47009  0.02991  0.25000  1.0000 -0.9278917837
O   O66       1.0  0.02991  0.52991  0.75000  1.0000 -0.9278917837
O   O67       1.0  0.52991  0.97009  0.25000  1.0000 -0.9278917837
O   O68       1.0  0.97009  0.47009  0.75000  1.0000 -0.9278917837
O   O69       1.0  0.52991  0.97009  0.75000  1.0000 -0.9278917837
O   O70       1.0  0.97009  0.47009  0.25000  1.0000 -0.9278917837
O   O71       1.0  0.47009  0.02991  0.75000  1.0000 -0.9278917837
O   O72       1.0  0.02991  0.52991  0.25000  1.0000 -0.9278917837
O   O73       1.0  0.40016  0.03438  0.31434  1.0000 -0.6275752488
O   O74       1.0  0.03438  0.59984  0.81434  1.0000 -0.6275752488
O   O75       1.0  0.59984  0.96562  0.31434  1.0000 -0.6275752488
O   O76       1.0  0.96562  0.40016  0.81434  1.0000 -0.6275752488
O   O77       1.0  0.09984  0.53438  0.68566  1.0000 -0.6275752488
O   O78       1.0  0.53438  0.90016  0.18566  1.0000 -0.6275752488
O   O79       1.0  0.90016  0.46562  0.68566  1.0000 -0.6275752488
O   O80       1.0  0.46562  0.09984  0.18566  1.0000 -0.6275752488
O   O81       1.0  0.59984  0.96562  0.68566  1.0000 -0.6275752488
O   O82       1.0  0.96562  0.40016  0.18566  1.0000 -0.6275752488
O   O83       1.0  0.40016  0.03438  0.68566  1.0000 -0.6275752488
O   O84       1.0  0.03438  0.59984  0.18566  1.0000 -0.6275752488
O   O85       1.0  0.90016  0.46562  0.31434  1.0000 -0.6275752488
O   O86       1.0  0.46562  0.09984  0.81434  1.0000 -0.6275752488
O   O87       1.0  0.09984  0.53438  0.31434  1.0000 -0.6275752488
O   O88       1.0  0.53438  0.90016  0.81434  1.0000 -0.6275752488
O   O89       1.0  0.46813  0.02586  0.35192  1.0000 -0.6031351401
O   O90       1.0  0.02586  0.53187  0.85192  1.0000 -0.6031351401
O   O91       1.0  0.53187  0.97414  0.35192  1.0000 -0.6031351401
O   O92       1.0  0.97414  0.46813  0.85192  1.0000 -0.6031351401
O   O93       1.0  0.03187  0.52586  0.64808  1.0000 -0.6056579578
O   O94       1.0  0.52586  0.96813  0.14808  1.0000 -0.6031351401
O   O95       1.0  0.96813  0.47414  0.64808  1.0000 -0.6031351401
O   O96       1.0  0.47414  0.03187  0.14808  1.0000 -0.6031351401
O   O97       1.0  0.53187  0.97414  0.64808  1.0000 -0.6031351401
O   O98       1.0  0.97414  0.46813  0.14808  1.0000 -0.6031351401
O   O99       1.0  0.46813  0.02586  0.64808  1.0000 -0.6031351401
O   O100      1.0  0.02586  0.53187  0.14808  1.0000 -0.6031351401
O   O101      1.0  0.96813  0.47414  0.35192  1.0000 -0.6031351401
O   O102      1.0  0.47414  0.03187  0.85192  1.0000 -0.6031351401
O   O103      1.0  0.03187  0.52586  0.35192  1.0000 -0.6056579578
O   O104      1.0  0.52586  0.96813  0.85192  1.0000 -0.6031351401
O   O105      1.0  0.44760  0.09350  0.31931  1.0000 -0.6275752488
O   O106      1.0  0.09350  0.55240  0.81931  1.0000 -0.6275752488
O   O107      1.0  0.55240  0.90650  0.31931  1.0000 -0.6275752488
O   O108      1.0  0.90650  0.44760  0.81931  1.0000 -0.6275752488
O   O109      1.0  0.05240  0.59350  0.68069  1.0000 -0.6275752488
O   O110      1.0  0.59350  0.94760  0.18069  1.0000 -0.6275752488
O   O111      1.0  0.94760  0.40650  0.68069  1.0000 -0.6275752488
O   O112      1.0  0.40650  0.05240  0.18069  1.0000 -0.6275752488
O   O113      1.0  0.55240  0.90650  0.68069  1.0000 -0.6275752488
O   O114      1.0  0.90650  0.44760  0.18069  1.0000 -0.6275752488
O   O115      1.0  0.44760  0.09350  0.68069  1.0000 -0.6275752488
O   O116      1.0  0.09350  0.55240  0.18069  1.0000 -0.6275752488
O   O117      1.0  0.94760  0.40650  0.31931  1.0000 -0.6275752488
O   O118      1.0  0.40650  0.05240  0.81931  1.0000 -0.6275752488
O   O119      1.0  0.05240  0.59350  0.31931  1.0000 -0.6275752488
O   O120      1.0  0.59350  0.94760  0.81931  1.0000 -0.6275752488
O   O121      1.0  0.41386  0.06743  0.38886  1.0000 -0.5272434093
O   O122      1.0  0.06743  0.58614  0.88886  1.0000 -0.5272434093
O   O123      1.0  0.58614  0.93257  0.38886  1.0000 -0.5242092836
O   O124      1.0  0.93257  0.41386  0.88886  1.0000 -0.5272434093
O   O125      1.0  0.08614  0.56743  0.61114  1.0000 -0.5272434093
O   O126      1.0  0.56743  0.91386  0.11114  1.0000 -0.5272434093
O   O127      1.0  0.91386  0.43257  0.61114  1.0000 -0.5242092836
O   O128      1.0  0.43257  0.08614  0.11114  1.0000 -0.5242092836
O   O129      1.0  0.58614  0.93257  0.61114  1.0000 -0.5242092836
O   O130      1.0  0.93257  0.41386  0.11114  1.0000 -0.5272434093
O   O131      1.0  0.41386  0.06743  0.61114  1.0000 -0.5272434093
O   O132      1.0  0.06743  0.58614  0.11114  1.0000 -0.5272434093
O   O133      1.0  0.91386  0.43257  0.38886  1.0000 -0.5272434093
O   O134      1.0  0.43257  0.08614  0.88886  1.0000 -0.5242092836
O   O135      1.0  0.08614  0.56743  0.38886  1.0000 -0.5272434093
O   O136      1.0  0.56743  0.91386  0.88886  1.0000 -0.5272434093
O   O137      1.0  0.41900  0.95894  0.22080  1.0000 -0.6765192973
O   O138      1.0  0.95894  0.58100  0.72080  1.0000 -0.6765192973
O   O139      1.0  0.58100  0.04106  0.22080  1.0000 -0.6765192973
O   O140      1.0  0.04106  0.41900  0.72080  1.0000 -0.6765192973
O   O141      1.0  0.08100  0.45894  0.77920  1.0000 -0.6765192973
O   O142      1.0  0.45894  0.91900  0.27920  1.0000 -0.6765192973
O   O143      1.0  0.91900  0.54106  0.77920  1.0000 -0.6765192973
O   O144      1.0  0.54106  0.08100  0.27920  1.0000 -0.6765192973
O   O145      1.0  0.58100  0.04106  0.77920  1.0000 -0.6765192973
O   O146      1.0  0.04106  0.41900  0.27920  1.0000 -0.6765192973
O   O147      1.0  0.41900  0.95894  0.77920  1.0000 -0.6765192973
O   O148      1.0  0.95894  0.58100  0.27920  1.0000 -0.6765192973
O   O149      1.0  0.91900  0.54106  0.22080  1.0000 -0.6765192973
O   O150      1.0  0.54106  0.08100  0.72080  1.0000 -0.6765192973
O   O151      1.0  0.08100  0.45894  0.22080  1.0000 -0.6765192973
O   O152      1.0  0.45894  0.91900  0.72080  1.0000 -0.6765192973
O   O153      1.0  0.38253  0.91860  0.28180  1.0000 -0.6275752488
O   O154      1.0  0.91860  0.61747  0.78180  1.0000 -0.6275752488
O   O155      1.0  0.61747  0.08140  0.28180  1.0000 -0.6275752488
O   O156      1.0  0.08140  0.38253  0.78180  1.0000 -0.6275752488
O   O157      1.0  0.11747  0.41860  0.71820  1.0000 -0.6275752488
O   O158      1.0  0.41860  0.88253  0.21820  1.0000 -0.6275752488
O   O159      1.0  0.88253  0.58140  0.71820  1.0000 -0.6275752488
O   O160      1.0  0.58140  0.11747  0.21820  1.0000 -0.6275752488
O   O161      1.0  0.61747  0.08140  0.71820  1.0000 -0.6275752488
O   O162      1.0  0.08140  0.38253  0.21820  1.0000 -0.6275752488
O   O163      1.0  0.38253  0.91860  0.71820  1.0000 -0.6275752488
O   O164      1.0  0.91860  0.61747  0.21820  1.0000 -0.6275752488
O   O165      1.0  0.88253  0.58140  0.28180  1.0000 -0.6275752488
O   O166      1.0  0.58140  0.11747  0.78180  1.0000 -0.6275752488
O   O167      1.0  0.11747  0.41860  0.28180  1.0000 -0.6275752488
O   O168      1.0  0.41860  0.88253  0.78180  1.0000 -0.6275752488
