# DDEC6 charges by PACMAN v1.1 (https://github.com/mtap-research/PACMAN-charge/)
data_2017[Eu][nan]2[ASR]2
_chemical_formula_sum              "Eu4 H36 C60 N4 O24"
_cell_length_a       11.8331
_cell_length_b       11.8331
_cell_length_c       20.3072
_cell_angle_alpha    66.8688
_cell_angle_beta     113.131
_cell_angle_gamma    117.121

_symmetry_space_group_name_H-M    "P 1"
_symmetry_Int_Tables_number       1

loop_
  _symmetry_equiv_pos_as_xyz
  'x, y, z'

loop_
  _atom_site_type_symbol
  _atom_site_label
  _atom_site_symmetry_multiplicity
  _atom_site_fract_x
  _atom_site_fract_y
  _atom_site_fract_z
  _atom_site_occupancy
  _atom_site_charge
Eu  Eu1       1.0  0.41984  0.34606  0.88491  1.0000 2.0023999183
Eu  Eu2       1.0  0.34606  0.41984  0.61509  1.0000 2.0023999183
Eu  Eu3       1.0  0.58016  0.65394  0.11509  1.0000 2.0023999183
Eu  Eu4       1.0  0.65394  0.58016  0.38491  1.0000 2.0023999183
H   H1        1.0  0.69030  0.33070  0.13990  1.0000 0.1192838928
H   H2        1.0  0.57800  0.98600  0.09830  1.0000 0.1460509493
H   H3        1.0  0.76230  0.03130  0.30380  1.0000 0.1192838928
H   H4        1.0  0.77760  0.35380  0.25990  1.0000 0.1302005915
H   H5        1.0  0.77780  0.22860  0.32700  1.0000 0.1302005915
H   H6        1.0  0.98140  0.20780  0.40120  1.0000 0.1100759289
H   H7        1.0  0.20770  0.28130  0.42680  1.0000 0.1192838928
H   H8        1.0  0.19180  0.51960  0.21980  1.0000 0.1100759289
H   H9        1.0  0.96480  0.44500  0.19550  1.0000 0.1100759289
H   H10       1.0  0.33070  0.69030  0.36010  1.0000 0.1192838928
H   H11       1.0  0.98600  0.57800  0.40170  1.0000 0.1460509493
H   H12       1.0  0.03130  0.76230  0.19620  1.0000 0.1192838928
H   H13       1.0  0.35380  0.77760  0.24010  1.0000 0.1302005915
H   H14       1.0  0.22860  0.77780  0.17300  1.0000 0.1302005915
H   H15       1.0  0.20780  0.98140  0.09880  1.0000 0.1100759289
H   H16       1.0  0.28130  0.20770  0.07320  1.0000 0.1192838928
H   H17       1.0  0.51960  0.19180  0.28020  1.0000 0.1100759289
H   H18       1.0  0.44500  0.96480  0.30450  1.0000 0.1100759289
H   H19       1.0  0.30970  0.66930  0.86010  1.0000 0.1192838928
H   H20       1.0  0.42200  0.01400  0.90170  1.0000 0.1460509493
H   H21       1.0  0.23770  0.96870  0.69620  1.0000 0.1192838928
H   H22       1.0  0.22240  0.64620  0.74010  1.0000 0.1302005915
H   H23       1.0  0.22220  0.77140  0.67300  1.0000 0.1302005915
H   H24       1.0  0.01860  0.79220  0.59880  1.0000 0.1100759289
H   H25       1.0  0.79230  0.71870  0.57320  1.0000 0.1192838928
H   H26       1.0  0.80820  0.48040  0.78020  1.0000 0.1100759289
H   H27       1.0  0.03520  0.55500  0.80450  1.0000 0.1100759289
H   H28       1.0  0.66930  0.30970  0.63990  1.0000 0.1192838928
H   H29       1.0  0.01400  0.42200  0.59830  1.0000 0.1460509493
H   H30       1.0  0.96870  0.23770  0.80380  1.0000 0.1192838928
H   H31       1.0  0.64620  0.22240  0.75990  1.0000 0.1302005915
H   H32       1.0  0.77140  0.22220  0.82700  1.0000 0.1302005915
H   H33       1.0  0.79220  0.01860  0.90120  1.0000 0.1100759289
H   H34       1.0  0.71870  0.79230  0.92680  1.0000 0.1192838928
H   H35       1.0  0.48040  0.80820  0.71980  1.0000 0.1100759289
H   H36       1.0  0.55500  0.03520  0.69550  1.0000 0.1100759289
C   C1        1.0  0.68435  0.24337  0.15619  1.0000 0.0007624339
C   C2        1.0  0.62300  0.16744  0.10645  1.0000 -0.0534997586
C   C3        1.0  0.61574  0.03782  0.13139  1.0000 -0.0819016652
C   C4        1.0  0.66569  0.98593  0.20652  1.0000 -0.0712581346
C   C5        1.0  0.72679  0.06497  0.25385  1.0000 -0.0269903264
C   C6        1.0  0.56001  0.22581  0.02778  1.0000 0.5576797841
C   C7        1.0  0.65044  0.84194  0.23741  1.0000 0.6407751707
C   C8        1.0  0.80357  0.27741  0.28094  1.0000 -0.2115427436
C   C9        1.0  0.95186  0.32144  0.29628  1.0000 0.0822499661
C   C10       1.0  0.02391  0.27111  0.36515  1.0000 -0.1868687043
C   C11       1.0  0.15960  0.31522  0.38032  1.0000 -0.0819016652
C   C12       1.0  0.22495  0.40969  0.32698  1.0000 -0.042901344
C   C13       1.0  0.15026  0.45786  0.25656  1.0000 -0.1094052674
C   C14       1.0  0.01417  0.41299  0.24210  1.0000 -0.1868687043
C   C15       1.0  0.37144  0.46518  0.34531  1.0000 0.5576797841
C   C16       1.0  0.24337  0.68435  0.34381  1.0000 -0.0009616952
C   C17       1.0  0.16744  0.62300  0.39355  1.0000 -0.0534997586
C   C18       1.0  0.03782  0.61574  0.36861  1.0000 -0.0819016652
C   C19       1.0  0.98593  0.66569  0.29348  1.0000 -0.0712581346
C   C20       1.0  0.06497  0.72679  0.24615  1.0000 -0.0269903264
C   C21       1.0  0.22581  0.56001  0.47222  1.0000 0.5576797841
C   C22       1.0  0.84194  0.65044  0.26259  1.0000 0.6407751707
C   C23       1.0  0.27741  0.80357  0.21906  1.0000 -0.2115427436
C   C24       1.0  0.32144  0.95186  0.20372  1.0000 0.0822499661
C   C25       1.0  0.27111  0.02391  0.13485  1.0000 -0.1868687043
C   C26       1.0  0.31522  0.15960  0.11968  1.0000 -0.0819016652
C   C27       1.0  0.40969  0.22495  0.17302  1.0000 -0.042901344
C   C28       1.0  0.45786  0.15026  0.24344  1.0000 -0.1094052674
C   C29       1.0  0.41299  0.01417  0.25790  1.0000 -0.1868687043
C   C30       1.0  0.46518  0.37144  0.15469  1.0000 0.5576797841
C   C31       1.0  0.31565  0.75663  0.84381  1.0000 -0.0009616952
C   C32       1.0  0.37700  0.83256  0.89355  1.0000 -0.0534997586
C   C33       1.0  0.38426  0.96218  0.86861  1.0000 -0.0712581346
C   C34       1.0  0.33431  0.01407  0.79348  1.0000 -0.0712581346
C   C35       1.0  0.27321  0.93503  0.74615  1.0000 -0.0269903264
C   C36       1.0  0.43999  0.77419  0.97222  1.0000 0.5576797841
C   C37       1.0  0.34956  0.15806  0.76259  1.0000 0.6407751707
C   C38       1.0  0.19643  0.72259  0.71906  1.0000 -0.2115427436
C   C39       1.0  0.04814  0.67856  0.70372  1.0000 0.0822499661
C   C40       1.0  0.97609  0.72889  0.63485  1.0000 -0.1868687043
C   C41       1.0  0.84040  0.68478  0.61968  1.0000 -0.0819016652
C   C42       1.0  0.77505  0.59031  0.67302  1.0000 -0.042901344
C   C43       1.0  0.84974  0.54214  0.74344  1.0000 -0.1094052674
C   C44       1.0  0.98583  0.58701  0.75790  1.0000 -0.1868687043
C   C45       1.0  0.62856  0.53482  0.65469  1.0000 0.5576797841
C   C46       1.0  0.75663  0.31565  0.65619  1.0000 0.0007624339
C   C47       1.0  0.83256  0.37700  0.60645  1.0000 -0.0534997586
C   C48       1.0  0.96218  0.38426  0.63139  1.0000 -0.0712581346
C   C49       1.0  0.01407  0.33431  0.70652  1.0000 -0.0712581346
C   C50       1.0  0.93503  0.27321  0.75385  1.0000 -0.0269903264
C   C51       1.0  0.77419  0.43999  0.52778  1.0000 0.5576797841
C   C52       1.0  0.15806  0.34956  0.73741  1.0000 0.6407751707
C   C53       1.0  0.72259  0.19643  0.78094  1.0000 -0.2115427436
C   C54       1.0  0.67856  0.04814  0.79628  1.0000 0.0822499661
C   C55       1.0  0.72889  0.97609  0.86515  1.0000 -0.1868687043
C   C56       1.0  0.68478  0.84040  0.88032  1.0000 -0.0819016652
C   C57       1.0  0.59031  0.77505  0.82698  1.0000 -0.042901344
C   C58       1.0  0.54214  0.84974  0.75656  1.0000 -0.1094052674
C   C59       1.0  0.58701  0.98583  0.74210  1.0000 -0.1868687043
C   C60       1.0  0.53482  0.62856  0.84531  1.0000 0.5576797841
N   N1        1.0  0.73570  0.19250  0.22812  1.0000 0.0738728424
N   N2        1.0  0.19250  0.73570  0.27188  1.0000 0.0738728424
N   N3        1.0  0.26430  0.80750  0.77188  1.0000 0.0738728424
N   N4        1.0  0.80750  0.26430  0.72812  1.0000 0.0738728424
O   O1        1.0  0.53285  0.17287  0.97835  1.0000 -0.6330318631
O   O2        1.0  0.53442  0.32478  0.01595  1.0000 -0.6411711754
O   O3        1.0  0.61599  0.77829  0.19174  1.0000 -0.6887479158
O   O4        1.0  0.66914  0.79738  0.30617  1.0000 -0.6826450334
O   O5        1.0  0.43660  0.42332  0.40983  1.0000 -0.6330318631
O   O6        1.0  0.43044  0.55480  0.29705  1.0000 -0.6826450334
O   O7        1.0  0.17287  0.53285  0.52165  1.0000 -0.6330318631
O   O8        1.0  0.32478  0.53442  0.48405  1.0000 -0.6411711754
O   O9        1.0  0.77829  0.61599  0.30826  1.0000 -0.6887479158
O   O10       1.0  0.79738  0.66914  0.19383  1.0000 -0.6826450334
O   O11       1.0  0.42332  0.43660  0.09017  1.0000 -0.6330318631
O   O12       1.0  0.55480  0.43044  0.20295  1.0000 -0.6826450334
O   O13       1.0  0.46715  0.82713  0.02165  1.0000 -0.6330318631
O   O14       1.0  0.46558  0.67522  0.98405  1.0000 -0.6411711754
O   O15       1.0  0.38401  0.22171  0.80826  1.0000 -0.6887479158
O   O16       1.0  0.33086  0.20262  0.69383  1.0000 -0.6826450334
O   O17       1.0  0.56340  0.57668  0.59017  1.0000 -0.6330318631
O   O18       1.0  0.56956  0.44520  0.70295  1.0000 -0.6826450334
O   O19       1.0  0.82713  0.46715  0.47835  1.0000 -0.6330318631
O   O20       1.0  0.67522  0.46558  0.51595  1.0000 -0.6411711754
O   O21       1.0  0.22171  0.38401  0.69174  1.0000 -0.6887479158
O   O22       1.0  0.20262  0.33086  0.80617  1.0000 -0.6826450334
O   O23       1.0  0.57668  0.56340  0.90983  1.0000 -0.6330318631
O   O24       1.0  0.44520  0.56956  0.79705  1.0000 -0.6826450334
