# DDEC6 charges by PACMAN v1.1 (https://github.com/mtap-research/PACMAN-charge/)
data_2017[Cu][zst]3[ASR]1
_chemical_formula_sum              "Cu4 H48 C80 N24 O16 F16"
_cell_length_a       9.636
_cell_length_b       9.885
_cell_length_c       24.555
_cell_angle_alpha    90
_cell_angle_beta     111.479
_cell_angle_gamma    90

_symmetry_space_group_name_H-M    "P 1"
_symmetry_Int_Tables_number       1

loop_
  _symmetry_equiv_pos_as_xyz
  'x, y, z'

loop_
  _atom_site_type_symbol
  _atom_site_label
  _atom_site_symmetry_multiplicity
  _atom_site_fract_x
  _atom_site_fract_y
  _atom_site_fract_z
  _atom_site_occupancy
  _atom_site_charge
Cu  Cu1       1.0  0.79739  0.54209  0.24146  1.0000 0.737691823
Cu  Cu2       1.0  0.20261  0.04209  0.25854  1.0000 0.737691823
Cu  Cu3       1.0  0.20261  0.45791  0.75854  1.0000 0.737691823
Cu  Cu4       1.0  0.79739  0.95791  0.74146  1.0000 0.737691823
H   H1        1.0  0.55710  0.49670  0.11290  1.0000 0.1186183361
H   H2        1.0  0.80260  0.22520  0.21740  1.0000 0.1378548804
H   H3        1.0  0.73290  0.02250  0.13970  1.0000 0.1314456831
H   H4        1.0  0.57500  0.02130  0.14440  1.0000 0.1314456831
H   H5        1.0  0.68140  0.61620  0.34030  1.0000 0.1186183361
H   H6        1.0  0.92240  0.84680  0.28200  1.0000 0.1378548804
H   H7        1.0  0.97100  0.04300  0.35980  1.0000 0.1314456831
H   H8        1.0  0.80850  0.07190  0.35720  1.0000 0.1378548804
H   H9        1.0  0.35420  0.19360  0.46330  1.0000 0.1186183361
H   H10       1.0  0.26930  0.24610  0.53780  1.0000 0.0949307564
H   H11       1.0  0.04030  0.34970  0.51560  1.0000 0.1109854463
H   H12       1.0  0.90240  0.41130  0.42090  1.0000 0.1186183361
H   H13       1.0  0.44290  0.99670  0.38710  1.0000 0.1186183361
H   H14       1.0  0.19740  0.72520  0.28260  1.0000 0.1378548804
H   H15       1.0  0.26710  0.52250  0.36030  1.0000 0.1314456831
H   H16       1.0  0.42500  0.52130  0.35560  1.0000 0.1314456831
H   H17       1.0  0.31860  0.11620  0.15970  1.0000 0.1186183361
H   H18       1.0  0.07760  0.34680  0.21800  1.0000 0.1378548804
H   H19       1.0  0.02900  0.54300  0.14020  1.0000 0.1314456831
H   H20       1.0  0.19150  0.57190  0.14280  1.0000 0.1378548804
H   H21       1.0  0.64580  0.69360  0.03670  1.0000 0.1186183361
H   H22       1.0  0.73070  0.74610  0.96220  1.0000 0.0949307564
H   H23       1.0  0.95970  0.84970  0.98440  1.0000 0.1109854463
H   H24       1.0  0.09760  0.91130  0.07910  1.0000 0.1186183361
H   H25       1.0  0.44290  0.50330  0.88710  1.0000 0.1186183361
H   H26       1.0  0.19740  0.77480  0.78260  1.0000 0.1378548804
H   H27       1.0  0.26710  0.97750  0.86030  1.0000 0.1314456831
H   H28       1.0  0.42500  0.97870  0.85560  1.0000 0.1314456831
H   H29       1.0  0.31860  0.38380  0.65970  1.0000 0.1186183361
H   H30       1.0  0.07760  0.15320  0.71800  1.0000 0.1378548804
H   H31       1.0  0.02900  0.95700  0.64020  1.0000 0.1314456831
H   H32       1.0  0.19150  0.92810  0.64280  1.0000 0.1378548804
H   H33       1.0  0.64580  0.80640  0.53670  1.0000 0.1186183361
H   H34       1.0  0.73070  0.75390  0.46220  1.0000 0.0949307564
H   H35       1.0  0.95970  0.65030  0.48440  1.0000 0.1109854463
H   H36       1.0  0.09760  0.58870  0.57910  1.0000 0.1186183361
H   H37       1.0  0.55710  0.00330  0.61290  1.0000 0.1186183361
H   H38       1.0  0.80260  0.27480  0.71740  1.0000 0.1378548804
H   H39       1.0  0.73290  0.47750  0.63970  1.0000 0.1314456831
H   H40       1.0  0.57500  0.47870  0.64440  1.0000 0.1314456831
H   H41       1.0  0.68140  0.88380  0.84030  1.0000 0.1186183361
H   H42       1.0  0.92240  0.65320  0.78200  1.0000 0.1378548804
H   H43       1.0  0.97100  0.45700  0.85980  1.0000 0.1314456831
H   H44       1.0  0.80850  0.42810  0.85720  1.0000 0.1378548804
H   H45       1.0  0.35420  0.30640  0.96330  1.0000 0.1186183361
H   H46       1.0  0.26930  0.25390  0.03780  1.0000 0.0949307564
H   H47       1.0  0.04030  0.15030  0.01560  1.0000 0.1109854463
H   H48       1.0  0.90240  0.08870  0.92090  1.0000 0.1186183361
C   C1        1.0  0.59880  0.41370  0.12809  1.0000 0.152329288
C   C2        1.0  0.73300  0.26860  0.18541  1.0000 0.0949307564
C   C3        1.0  0.63430  0.06280  0.12450  1.0000 -0.1527636241
C   C4        1.0  0.56450  0.03380  0.06063  1.0000 -0.080630232
C   C5        1.0  0.43000  0.96690  0.03705  1.0000 0.1314456831
C   C6        1.0  0.36800  0.93410  0.97888  1.0000 0.1314456831
C   C7        1.0  0.73660  0.68940  0.33564  1.0000 0.1378548804
C   C8        1.0  0.86820  0.81240  0.30344  1.0000 0.1109854463
C   C9        1.0  0.89200  0.00970  0.37179  1.0000 -0.1424731355
C   C10       1.0  0.94690  0.00440  0.43814  1.0000 -0.0944693614
C   C11       1.0  0.08580  0.95530  0.47067  1.0000 0.1314456831
C   C12       1.0  0.86130  0.04910  0.46898  1.0000 0.1378548804
C   C13       1.0  0.96270  0.39830  0.32491  1.0000 0.5433269325
C   C14       1.0  0.04430  0.33870  0.38414  1.0000 -0.038947674
C   C15       1.0  0.17910  0.27010  0.39682  1.0000 -0.0246082889
C   C16       1.0  0.26290  0.23700  0.45450  1.0000 -0.1325374101
C   C17       1.0  0.21210  0.26800  0.49921  1.0000 -0.1022728649
C   C18       1.0  0.07610  0.33130  0.48602  1.0000 -0.1022728649
C   C19       1.0  0.99330  0.36740  0.42930  1.0000 -0.1150268656
C   C20       1.0  0.23460  0.22010  0.35058  1.0000 0.5557422671
C   C21       1.0  0.40120  0.91370  0.37191  1.0000 0.152329288
C   C22       1.0  0.26700  0.76860  0.31459  1.0000 0.0949307564
C   C23       1.0  0.36570  0.56280  0.37550  1.0000 -0.1527636241
C   C24       1.0  0.43550  0.53380  0.43937  1.0000 -0.080630232
C   C25       1.0  0.57000  0.46690  0.46295  1.0000 0.1314456831
C   C26       1.0  0.63200  0.43410  0.52112  1.0000 0.1314456831
C   C27       1.0  0.26340  0.18940  0.16436  1.0000 0.1378548804
C   C28       1.0  0.13180  0.31240  0.19656  1.0000 0.1109854463
C   C29       1.0  0.10800  0.50970  0.12821  1.0000 -0.1424731355
C   C30       1.0  0.05310  0.50440  0.06186  1.0000 -0.0944693614
C   C31       1.0  0.91420  0.45530  0.02933  1.0000 0.1314456831
C   C32       1.0  0.13870  0.54910  0.03102  1.0000 0.1378548804
C   C33       1.0  0.03730  0.89830  0.17509  1.0000 0.5433269325
C   C34       1.0  0.95570  0.83870  0.11586  1.0000 -0.038947674
C   C35       1.0  0.82090  0.77010  0.10318  1.0000 -0.0246082889
C   C36       1.0  0.73710  0.73700  0.04550  1.0000 -0.1325374101
C   C37       1.0  0.78790  0.76800  0.00079  1.0000 -0.1022728649
C   C38       1.0  0.92390  0.83130  0.01398  1.0000 -0.1022728649
C   C39       1.0  0.00670  0.86740  0.07070  1.0000 -0.1150268656
C   C40       1.0  0.76540  0.72010  0.14942  1.0000 0.5557422671
C   C41       1.0  0.40120  0.58630  0.87191  1.0000 0.152329288
C   C42       1.0  0.26700  0.73140  0.81459  1.0000 0.0949307564
C   C43       1.0  0.36570  0.93720  0.87550  1.0000 -0.1527636241
C   C44       1.0  0.43550  0.96620  0.93937  1.0000 -0.080630232
C   C45       1.0  0.57000  0.03310  0.96295  1.0000 0.1314456831
C   C46       1.0  0.63200  0.06590  0.02112  1.0000 0.1314456831
C   C47       1.0  0.26340  0.31060  0.66436  1.0000 0.1378548804
C   C48       1.0  0.13180  0.18760  0.69656  1.0000 0.1109854463
C   C49       1.0  0.10800  0.99030  0.62821  1.0000 -0.1424731355
C   C50       1.0  0.05310  0.99560  0.56186  1.0000 -0.0944693614
C   C51       1.0  0.91420  0.04470  0.52933  1.0000 0.1314456831
C   C52       1.0  0.13870  0.95090  0.53102  1.0000 0.1378548804
C   C53       1.0  0.03730  0.60170  0.67509  1.0000 0.5433269325
C   C54       1.0  0.95570  0.66130  0.61586  1.0000 -0.038947674
C   C55       1.0  0.82090  0.72990  0.60318  1.0000 -0.0246082889
C   C56       1.0  0.73710  0.76300  0.54550  1.0000 -0.1325374101
C   C57       1.0  0.78790  0.73200  0.50079  1.0000 -0.1022728649
C   C58       1.0  0.92390  0.66870  0.51398  1.0000 -0.1022728649
C   C59       1.0  0.00670  0.63260  0.57070  1.0000 -0.1150268656
C   C60       1.0  0.76540  0.77990  0.64942  1.0000 0.5557422671
C   C61       1.0  0.59880  0.08630  0.62809  1.0000 0.152329288
C   C62       1.0  0.73300  0.23140  0.68541  1.0000 0.0949307564
C   C63       1.0  0.63430  0.43720  0.62450  1.0000 -0.1527636241
C   C64       1.0  0.56450  0.46620  0.56063  1.0000 -0.080630232
C   C65       1.0  0.43000  0.53310  0.53705  1.0000 0.1314456831
C   C66       1.0  0.36800  0.56590  0.47888  1.0000 0.1314456831
C   C67       1.0  0.73660  0.81060  0.83564  1.0000 0.1378548804
C   C68       1.0  0.86820  0.68760  0.80344  1.0000 0.1109854463
C   C69       1.0  0.89200  0.49030  0.87179  1.0000 -0.1424731355
C   C70       1.0  0.94690  0.49560  0.93814  1.0000 -0.0944693614
C   C71       1.0  0.08580  0.54470  0.97067  1.0000 0.1314456831
C   C72       1.0  0.86130  0.45090  0.96898  1.0000 0.1378548804
C   C73       1.0  0.96270  0.10170  0.82491  1.0000 0.5433269325
C   C74       1.0  0.04430  0.16130  0.88414  1.0000 -0.038947674
C   C75       1.0  0.17910  0.22990  0.89682  1.0000 -0.0246082889
C   C76       1.0  0.26290  0.26300  0.95450  1.0000 -0.1325374101
C   C77       1.0  0.21210  0.23200  0.99921  1.0000 -0.1022728649
C   C78       1.0  0.07610  0.16870  0.98602  1.0000 -0.1022728649
C   C79       1.0  0.99330  0.13260  0.92930  1.0000 -0.1150268656
C   C80       1.0  0.23460  0.27990  0.85058  1.0000 0.5557422671
N   N1        1.0  0.70590  0.39980  0.18175  1.0000 -0.3219144833
N   N2        1.0  0.55910  0.30020  0.09958  1.0000 -0.2281699297
N   N3        1.0  0.64690  0.20790  0.13704  1.0000 0.1724578287
N   N4        1.0  0.80250  0.69310  0.29516  1.0000 -0.3219144833
N   N5        1.0  0.75900  0.79920  0.36726  1.0000 -0.2281699297
N   N6        1.0  0.84540  0.87560  0.34681  1.0000 0.1724578287
N   N7        1.0  0.29410  0.89980  0.31825  1.0000 -0.3219144833
N   N8        1.0  0.44090  0.80020  0.40042  1.0000 -0.2281699297
N   N9        1.0  0.35310  0.70790  0.36296  1.0000 0.1724578287
N   N10       1.0  0.19750  0.19310  0.20484  1.0000 -0.3219144833
N   N11       1.0  0.24100  0.29920  0.13274  1.0000 -0.2281699297
N   N12       1.0  0.15460  0.37560  0.15319  1.0000 0.1724578287
N   N13       1.0  0.29410  0.60020  0.81825  1.0000 -0.3219144833
N   N14       1.0  0.44090  0.69980  0.90042  1.0000 -0.2281699297
N   N15       1.0  0.35310  0.79210  0.86296  1.0000 0.1724578287
N   N16       1.0  0.19750  0.30690  0.70484  1.0000 -0.3219144833
N   N17       1.0  0.24100  0.20080  0.63274  1.0000 -0.2281699297
N   N18       1.0  0.15460  0.12440  0.65319  1.0000 0.1724578287
N   N19       1.0  0.70590  0.10020  0.68175  1.0000 -0.3219144833
N   N20       1.0  0.55910  0.19980  0.59958  1.0000 -0.2281699297
N   N21       1.0  0.64690  0.29210  0.63704  1.0000 0.1724578287
N   N22       1.0  0.80250  0.80690  0.79516  1.0000 -0.3219144833
N   N23       1.0  0.75900  0.70080  0.86726  1.0000 -0.2281699297
N   N24       1.0  0.84540  0.62440  0.84681  1.0000 0.1724578287
O   O1        1.0  0.03460  0.44100  0.29552  1.0000 -0.5578828719
O   O2        1.0  0.82090  0.41280  0.30766  1.0000 -0.5313876238
O   O3        1.0  0.13860  0.14970  0.31054  1.0000 -0.5476435986
O   O4        1.0  0.36420  0.23890  0.35571  1.0000 -0.5423766342
O   O5        1.0  0.96540  0.94100  0.20448  1.0000 -0.5578828719
O   O6        1.0  0.17910  0.91280  0.19234  1.0000 -0.5313876238
O   O7        1.0  0.86140  0.64970  0.18946  1.0000 -0.5476435986
O   O8        1.0  0.63580  0.73890  0.14429  1.0000 -0.5423766342
O   O9        1.0  0.96540  0.55900  0.70448  1.0000 -0.5578828719
O   O10       1.0  0.17910  0.58720  0.69234  1.0000 -0.5313876238
O   O11       1.0  0.86140  0.85030  0.68946  1.0000 -0.5476435986
O   O12       1.0  0.63580  0.76110  0.64429  1.0000 -0.5423766342
O   O13       1.0  0.03460  0.05900  0.79552  1.0000 -0.5578828719
O   O14       1.0  0.82090  0.08720  0.80766  1.0000 -0.5313876238
O   O15       1.0  0.13860  0.35030  0.81054  1.0000 -0.5476435986
O   O16       1.0  0.36420  0.26110  0.85571  1.0000 -0.5423766342
F   F1        1.0  0.35500  0.93430  0.07219  1.0000 -0.1081995857
F   F2        1.0  0.23390  0.87150  0.95860  1.0000 -0.1081995857
F   F3        1.0  0.17570  0.91190  0.44302  1.0000 -0.1081995857
F   F4        1.0  0.72370  0.09740  0.44013  1.0000 -0.1081995857
F   F5        1.0  0.64500  0.43430  0.42781  1.0000 -0.1081995857
F   F6        1.0  0.76610  0.37150  0.54140  1.0000 -0.1081995857
F   F7        1.0  0.82430  0.41190  0.05698  1.0000 -0.1081995857
F   F8        1.0  0.27630  0.59740  0.05987  1.0000 -0.1081995857
F   F9        1.0  0.64500  0.06570  0.92781  1.0000 -0.1081995857
F   F10       1.0  0.76610  0.12850  0.04140  1.0000 -0.1081995857
F   F11       1.0  0.82430  0.08810  0.55698  1.0000 -0.1081995857
F   F12       1.0  0.27630  0.90260  0.55987  1.0000 -0.1081995857
F   F13       1.0  0.35500  0.56570  0.57219  1.0000 -0.1081995857
F   F14       1.0  0.23390  0.62850  0.45860  1.0000 -0.1081995857
F   F15       1.0  0.17570  0.58810  0.94302  1.0000 -0.1081995857
F   F16       1.0  0.72370  0.40260  0.94013  1.0000 -0.1081995857
