# DDEC6 charges by PACMAN v1.1 (https://github.com/mtap-research/PACMAN-charge/)
data_2017[Cu][nan]3[ASR]10
_chemical_formula_sum              "Cu12 H96 C144 N36 O24"
_cell_length_a       20.9295
_cell_length_b       20.9295
_cell_length_c       20.9295
_cell_angle_alpha    131.103
_cell_angle_beta     131.103
_cell_angle_gamma    71.65

_symmetry_space_group_name_H-M    "P 1"
_symmetry_Int_Tables_number       1

loop_
  _symmetry_equiv_pos_as_xyz
  'x, y, z'

loop_
  _atom_site_type_symbol
  _atom_site_label
  _atom_site_symmetry_multiplicity
  _atom_site_fract_x
  _atom_site_fract_y
  _atom_site_fract_z
  _atom_site_occupancy
  _atom_site_charge
Cu  Cu1       1.0  0.29966  0.89236  0.42244  1.0000 0.2117364413
Cu  Cu2       1.0  0.46992  0.87722  0.57756  1.0000 0.2117364413
Cu  Cu3       1.0  0.27450  0.79707  0.20579  1.0000 0.2338431149
Cu  Cu4       1.0  0.59128  0.06871  0.79421  1.0000 0.2338431149
Cu  Cu5       1.0  0.39503  0.99018  0.42921  1.0000 0.2170650109
Cu  Cu6       1.0  0.56097  0.96582  0.57079  1.0000 0.2170650109
Cu  Cu7       1.0  0.12278  0.70034  0.59270  1.0000 0.2117364413
Cu  Cu8       1.0  0.10764  0.53008  0.40730  1.0000 0.2117364413
Cu  Cu9       1.0  0.93129  0.72550  0.52257  1.0000 0.2338431149
Cu  Cu10      1.0  0.20293  0.40872  0.47743  1.0000 0.2338431149
Cu  Cu11      1.0  0.03418  0.60497  0.59515  1.0000 0.2170650109
Cu  Cu12      1.0  0.00982  0.43903  0.40485  1.0000 0.2170650109
H   H1        1.0  0.79880  0.24120  0.02800  1.0000 0.1597789756
H   H2        1.0  0.21320  0.77080  0.97200  1.0000 0.1597789756
H   H3        1.0  0.74420  0.30710  0.01070  1.0000 0.1486763852
H   H4        1.0  0.29640  0.73350  0.98930  1.0000 0.1486763852
H   H5        1.0  0.70340  0.23440  0.98460  1.0000 0.1486763852
H   H6        1.0  0.24980  0.71880  0.01540  1.0000 0.1486763852
H   H7        1.0  0.20690  0.81500  0.41970  1.0000 0.1385231931
H   H8        1.0  0.39530  0.78720  0.58030  1.0000 0.1385231931
H   H9        1.0  0.12790  0.73840  0.32950  1.0000 0.1486763852
H   H10       1.0  0.40890  0.79840  0.67050  1.0000 0.1486763852
H   H11       1.0  0.22270  0.72290  0.38700  1.0000 0.1486763852
H   H12       1.0  0.33590  0.83570  0.61300  1.0000 0.1486763852
H   H13       1.0  0.34960  0.04070  0.70230  1.0000 0.1597789756
H   H14       1.0  0.33840  0.64730  0.29770  1.0000 0.1597789756
H   H15       1.0  0.27190  0.08150  0.65600  1.0000 0.1486763852
H   H16       1.0  0.42550  0.61590  0.34400  1.0000 0.1486763852
H   H17       1.0  0.27110  0.98380  0.57710  1.0000 0.1486763852
H   H18       1.0  0.40670  0.69400  0.42290  1.0000 0.1486763852
H   H19       1.0  0.14700  0.43040  0.18660  1.0000 0.1319229572
H   H20       1.0  0.24380  0.96040  0.81340  1.0000 0.1319229572
H   H21       1.0  0.05110  0.32530  0.11240  1.0000 0.1385231931
H   H22       1.0  0.21290  0.93870  0.88760  1.0000 0.1385231931
H   H23       1.0  0.82320  0.53050  0.88990  1.0000 0.1319229572
H   H24       1.0  0.64060  0.93330  0.11010  1.0000 0.1319229572
H   H25       1.0  0.16930  0.61490  0.00840  1.0000 0.1385231931
H   H26       1.0  0.60650  0.16090  0.99160  1.0000 0.1385231931
H   H27       1.0  0.11490  0.54890  0.97700  1.0000 0.1385231931
H   H28       1.0  0.57190  0.13790  0.02300  1.0000 0.1385231931
H   H29       1.0  0.07400  0.62150  0.96670  1.0000 0.1486763852
H   H30       1.0  0.65480  0.10730  0.03330  1.0000 0.1486763852
H   H31       1.0  0.23580  0.38080  0.76220  1.0000 0.1319229572
H   H32       1.0  0.61860  0.47360  0.23780  1.0000 0.1319229572
H   H33       1.0  0.46640  0.17750  0.60350  1.0000 0.1597789756
H   H34       1.0  0.57400  0.86290  0.39650  1.0000 0.1597789756
H   H35       1.0  0.45820  0.25190  0.69490  1.0000 0.1486763852
H   H36       1.0  0.55700  0.76330  0.30510  1.0000 0.1486763852
H   H37       1.0  0.53660  0.20530  0.72110  1.0000 0.1597789756
H   H38       1.0  0.48420  0.81550  0.27890  1.0000 0.1597789756
H   H39       1.0  0.72830  0.42430  0.81640  1.0000 0.1319229572
H   H40       1.0  0.60790  0.91190  0.18360  1.0000 0.1319229572
H   H41       1.0  0.60660  0.34150  0.09070  1.0000 0.1385231931
H   H42       1.0  0.25080  0.51590  0.90930  1.0000 0.1385231931
H   H43       1.0  0.66310  0.13130  0.61340  1.0000 0.1486763852
H   H44       1.0  0.51790  0.04970  0.38660  1.0000 0.1486763852
H   H45       1.0  0.74300  0.08870  0.65030  1.0000 0.1486763852
H   H46       1.0  0.43840  0.09270  0.34970  1.0000 0.1486763852
H   H47       1.0  0.64870  0.03420  0.56170  1.0000 0.1385231931
H   H48       1.0  0.47250  0.08700  0.43830  1.0000 0.1385231931
H   H49       1.0  0.22920  0.20120  0.44240  1.0000 0.1597789756
H   H50       1.0  0.75880  0.78680  0.55760  1.0000 0.1597789756
H   H51       1.0  0.26650  0.25580  0.56290  1.0000 0.1486763852
H   H52       1.0  0.69290  0.70360  0.43710  1.0000 0.1486763852
H   H53       1.0  0.28120  0.29660  0.53100  1.0000 0.1486763852
H   H54       1.0  0.76560  0.75020  0.46900  1.0000 0.1486763852
H   H55       1.0  0.21280  0.79310  0.60810  1.0000 0.1385231931
H   H56       1.0  0.18500  0.60470  0.39190  1.0000 0.1385231931
H   H57       1.0  0.20160  0.87210  0.61050  1.0000 0.1486763852
H   H58       1.0  0.26160  0.59110  0.38950  1.0000 0.1486763852
H   H59       1.0  0.16430  0.77730  0.50020  1.0000 0.1486763852
H   H60       1.0  0.27710  0.66410  0.49980  1.0000 0.1486763852
H   H61       1.0  0.35270  0.65040  0.69110  1.0000 0.1597789756
H   H62       1.0  0.95930  0.66160  0.30890  1.0000 0.1597789756
H   H63       1.0  0.38410  0.72810  0.80960  1.0000 0.1486763852
H   H64       1.0  0.91850  0.57450  0.19040  1.0000 0.1486763852
H   H65       1.0  0.30600  0.72890  0.71270  1.0000 0.1486763852
H   H66       1.0  0.01620  0.59330  0.28730  1.0000 0.1486763852
H   H67       1.0  0.03960  0.85300  0.28340  1.0000 0.1319229572
H   H68       1.0  0.56960  0.75620  0.71660  1.0000 0.1319229572
H   H69       1.0  0.06130  0.94890  0.27420  1.0000 0.1385231931
H   H70       1.0  0.67470  0.78710  0.72580  1.0000 0.1385231931
H   H71       1.0  0.06670  0.17680  0.70730  1.0000 0.1319229572
H   H72       1.0  0.46950  0.35940  0.29270  1.0000 0.1319229572
H   H73       1.0  0.83910  0.83070  0.44560  1.0000 0.1385231931
H   H74       1.0  0.38510  0.39350  0.55440  1.0000 0.1385231931
H   H75       1.0  0.86210  0.88510  0.43400  1.0000 0.1385231931
H   H76       1.0  0.45110  0.42810  0.56600  1.0000 0.1385231931
H   H77       1.0  0.89270  0.92600  0.54750  1.0000 0.1486763852
H   H78       1.0  0.37850  0.34520  0.45250  1.0000 0.1486763852
H   H79       1.0  0.52640  0.76420  0.14500  1.0000 0.1319229572
H   H80       1.0  0.61920  0.38140  0.85500  1.0000 0.1319229572
H   H81       1.0  0.13710  0.53360  0.71110  1.0000 0.1597789756
H   H82       1.0  0.82250  0.42600  0.28890  1.0000 0.1597789756
H   H83       1.0  0.23670  0.54180  0.79370  1.0000 0.1486763852
H   H84       1.0  0.74810  0.44300  0.20630  1.0000 0.1486763852
H   H85       1.0  0.18450  0.46340  0.66870  1.0000 0.1597789756
H   H86       1.0  0.79470  0.51580  0.33130  1.0000 0.1597789756
H   H87       1.0  0.08810  0.27170  0.69600  1.0000 0.1319229572
H   H88       1.0  0.57570  0.39210  0.30400  1.0000 0.1319229572
H   H89       1.0  0.48410  0.39340  0.73490  1.0000 0.1385231931
H   H90       1.0  0.65850  0.74920  0.26510  1.0000 0.1385231931
H   H91       1.0  0.95030  0.33690  0.46820  1.0000 0.1486763852
H   H92       1.0  0.86870  0.48210  0.53180  1.0000 0.1486763852
H   H93       1.0  0.90730  0.25700  0.34570  1.0000 0.1486763852
H   H94       1.0  0.91130  0.56160  0.65430  1.0000 0.1486763852
H   H95       1.0  0.91300  0.35130  0.38550  1.0000 0.1385231931
H   H96       1.0  0.96580  0.52750  0.61450  1.0000 0.1385231931
C   C1        1.0  0.42580  0.13360  0.63500  1.0000 0.1817172474
C   C2        1.0  0.49860  0.79080  0.36500  1.0000 0.1817172474
C   C3        1.0  0.42350  0.38720  0.95470  1.0000 0.0224476044
C   C4        1.0  0.43250  0.46880  0.04530  1.0000 0.0224476044
C   C5        1.0  0.18390  0.73130  0.27640  1.0000 0.1679122901
C   C6        1.0  0.45490  0.90750  0.72360  1.0000 0.1679122901
C   C7        1.0  0.68700  0.11850  0.71510  1.0000 0.1906104504
C   C8        1.0  0.40340  0.97190  0.28490  1.0000 0.1906104504
C   C9        1.0  0.33420  0.26620  0.75360  1.0000 0.4341881281
C   C10       1.0  0.51260  0.58060  0.24640  1.0000 0.4341881281
C   C11       1.0  0.15920  0.66730  0.12390  1.0000 0.1906104504
C   C12       1.0  0.54340  0.03530  0.87610  1.0000 0.1906104504
C   C13       1.0  0.48340  0.25680  0.88020  1.0000 0.4396865699
C   C14       1.0  0.37660  0.60320  0.11980  1.0000 0.4396865699
C   C15       1.0  0.99210  0.58330  0.04300  1.0000 0.4396865699
C   C16       1.0  0.54030  0.94910  0.95700  1.0000 0.4466817418
C   C17       1.0  0.74180  0.24820  0.98320  1.0000 -0.4798741036
C   C18       1.0  0.26500  0.75860  0.01680  1.0000 -0.4798741036
C   C19       1.0  0.18550  0.75390  0.36040  1.0000 -0.4963631325
C   C20       1.0  0.39350  0.82510  0.63960  1.0000 -0.4963631325
C   C21       1.0  0.70930  0.18860  0.86790  1.0000 0.1817172474
C   C22       1.0  0.32070  0.84140  0.13210  1.0000 0.1817172474
C   C23       1.0  0.39660  0.14540  0.68460  1.0000 -0.0359881371
C   C24       1.0  0.46080  0.71200  0.31540  1.0000 -0.0359881371
C   C25       1.0  0.34590  0.35480  0.84810  1.0000 -0.050331252
C   C26       1.0  0.50670  0.49780  0.15190  1.0000 -0.050331252
C   C27       1.0  0.73410  0.19220  0.82430  1.0000 -0.0359881371
C   C28       1.0  0.36790  0.90980  0.17570  1.0000 -0.0359881371
C   C29       1.0  0.90870  0.39400  0.97510  1.0000 0.0342782649
C   C30       1.0  0.41890  0.93360  0.02490  1.0000 0.0342782649
C   C31       1.0  0.93240  0.51150  0.99190  1.0000 -0.050331252
C   C32       1.0  0.51960  0.94050  0.00810  1.0000 -0.050331252
C   C33       1.0  0.88030  0.27330  0.95740  1.0000 0.4466817418
C   C34       1.0  0.31590  0.92290  0.04260  1.0000 0.4466817418
C   C35       1.0  0.30710  0.04060  0.64150  1.0000 -0.4668725797
C   C36       1.0  0.39910  0.66560  0.35850  1.0000 -0.4668725797
C   C37       1.0  0.49100  0.34130  0.97530  1.0000 -0.0576321579
C   C38       1.0  0.36600  0.51570  0.02470  1.0000 -0.0576321579
C   C39       1.0  0.08780  0.42180  0.13440  1.0000 -0.0767967589
C   C40       1.0  0.28740  0.95340  0.86560  1.0000 -0.0767967589
C   C41       1.0  0.03010  0.35760  0.08870  1.0000 -0.0877324076
C   C42       1.0  0.26890  0.94140  0.91130  1.0000 -0.0877324076
C   C43       1.0  0.94130  0.34250  0.00760  1.0000 -0.0576321579
C   C44       1.0  0.33490  0.93370  0.99240  1.0000 -0.0576321579
C   C45       1.0  0.35150  0.06520  0.62450  1.0000 0.1906104504
C   C46       1.0  0.44070  0.72700  0.37550  1.0000 0.1906104504
C   C47       1.0  0.75910  0.30800  0.84010  1.0000 0.4466817418
C   C48       1.0  0.46790  0.91900  0.15990  1.0000 0.4466817418
C   C49       1.0  0.81930  0.38220  0.89670  1.0000 -0.050331252
C   C50       1.0  0.48550  0.92260  0.10330  1.0000 -0.050331252
C   C51       1.0  0.84470  0.49750  0.91280  1.0000 -0.0877324076
C   C52       1.0  0.58470  0.93190  0.08720  1.0000 -0.0877324076
C   C53       1.0  0.12640  0.60780  0.00860  1.0000 -0.4572100335
C   C54       1.0  0.59920  0.11780  0.99140  1.0000 -0.4572100335
C   C55       1.0  0.28500  0.40230  0.83290  1.0000 -0.0767967589
C   C56       1.0  0.56940  0.45210  0.16710  1.0000 -0.0767967589
C   C57       1.0  0.47610  0.19760  0.66630  1.0000 -0.4668725797
C   C58       1.0  0.53130  0.80980  0.33370  1.0000 -0.4668725797
C   C59       1.0  0.13930  0.65900  0.16910  1.0000 -0.0359881371
C   C60       1.0  0.48990  0.97020  0.83090  1.0000 -0.0359881371
C   C61       1.0  0.96720  0.45930  0.02250  1.0000 0.0224476044
C   C62       1.0  0.43680  0.94470  0.97750  1.0000 0.0224476044
C   C63       1.0  0.11770  0.53720  0.14810  1.0000 0.4396865699
C   C64       1.0  0.38910  0.96960  0.85190  1.0000 0.4396865699
C   C65       1.0  0.05690  0.47160  0.10230  1.0000 -0.0576321579
C   C66       1.0  0.36930  0.95460  0.89770  1.0000 -0.0576321579
C   C67       1.0  0.78780  0.43240  0.86720  1.0000 -0.0767967589
C   C68       1.0  0.56520  0.92060  0.13280  1.0000 -0.0767967589
C   C69       1.0  0.56260  0.37250  0.07870  1.0000 -0.0877324076
C   C70       1.0  0.29380  0.48390  0.92130  1.0000 -0.0877324076
C   C71       1.0  0.68540  0.09070  0.62730  1.0000 -0.4668725797
C   C72       1.0  0.46340  0.05810  0.37270  1.0000 -0.4668725797
C   C73       1.0  0.20920  0.57420  0.70780  1.0000 0.1817172474
C   C74       1.0  0.86640  0.50140  0.29220  1.0000 0.1817172474
C   C75       1.0  0.53120  0.57650  0.96370  1.0000 0.0224476044
C   C76       1.0  0.61280  0.56750  0.03630  1.0000 0.0224476044
C   C77       1.0  0.09250  0.81610  0.54740  1.0000 0.1679122901
C   C78       1.0  0.26870  0.54510  0.45260  1.0000 0.1679122901
C   C79       1.0  0.02810  0.31300  0.43150  1.0000 0.1906104504
C   C80       1.0  0.88150  0.59660  0.56850  1.0000 0.1906104504
C   C81       1.0  0.41940  0.66580  0.93200  1.0000 0.4341881281
C   C82       1.0  0.73380  0.48740  0.06800  1.0000 0.4341881281
C   C83       1.0  0.96470  0.84080  0.50810  1.0000 0.1906104504
C   C84       1.0  0.33270  0.45660  0.49190  1.0000 0.1906104504
C   C85       1.0  0.39680  0.51660  0.77340  1.0000 0.4396865699
C   C86       1.0  0.74320  0.62340  0.22660  1.0000 0.4396865699
C   C87       1.0  0.05090  0.00790  0.59120  1.0000 0.4396865699
C   C88       1.0  0.41670  0.45970  0.40880  1.0000 0.4396865699
C   C89       1.0  0.24140  0.25820  0.50640  1.0000 -0.4798741036
C   C90       1.0  0.75180  0.73500  0.49360  1.0000 -0.4798741036
C   C91       1.0  0.17490  0.81450  0.56840  1.0000 -0.4963631325
C   C92       1.0  0.24610  0.60650  0.43160  1.0000 -0.4963631325
C   C93       1.0  0.15860  0.29070  0.47930  1.0000 0.1817172474
C   C94       1.0  0.81140  0.67930  0.52070  1.0000 0.1817172474
C   C95       1.0  0.28800  0.60340  0.74880  1.0000 -0.0359881371
C   C96       1.0  0.85460  0.53920  0.25120  1.0000 -0.0359881371
C   C97       1.0  0.50220  0.65410  0.00890  1.0000 -0.050331252
C   C98       1.0  0.64520  0.49330  0.99110  1.0000 -0.050331252
C   C99       1.0  0.09020  0.26590  0.45810  1.0000 -0.0359881371
C   C100      1.0  0.80780  0.63210  0.54190  1.0000 -0.0359881371
C   C101      1.0  0.06640  0.09130  0.48530  1.0000 0.0342782649
C   C102      1.0  0.60600  0.58110  0.51470  1.0000 0.0342782649
C   C103      1.0  0.05950  0.06760  0.57910  1.0000 -0.050331252
C   C104      1.0  0.48850  0.48040  0.42090  1.0000 -0.050331252
C   C105      1.0  0.07710  0.11970  0.39300  1.0000 0.4466817418
C   C106      1.0  0.72670  0.68410  0.60700  1.0000 0.4466817418
C   C107      1.0  0.33440  0.69290  0.73350  1.0000 -0.4668725797
C   C108      1.0  0.95940  0.60090  0.26650  1.0000 -0.4668725797
C   C109      1.0  0.48430  0.50900  0.85030  1.0000 -0.0576321579
C   C110      1.0  0.65870  0.63400  0.14970  1.0000 -0.0576321579
C   C111      1.0  0.04660  0.91220  0.33400  1.0000 -0.0767967589
C   C112      1.0  0.57820  0.71260  0.66600  1.0000 -0.0767967589
C   C113      1.0  0.05860  0.96990  0.32750  1.0000 -0.0877324076
C   C114      1.0  0.64240  0.73110  0.67250  1.0000 -0.0877324076
C   C115      1.0  0.06630  0.05870  0.40120  1.0000 -0.0576321579
C   C116      1.0  0.65750  0.66510  0.59880  1.0000 -0.0576321579
C   C117      1.0  0.27300  0.64850  0.71370  1.0000 0.1906104504
C   C118      1.0  0.93480  0.55930  0.28630  1.0000 0.1906104504
C   C119      1.0  0.08100  0.24090  0.54890  1.0000 0.4466817418
C   C120      1.0  0.69200  0.53210  0.45110  1.0000 0.4466817418
C   C121      1.0  0.07740  0.18070  0.56290  1.0000 -0.050331252
C   C122      1.0  0.61780  0.51450  0.43710  1.0000 -0.050331252
C   C123      1.0  0.06810  0.15530  0.65280  1.0000 -0.0877324076
C   C124      1.0  0.50250  0.41530  0.34720  1.0000 -0.0877324076
C   C125      1.0  0.88220  0.87360  0.48140  1.0000 -0.4572100335
C   C126      1.0  0.39220  0.40080  0.51860  1.0000 -0.4572100335
C   C127      1.0  0.54790  0.71500  0.11730  1.0000 -0.0767967589
C   C128      1.0  0.59770  0.43060  0.88270  1.0000 -0.0767967589
C   C129      1.0  0.19020  0.52390  0.72150  1.0000 -0.4668725797
C   C130      1.0  0.80240  0.46870  0.27850  1.0000 -0.4668725797
C   C131      1.0  0.02980  0.86070  0.51970  1.0000 -0.0359881371
C   C132      1.0  0.34100  0.51010  0.48030  1.0000 -0.0359881371
C   C133      1.0  0.05530  0.03280  0.49210  1.0000 0.0224476044
C   C134      1.0  0.54070  0.56320  0.50790  1.0000 0.0224476044
C   C135      1.0  0.03040  0.88230  0.41950  1.0000 0.4396865699
C   C136      1.0  0.46280  0.61090  0.58050  1.0000 0.4396865699
C   C137      1.0  0.04540  0.94310  0.41470  1.0000 -0.0576321579
C   C138      1.0  0.52840  0.63070  0.58530  1.0000 -0.0576321579
C   C139      1.0  0.07940  0.21220  0.64460  1.0000 -0.0767967589
C   C140      1.0  0.56760  0.43480  0.35540  1.0000 -0.0767967589
C   C141      1.0  0.51610  0.43740  0.80990  1.0000 -0.0877324076
C   C142      1.0  0.62750  0.70620  0.19010  1.0000 -0.0877324076
C   C143      1.0  0.94190  0.31460  0.40530  1.0000 -0.4668725797
C   C144      1.0  0.90930  0.53660  0.59470  1.0000 -0.4668725797
N   N1        1.0  0.23143  0.78283  0.29760  1.0000 -0.1905633105
N   N2        1.0  0.48523  0.93383  0.70240  1.0000 -0.1905633105
N   N3        1.0  0.21730  0.74220  0.20410  1.0000 -0.182113617
N   N4        1.0  0.53810  0.01320  0.79590  1.0000 -0.182113617
N   N5        1.0  0.63570  0.07330  0.69580  1.0000 -0.1996327975
N   N6        1.0  0.37750  0.93990  0.30420  1.0000 -0.1996327975
N   N7        1.0  0.39985  0.04905  0.54780  1.0000 -0.2091778778
N   N8        1.0  0.50125  0.85205  0.45220  1.0000 -0.2091778778
N   N9        1.0  0.35488  0.00678  0.54250  1.0000 -0.2091778778
N   N10       1.0  0.46428  0.81238  0.45750  1.0000 -0.2091778778
N   N11       1.0  0.64990  0.11540  0.79010  1.0000 -0.1905633105
N   N12       1.0  0.32530  0.85980  0.20990  1.0000 -0.1905633105
N   N13       1.0  0.79360  0.26020  0.87520  1.0000 -0.2091778778
N   N14       1.0  0.38500  0.91840  0.12480  1.0000 -0.1996327975
N   N15       1.0  0.40550  0.22630  0.77640  1.0000 -0.1996327975
N   N16       1.0  0.44990  0.62910  0.22360  1.0000 -0.1996327975
N   N17       1.0  0.08160  0.58840  0.11560  1.0000 -0.1905633105
N   N18       1.0  0.47280  0.96600  0.88440  1.0000 -0.1905633105
N   N19       1.0  0.06617  0.76857  0.55140  1.0000 -0.1905633105
N   N20       1.0  0.21717  0.51477  0.44860  1.0000 -0.1905633105
N   N21       1.0  0.98680  0.78270  0.52490  1.0000 -0.182113617
N   N22       1.0  0.25780  0.46190  0.47510  1.0000 -0.182113617
N   N23       1.0  0.06010  0.36430  0.43760  1.0000 -0.1996327975
N   N24       1.0  0.92670  0.62250  0.56240  1.0000 -0.1996327975
N   N25       1.0  0.14795  0.60015  0.64920  1.0000 -0.2091778778
N   N26       1.0  0.95095  0.49875  0.35080  1.0000 -0.2091778778
N   N27       1.0  0.18762  0.64512  0.65190  1.0000 -0.2091778778
N   N28       1.0  0.99322  0.53572  0.34810  1.0000 -0.2091778778
N   N29       1.0  0.14020  0.35010  0.46550  1.0000 -0.1905633105
N   N30       1.0  0.88460  0.67470  0.53450  1.0000 -0.1905633105
N   N31       1.0  0.08160  0.20640  0.46660  1.0000 -0.1996327975
N   N32       1.0  0.73980  0.61500  0.53340  1.0000 -0.2091778778
N   N33       1.0  0.37090  0.59450  0.82080  1.0000 -0.1996327975
N   N34       1.0  0.77370  0.55010  0.17920  1.0000 -0.1996327975
N   N35       1.0  0.03400  0.91840  0.50680  1.0000 -0.1905633105
N   N36       1.0  0.41160  0.52720  0.49320  1.0000 -0.1905633105
O   O1        1.0  0.19499  0.54699  0.21040  1.0000 -0.4015902423
O   O2        1.0  0.33659  0.98459  0.78960  1.0000 -0.4015902423
O   O3        1.0  0.54210  0.21870  0.89320  1.0000 -0.4015902423
O   O4        1.0  0.32550  0.64890  0.10680  1.0000 -0.4015902423
O   O5        1.0  0.26710  0.23040  0.66230  1.0000 -0.4085511149
O   O6        1.0  0.56810  0.60480  0.33770  1.0000 -0.4085511149
O   O7        1.0  0.68230  0.29260  0.76750  1.0000 -0.4208566913
O   O8        1.0  0.52510  0.91480  0.23250  1.0000 -0.4208566913
O   O9        1.0  0.90620  0.22990  0.98630  1.0000 -0.4085511149
O   O10       1.0  0.24360  0.91990  0.01370  1.0000 -0.4085511149
O   O11       1.0  0.96560  0.63170  0.02150  1.0000 -0.4015902423
O   O12       1.0  0.61020  0.94410  0.97850  1.0000 -0.4015902423
O   O13       1.0  0.01541  0.80501  0.35200  1.0000 -0.4015902423
O   O14       1.0  0.45301  0.66341  0.64800  1.0000 -0.4015902423
O   O15       1.0  0.35110  0.45790  0.67660  1.0000 -0.4015902423
O   O16       1.0  0.78130  0.67450  0.32340  1.0000 -0.4015902423
O   O17       1.0  0.39520  0.73290  0.96330  1.0000 -0.4085511149
O   O18       1.0  0.76960  0.43190  0.03670  1.0000 -0.4085511149
O   O19       1.0  0.08520  0.31770  0.61030  1.0000 -0.4208566913
O   O20       1.0  0.70740  0.47490  0.38970  1.0000 -0.4208566913
O   O21       1.0  0.08010  0.09380  0.32370  1.0000 -0.4085511149
O   O22       1.0  0.77010  0.75640  0.67630  1.0000 -0.4085511149
O   O23       1.0  0.05590  0.03440  0.66610  1.0000 -0.4015902423
O   O24       1.0  0.36830  0.38980  0.33390  1.0000 -0.4015902423
