# DDEC6 charges by PACMAN v1.1 (https://github.com/mtap-research/PACMAN-charge/)
data_2017[La][nan]3[ASR]1
_chemical_formula_sum              "La4 H60 C96 N4 O32"
_cell_length_a       15.861
_cell_length_b       10.599
_cell_length_c       21.235
_cell_angle_alpha    90
_cell_angle_beta     106.914
_cell_angle_gamma    90

_symmetry_space_group_name_H-M    "P 1"
_symmetry_Int_Tables_number       1

loop_
  _symmetry_equiv_pos_as_xyz
  'x, y, z'

loop_
  _atom_site_type_symbol
  _atom_site_label
  _atom_site_symmetry_multiplicity
  _atom_site_fract_x
  _atom_site_fract_y
  _atom_site_fract_z
  _atom_site_occupancy
  _atom_site_charge
La  La1       1.0  0.10075  0.58166  0.95244  1.0000 1.9107973567
La  La2       1.0  0.89925  0.58166  0.54756  1.0000 1.9107973567
La  La3       1.0  0.89925  0.41834  0.04756  1.0000 1.9045658103
La  La4       1.0  0.10075  0.41834  0.45244  1.0000 1.9045658103
H   H1        1.0  0.62890  0.81590  0.47880  1.0000 0.1291161143
H   H2        1.0  0.37110  0.81590  0.02120  1.0000 0.1291161143
H   H3        1.0  0.37110  0.18410  0.52120  1.0000 0.1291161143
H   H4        1.0  0.62890  0.18410  0.97880  1.0000 0.1217416589
H   H5        1.0  0.50260  0.93560  0.43660  1.0000 0.1217416589
H   H6        1.0  0.49740  0.93560  0.06340  1.0000 0.1217416589
H   H7        1.0  0.49740  0.06440  0.56340  1.0000 0.1217416589
H   H8        1.0  0.50260  0.06440  0.93660  1.0000 0.1217416589
H   H9        1.0  0.42310  0.69480  0.28690  1.0000 0.1291161143
H   H10       1.0  0.57690  0.69480  0.21310  1.0000 0.1291161143
H   H11       1.0  0.57690  0.30520  0.71310  1.0000 0.1217416589
H   H12       1.0  0.42310  0.30520  0.78690  1.0000 0.1217416589
H   H13       1.0  0.55020  0.57670  0.32850  1.0000 0.1217416589
H   H14       1.0  0.44980  0.57670  0.17150  1.0000 0.1217416589
H   H15       1.0  0.44980  0.42330  0.67150  1.0000 0.1217416589
H   H16       1.0  0.55020  0.42330  0.82850  1.0000 0.1217416589
H   H17       1.0  0.37990  0.98790  0.33490  1.0000 0.1217416589
H   H18       1.0  0.62010  0.98790  0.16510  1.0000 0.1217416589
H   H19       1.0  0.62010  0.01210  0.66510  1.0000 0.1217416589
H   H20       1.0  0.37990  0.01210  0.83490  1.0000 0.1217416589
H   H21       1.0  0.32800  0.88550  0.36150  1.0000 0.1291161143
H   H22       1.0  0.67200  0.88550  0.13850  1.0000 0.1291161143
H   H23       1.0  0.67200  0.11450  0.63850  1.0000 0.1291161143
H   H24       1.0  0.32800  0.11450  0.86150  1.0000 0.1291161143
H   H25       1.0  0.40130  0.95590  0.23200  1.0000 0.1217416589
H   H26       1.0  0.59870  0.95590  0.26800  1.0000 0.1217416589
H   H27       1.0  0.59870  0.04410  0.76800  1.0000 0.1217416589
H   H28       1.0  0.40130  0.04410  0.73200  1.0000 0.1217416589
H   H29       1.0  0.34100  0.86200  0.18190  1.0000 0.1217416589
H   H30       1.0  0.65900  0.86200  0.31810  1.0000 0.1217416589
H   H31       1.0  0.65900  0.13800  0.81810  1.0000 0.1217416589
H   H32       1.0  0.34100  0.13800  0.68190  1.0000 0.1217416589
H   H33       1.0  0.36720  0.08580  0.12630  1.0000 0.1217416589
H   H34       1.0  0.63280  0.08580  0.37370  1.0000 0.1217416589
H   H35       1.0  0.63280  0.91420  0.87370  1.0000 0.1217416589
H   H36       1.0  0.36720  0.91420  0.62630  1.0000 0.1217416589
H   H37       1.0  0.28340  0.24840  0.06890  1.0000 0.1400511461
H   H38       1.0  0.71660  0.24840  0.43110  1.0000 0.1400511461
H   H39       1.0  0.71660  0.75160  0.93110  1.0000 0.1400511461
H   H40       1.0  0.28340  0.75160  0.56890  1.0000 0.1400511461
H   H41       1.0  0.10300  0.18400  0.16310  1.0000 0.1291161143
H   H42       1.0  0.89700  0.18400  0.33690  1.0000 0.1291161143
H   H43       1.0  0.89700  0.81600  0.83690  1.0000 0.1291161143
H   H44       1.0  0.10300  0.81600  0.66310  1.0000 0.1291161143
H   H45       1.0  0.18800  0.02350  0.22080  1.0000 0.1217416589
H   H46       1.0  0.81200  0.02350  0.27920  1.0000 0.1217416589
H   H47       1.0  0.81200  0.97650  0.77920  1.0000 0.1217416589
H   H48       1.0  0.18800  0.97650  0.72080  1.0000 0.1217416589
H   H49       1.0  0.20950  0.79410  0.15430  1.0000 0.1291161143
H   H50       1.0  0.79050  0.79410  0.34570  1.0000 0.1291161143
H   H51       1.0  0.79050  0.20590  0.84570  1.0000 0.1291161143
H   H52       1.0  0.20950  0.20590  0.65430  1.0000 0.1291161143
H   H53       1.0  0.26730  0.71730  0.34680  1.0000 0.1291161143
H   H54       1.0  0.73270  0.71730  0.15320  1.0000 0.1291161143
H   H55       1.0  0.73270  0.28270  0.65320  1.0000 0.1291161143
H   H56       1.0  0.26730  0.28270  0.84680  1.0000 0.1291161143
H   H57       1.0  0.07140  0.53010  0.21730  1.0000 0.1400511461
H   H58       1.0  0.92860  0.53010  0.28270  1.0000 0.1400511461
H   H59       1.0  0.92860  0.46990  0.78270  1.0000 0.1400511461
H   H60       1.0  0.07140  0.46990  0.71730  1.0000 0.1400511461
C   C1        1.0  0.68320  0.60840  0.43630  1.0000 0.592408239
C   C2        1.0  0.31680  0.60840  0.06370  1.0000 0.592408239
C   C3        1.0  0.31680  0.39160  0.56370  1.0000 0.592408239
C   C4        1.0  0.68320  0.39160  0.93630  1.0000 0.592408239
C   C5        1.0  0.60110  0.68370  0.40820  1.0000 -0.0269712478
C   C6        1.0  0.39890  0.68370  0.09180  1.0000 -0.0269712478
C   C7        1.0  0.39890  0.31630  0.59180  1.0000 -0.0269712478
C   C8        1.0  0.60110  0.31630  0.90820  1.0000 -0.0269712478
C   C9        1.0  0.58720  0.79090  0.44020  1.0000 -0.0897607346
C   C10       1.0  0.41280  0.79090  0.05980  1.0000 -0.0897607346
C   C11       1.0  0.41280  0.20910  0.55980  1.0000 -0.0897607346
C   C12       1.0  0.58720  0.20910  0.94020  1.0000 -0.0897607346
C   C13       1.0  0.51130  0.86220  0.41530  1.0000 -0.1786449411
C   C14       1.0  0.48870  0.86220  0.08470  1.0000 -0.1786449411
C   C15       1.0  0.48870  0.13780  0.58470  1.0000 -0.1786449411
C   C16       1.0  0.51130  0.13780  0.91530  1.0000 -0.1786449411
C   C17       1.0  0.44830  0.82290  0.35800  1.0000 0.1052483088
C   C18       1.0  0.55170  0.82290  0.14200  1.0000 0.1052483088
C   C19       1.0  0.55170  0.17710  0.64200  1.0000 0.1052483088
C   C20       1.0  0.44830  0.17710  0.85800  1.0000 0.1052483088
C   C21       1.0  0.46400  0.71910  0.32610  1.0000 -0.1527290948
C   C22       1.0  0.53600  0.71910  0.17390  1.0000 -0.1527290948
C   C23       1.0  0.53600  0.28090  0.67390  1.0000 -0.1527290948
C   C24       1.0  0.46400  0.28090  0.82610  1.0000 -0.1527290948
C   C25       1.0  0.54050  0.64800  0.35090  1.0000 -0.0897607346
C   C26       1.0  0.45950  0.64800  0.14910  1.0000 -0.0897607346
C   C27       1.0  0.45950  0.35200  0.64910  1.0000 -0.0897607346
C   C28       1.0  0.54050  0.35200  0.85090  1.0000 -0.0897607346
C   C29       1.0  0.36440  0.89920  0.33250  1.0000 -0.1708695301
C   C30       1.0  0.63560  0.89920  0.16750  1.0000 -0.1708695301
C   C31       1.0  0.63560  0.10080  0.66750  1.0000 -0.1708695301
C   C32       1.0  0.36440  0.10080  0.83250  1.0000 -0.1708695301
C   C33       1.0  0.34100  0.92700  0.21400  1.0000 -0.1708695301
C   C34       1.0  0.65900  0.92700  0.28600  1.0000 -0.1708695301
C   C35       1.0  0.65900  0.07300  0.78600  1.0000 -0.1708695301
C   C36       1.0  0.34100  0.07300  0.71400  1.0000 -0.1708695301
C   C37       1.0  0.28590  0.03610  0.17910  1.0000 0.1008637502
C   C38       1.0  0.71410  0.03610  0.32090  1.0000 0.1008637502
C   C39       1.0  0.71410  0.96390  0.82090  1.0000 0.1008637502
C   C40       1.0  0.28590  0.96390  0.67910  1.0000 0.1008637502
C   C41       1.0  0.31360  0.10510  0.13360  1.0000 -0.159093623
C   C42       1.0  0.68640  0.10510  0.36640  1.0000 -0.159093623
C   C43       1.0  0.68640  0.89490  0.86640  1.0000 -0.159093623
C   C44       1.0  0.31360  0.89490  0.63360  1.0000 -0.159093623
C   C45       1.0  0.26310  0.20200  0.09880  1.0000 -0.0688077918
C   C46       1.0  0.73690  0.20200  0.40120  1.0000 -0.0688077918
C   C47       1.0  0.73690  0.79800  0.90120  1.0000 -0.0688077918
C   C48       1.0  0.26310  0.79800  0.59880  1.0000 -0.0688077918
C   C49       1.0  0.18210  0.23070  0.10800  1.0000 -0.015962541
C   C50       1.0  0.81790  0.23070  0.39200  1.0000 -0.015962541
C   C51       1.0  0.81790  0.76930  0.89200  1.0000 -0.015962541
C   C52       1.0  0.18210  0.76930  0.60800  1.0000 -0.015962541
C   C53       1.0  0.12430  0.33030  0.06810  1.0000 0.6280402831
C   C54       1.0  0.87570  0.33030  0.43190  1.0000 0.6280402831
C   C55       1.0  0.87570  0.66970  0.93190  1.0000 0.6280402831
C   C56       1.0  0.12430  0.66970  0.56810  1.0000 0.6280402831
C   C57       1.0  0.15590  0.16380  0.15490  1.0000 -0.081249372
C   C58       1.0  0.84410  0.16380  0.34510  1.0000 -0.081249372
C   C59       1.0  0.84410  0.83620  0.84510  1.0000 -0.081249372
C   C60       1.0  0.15590  0.83620  0.65490  1.0000 -0.081249372
C   C61       1.0  0.20710  0.06780  0.18960  1.0000 -0.1407350906
C   C62       1.0  0.79290  0.06780  0.31040  1.0000 -0.1407350906
C   C63       1.0  0.79290  0.93220  0.81040  1.0000 -0.1407350906
C   C64       1.0  0.20710  0.93220  0.68960  1.0000 -0.1407350906
C   C65       1.0  0.08040  0.63630  0.10480  1.0000 0.6280402831
C   C66       1.0  0.91960  0.63630  0.39520  1.0000 0.6280402831
C   C67       1.0  0.91960  0.36370  0.89520  1.0000 0.6280402831
C   C68       1.0  0.08040  0.36370  0.60480  1.0000 0.6280402831
C   C69       1.0  0.13180  0.65930  0.17550  1.0000 0.0008524522
C   C70       1.0  0.86820  0.65930  0.32450  1.0000 0.0008524522
C   C71       1.0  0.86820  0.34070  0.82450  1.0000 0.0008524522
C   C72       1.0  0.13180  0.34070  0.67550  1.0000 0.0008524522
C   C73       1.0  0.19840  0.74980  0.18890  1.0000 -0.1889989801
C   C74       1.0  0.80160  0.74980  0.31110  1.0000 -0.1889989801
C   C75       1.0  0.80160  0.25020  0.81110  1.0000 -0.1889989801
C   C76       1.0  0.19840  0.25020  0.68890  1.0000 -0.1889989801
C   C77       1.0  0.24860  0.77490  0.25310  1.0000 0.1634245209
C   C78       1.0  0.75140  0.77490  0.24690  1.0000 0.1634245209
C   C79       1.0  0.75140  0.22510  0.74690  1.0000 0.1634245209
C   C80       1.0  0.24860  0.22510  0.75310  1.0000 0.1634245209
C   C81       1.0  0.23330  0.70370  0.30360  1.0000 -0.1889989801
C   C82       1.0  0.76670  0.70370  0.19640  1.0000 -0.1951747098
C   C83       1.0  0.76670  0.29630  0.69640  1.0000 -0.1951747098
C   C84       1.0  0.23330  0.29630  0.80360  1.0000 -0.1951747098
C   C85       1.0  0.16740  0.61220  0.29010  1.0000 0.0146726976
C   C86       1.0  0.83260  0.61220  0.20990  1.0000 0.0146726976
C   C87       1.0  0.83260  0.38780  0.70990  1.0000 0.0146726976
C   C88       1.0  0.16740  0.38780  0.79010  1.0000 0.0146726976
C   C89       1.0  0.11590  0.59030  0.22600  1.0000 -0.109746755
C   C90       1.0  0.88410  0.59030  0.27400  1.0000 -0.109746755
C   C91       1.0  0.88410  0.40970  0.77400  1.0000 -0.109746755
C   C92       1.0  0.11590  0.40970  0.72600  1.0000 -0.109746755
C   C93       1.0  0.15480  0.53570  0.34600  1.0000 0.5603684626
C   C94       1.0  0.84520  0.53570  0.15400  1.0000 0.5603684626
C   C95       1.0  0.84520  0.46430  0.65400  1.0000 0.5603684626
C   C96       1.0  0.15480  0.46430  0.84600  1.0000 0.5603684626
N   N1        1.0  0.31290  0.87130  0.26660  1.0000 -0.0688077918
N   N2        1.0  0.68710  0.87130  0.23340  1.0000 -0.0688077918
N   N3        1.0  0.68710  0.12870  0.73340  1.0000 -0.0688077918
N   N4        1.0  0.31290  0.12870  0.76660  1.0000 -0.0688077918
O   O1        1.0  0.69200  0.51120  0.40090  1.0000 -0.5512282037
O   O2        1.0  0.30800  0.51120  0.09910  1.0000 -0.5512282037
O   O3        1.0  0.30800  0.48880  0.59910  1.0000 -0.5512282037
O   O4        1.0  0.69200  0.48880  0.90090  1.0000 -0.5512282037
O   O5        1.0  0.73590  0.63380  0.48930  1.0000 -0.5512282037
O   O6        1.0  0.26410  0.63380  0.01070  1.0000 -0.5512282037
O   O7        1.0  0.26410  0.36620  0.51070  1.0000 -0.5512282037
O   O8        1.0  0.73590  0.36620  0.98930  1.0000 -0.5512282037
O   O9        1.0  0.00790  0.57770  0.09330  1.0000 -0.6382554033
O   O10       1.0  0.99210  0.57770  0.40670  1.0000 -0.6382554033
O   O11       1.0  0.99210  0.42230  0.90670  1.0000 -0.6382554033
O   O12       1.0  0.00790  0.42230  0.59330  1.0000 -0.6382554033
O   O13       1.0  0.11110  0.67620  0.06090  1.0000 -0.5907115945
O   O14       1.0  0.88890  0.67620  0.43910  1.0000 -0.5907115945
O   O15       1.0  0.88890  0.32380  0.93910  1.0000 -0.5907115945
O   O16       1.0  0.11110  0.32380  0.56090  1.0000 -0.5907115945
O   O17       1.0  0.04480  0.32580  0.06380  1.0000 -0.6245439061
O   O18       1.0  0.95520  0.32580  0.43620  1.0000 -0.6245439061
O   O19       1.0  0.95520  0.67420  0.93620  1.0000 -0.6245439061
O   O20       1.0  0.04480  0.67420  0.56380  1.0000 -0.6252281078
O   O21       1.0  0.15780  0.41260  0.03930  1.0000 -0.5693636023
O   O22       1.0  0.84220  0.41260  0.46070  1.0000 -0.5693636023
O   O23       1.0  0.84220  0.58740  0.96070  1.0000 -0.5693636023
O   O24       1.0  0.15780  0.58740  0.53930  1.0000 -0.5693636023
O   O25       1.0  0.10830  0.43710  0.33410  1.0000 -0.6015562275
O   O26       1.0  0.89170  0.43710  0.16590  1.0000 -0.6015562275
O   O27       1.0  0.89170  0.56290  0.66590  1.0000 -0.6015562275
O   O28       1.0  0.10830  0.56290  0.83410  1.0000 -0.6015562275
O   O29       1.0  0.19120  0.57140  0.40400  1.0000 -0.5693636023
O   O30       1.0  0.80880  0.57140  0.09600  1.0000 -0.5693636023
O   O31       1.0  0.80880  0.42860  0.59600  1.0000 -0.5693636023
O   O32       1.0  0.19120  0.42860  0.90400  1.0000 -0.5693636023
