# DDEC6 charges by PACMAN v1.1 (https://github.com/mtap-research/PACMAN-charge/)
data_2017[Cu][sra]3[ASR]1
_chemical_formula_sum              "Cu4 H16 C24 N20"
_cell_length_a       5.7415
_cell_length_b       16.7408
_cell_length_c       9.2343
_cell_angle_alpha    90
_cell_angle_beta     95.568
_cell_angle_gamma    90

_symmetry_space_group_name_H-M    "P 1"
_symmetry_Int_Tables_number       1

loop_
  _symmetry_equiv_pos_as_xyz
  'x, y, z'

loop_
  _atom_site_type_symbol
  _atom_site_label
  _atom_site_symmetry_multiplicity
  _atom_site_fract_x
  _atom_site_fract_y
  _atom_site_fract_z
  _atom_site_occupancy
  _atom_site_charge
Cu  Cu1       1.0  0.25424  0.43408  0.48458  1.0000 0.179542401
Cu  Cu2       1.0  0.74576  0.93408  0.01542  1.0000 0.179542401
Cu  Cu3       1.0  0.74576  0.56592  0.51542  1.0000 0.179542401
Cu  Cu4       1.0  0.25424  0.06592  0.98458  1.0000 0.179542401
H   H1        1.0  0.94130  0.09390  0.21390  1.0000 0.1060082104
H   H2        1.0  0.75080  0.19550  0.31910  1.0000 0.1408677596
H   H3        1.0  0.19400  0.34890  0.15950  1.0000 0.1408677596
H   H4        1.0  0.36730  0.24280  0.05640  1.0000 0.1060082104
H   H5        1.0  0.05870  0.59390  0.28610  1.0000 0.1060082104
H   H6        1.0  0.24920  0.69550  0.18090  1.0000 0.1408677596
H   H7        1.0  0.80600  0.84890  0.34050  1.0000 0.1408677596
H   H8        1.0  0.63270  0.74280  0.44360  1.0000 0.1060082104
H   H9        1.0  0.05870  0.90610  0.78610  1.0000 0.1060082104
H   H10       1.0  0.24920  0.80450  0.68090  1.0000 0.1408677596
H   H11       1.0  0.80600  0.65110  0.84050  1.0000 0.1408677596
H   H12       1.0  0.63270  0.75720  0.94360  1.0000 0.1060082104
H   H13       1.0  0.94130  0.40610  0.71390  1.0000 0.1060082104
H   H14       1.0  0.75080  0.30450  0.81910  1.0000 0.1408677596
H   H15       1.0  0.19400  0.15110  0.65950  1.0000 0.1408677596
H   H16       1.0  0.36730  0.25720  0.55640  1.0000 0.1060082104
C   C1        1.0  0.83060  0.34920  0.31970  1.0000 0.241255616
C   C2        1.0  0.99140  0.14610  0.20170  1.0000 0.0704222966
C   C3        1.0  0.87710  0.20670  0.26650  1.0000 -0.1838600923
C   C4        1.0  0.95280  0.28450  0.25220  1.0000 0.0761679477
C   C5        1.0  0.13830  0.29750  0.17190  1.0000 -0.1838600923
C   C6        1.0  0.24120  0.23310  0.10990  1.0000 0.0761679477
C   C7        1.0  0.16940  0.84920  0.18030  1.0000 0.241255616
C   C8        1.0  0.00860  0.64610  0.29830  1.0000 0.0704222966
C   C9        1.0  0.12290  0.70670  0.23350  1.0000 -0.1838600923
C   C10       1.0  0.04720  0.78450  0.24780  1.0000 0.0761679477
C   C11       1.0  0.86170  0.79750  0.32810  1.0000 -0.1838600923
C   C12       1.0  0.75880  0.73310  0.39010  1.0000 0.0761679477
C   C13       1.0  0.16940  0.65080  0.68030  1.0000 0.241255616
C   C14       1.0  0.00860  0.85390  0.79830  1.0000 0.0704222966
C   C15       1.0  0.12290  0.79330  0.73350  1.0000 -0.1838600923
C   C16       1.0  0.04720  0.71550  0.74780  1.0000 0.0761679477
C   C17       1.0  0.86170  0.70250  0.82810  1.0000 -0.1838600923
C   C18       1.0  0.75880  0.76690  0.89010  1.0000 0.0761679477
C   C19       1.0  0.83060  0.15080  0.81970  1.0000 0.241255616
C   C20       1.0  0.99140  0.35390  0.70170  1.0000 0.0704222966
C   C21       1.0  0.87710  0.29330  0.76650  1.0000 -0.1838600923
C   C22       1.0  0.95280  0.21550  0.75220  1.0000 0.0761679477
C   C23       1.0  0.13830  0.20250  0.67190  1.0000 -0.1838600923
C   C24       1.0  0.24120  0.26690  0.60990  1.0000 0.0761679477
N   N1        1.0  0.60730  0.34300  0.34430  1.0000 -0.2702995789
N   N2        1.0  0.55960  0.41240  0.40510  1.0000 -0.0311289803
N   N3        1.0  0.74360  0.45810  0.41770  1.0000 -0.0311289803
N   N4        1.0  0.92190  0.41940  0.36400  1.0000 -0.2346600991
N   N5        1.0  0.17060  0.15820  0.12220  1.0000 -0.2023703259
N   N6        1.0  0.39270  0.84300  0.15570  1.0000 -0.2702995789
N   N7        1.0  0.44040  0.91240  0.09490  1.0000 -0.0311289803
N   N8        1.0  0.25640  0.95810  0.08230  1.0000 -0.0311289803
N   N9        1.0  0.07810  0.91940  0.13600  1.0000 -0.2346600991
N   N10       1.0  0.82940  0.65820  0.37780  1.0000 -0.2023703259
N   N11       1.0  0.39270  0.65700  0.65570  1.0000 -0.2702995789
N   N12       1.0  0.44040  0.58760  0.59490  1.0000 -0.0311289803
N   N13       1.0  0.25640  0.54190  0.58230  1.0000 -0.0311289803
N   N14       1.0  0.07810  0.58060  0.63600  1.0000 -0.2346600991
N   N15       1.0  0.82940  0.84180  0.87780  1.0000 -0.2023703259
N   N16       1.0  0.60730  0.15700  0.84430  1.0000 -0.2702995789
N   N17       1.0  0.55960  0.08760  0.90510  1.0000 -0.0311289803
N   N18       1.0  0.74360  0.04190  0.91770  1.0000 -0.0311289803
N   N19       1.0  0.92190  0.08060  0.86400  1.0000 -0.2346600991
N   N20       1.0  0.17060  0.34180  0.62220  1.0000 -0.2023703259
