# DDEC6 charges by PACMAN v1.1 (https://github.com/mtap-research/PACMAN-charge/)
data_2017[Sm][nan]3[ASR]2
_chemical_formula_sum              "Sm4 H44 C52 O32"
_cell_length_a       11.9
_cell_length_b       12.494
_cell_length_c       12.539
_cell_angle_alpha    90
_cell_angle_beta     98.76
_cell_angle_gamma    90

_symmetry_space_group_name_H-M    "P 1"
_symmetry_Int_Tables_number       1

loop_
  _symmetry_equiv_pos_as_xyz
  'x, y, z'

loop_
  _atom_site_type_symbol
  _atom_site_label
  _atom_site_symmetry_multiplicity
  _atom_site_fract_x
  _atom_site_fract_y
  _atom_site_fract_z
  _atom_site_occupancy
  _atom_site_charge
Sm  Sm1       1.0  0.63093  0.55237  0.86963  1.0000 2.0890322731
Sm  Sm2       1.0  0.37493  0.76398  0.82030  1.0000 2.1320190237
Sm  Sm3       1.0  0.36907  0.05237  0.13037  1.0000 2.0890322731
Sm  Sm4       1.0  0.62507  0.26398  0.17970  1.0000 2.1320190237
H   H1        1.0  0.68573  0.59580  0.52730  1.0000 0.1477349903
H   H2        1.0  0.51877  0.66928  0.20356  1.0000 0.1311435222
H   H3        1.0  0.34280  0.72636  0.47453  1.0000 0.1394333568
H   H4        1.0  0.69183  0.70118  0.19417  1.0000 0.0624371327
H   H5        1.0  0.89623  0.66686  0.25354  1.0000 0.1394333568
H   H6        1.0  0.85514  0.62022  0.11696  1.0000 0.1394333568
H   H7        1.0  0.87671  0.52654  0.22606  1.0000 0.1477349903
H   H8        1.0  0.34514  0.62471  0.14274  1.0000 0.0624371327
H   H9        1.0  0.13884  0.64271  0.16128  1.0000 0.1394333568
H   H10       1.0  0.16286  0.68029  0.02822  1.0000 0.1394333568
H   H11       1.0  0.14088  0.78054  0.12515  1.0000 0.1394333568
H   H12       1.0  0.99119  0.46711  0.08280  1.0000 0.1311435222
H   H13       1.0  0.29980  0.39219  0.95441  1.0000 0.1311435222
H   H14       1.0  0.98446  0.43769  0.73679  1.0000 0.1394333568
H   H15       1.0  0.37103  0.37800  0.80736  1.0000 0.0624371327
H   H16       1.0  0.32250  0.33931  0.60589  1.0000 0.1311435222
H   H17       1.0  0.43308  0.43586  0.63751  1.0000 0.1394333568
H   H18       1.0  0.29085  0.47820  0.58341  1.0000 0.1394333568
H   H19       1.0  0.37274  0.45139  0.12060  1.0000 0.0624371327
H   H20       1.0  0.32773  0.49679  0.30842  1.0000 0.1394333568
H   H21       1.0  0.43821  0.39918  0.31417  1.0000 0.1311435222
H   H22       1.0  0.29603  0.35880  0.32743  1.0000 0.1477349903
H   H23       1.0  0.31427  0.09580  0.47270  1.0000 0.1477349903
H   H24       1.0  0.48123  0.16928  0.79644  1.0000 0.1311435222
H   H25       1.0  0.65720  0.22636  0.52547  1.0000 0.1394333568
H   H26       1.0  0.30817  0.20118  0.80583  1.0000 0.0624371327
H   H27       1.0  0.10377  0.16686  0.74646  1.0000 0.1394333568
H   H28       1.0  0.14486  0.12022  0.88304  1.0000 0.1394333568
H   H29       1.0  0.12329  0.02654  0.77394  1.0000 0.1477349903
H   H30       1.0  0.65486  0.12471  0.85726  1.0000 0.0624371327
H   H31       1.0  0.86116  0.14271  0.83872  1.0000 0.1394333568
H   H32       1.0  0.83714  0.18029  0.97178  1.0000 0.1394333568
H   H33       1.0  0.85912  0.28054  0.87485  1.0000 0.1394333568
H   H34       1.0  0.00881  0.96711  0.91720  1.0000 0.1311435222
H   H35       1.0  0.70020  0.89219  0.04559  1.0000 0.1311435222
H   H36       1.0  0.01554  0.93769  0.26321  1.0000 0.1394333568
H   H37       1.0  0.62897  0.87800  0.19264  1.0000 0.0624371327
H   H38       1.0  0.67750  0.83931  0.39411  1.0000 0.1311435222
H   H39       1.0  0.56692  0.93586  0.36249  1.0000 0.1394333568
H   H40       1.0  0.70915  0.97820  0.41659  1.0000 0.1394333568
H   H41       1.0  0.62726  0.95139  0.87940  1.0000 0.0624371327
H   H42       1.0  0.67227  0.99679  0.69158  1.0000 0.1311435222
H   H43       1.0  0.56179  0.89918  0.68583  1.0000 0.1311435222
H   H44       1.0  0.70397  0.85880  0.67257  1.0000 0.1477349903
C   C1        1.0  0.51462  0.66228  0.51052  1.0000 -0.0109983922
C   C2        1.0  0.61186  0.62474  0.47222  1.0000 -0.2282632298
C   C3        1.0  0.61370  0.62966  0.36118  1.0000 0.2799429204
C   C4        1.0  0.51788  0.66564  0.29025  1.0000 -0.3392042114
C   C5        1.0  0.42017  0.69839  0.33170  1.0000 0.2799429204
C   C6        1.0  0.41895  0.70047  0.44265  1.0000 -0.2282632298
C   C7        1.0  0.51114  0.66161  0.62804  1.0000 0.6615822719
C   C8        1.0  0.72143  0.61863  0.21570  1.0000 0.0912319676
C   C9        1.0  0.64483  0.54049  0.14164  1.0000 0.6615822719
C   C10       1.0  0.84550  0.60725  0.20216  1.0000 -0.400744111
C   C11       1.0  0.30627  0.70382  0.15594  1.0000 0.0912319676
C   C12       1.0  0.36703  0.78572  0.09451  1.0000 0.6678120897
C   C13       1.0  0.17928  0.70215  0.11458  1.0000 -0.400744111
C   C14       1.0  0.97601  0.45395  0.90841  1.0000 0.0149089995
C   C15       1.0  0.03440  0.45117  0.01353  1.0000 -0.2204733215
C   C16       1.0  0.15084  0.42868  0.02989  1.0000 0.2799429204
C   C17       1.0  0.20850  0.40901  0.94222  1.0000 -0.3343429758
C   C18       1.0  0.14655  0.41100  0.83714  1.0000 0.2734150992
C   C19       1.0  0.03039  0.43326  0.81897  1.0000 -0.2204733215
C   C20       1.0  0.85250  0.48069  0.89165  1.0000 0.5718070076
C   C21       1.0  0.31216  0.42856  0.75103  1.0000 0.106924604
C   C22       1.0  0.32561  0.54417  0.79238  1.0000 0.5788432167
C   C23       1.0  0.34152  0.42079  0.63729  1.0000 -0.400744111
C   C24       1.0  0.31720  0.40066  0.16424  1.0000 0.106924604
C   C25       1.0  0.33403  0.28441  0.13360  1.0000 0.593887429
C   C26       1.0  0.34698  0.41426  0.28607  1.0000 -0.400744111
C   C27       1.0  0.48538  0.16228  0.48948  1.0000 -0.0109983922
C   C28       1.0  0.38814  0.12474  0.52778  1.0000 -0.2282632298
C   C29       1.0  0.38630  0.12966  0.63882  1.0000 0.2799429204
C   C30       1.0  0.48212  0.16564  0.70975  1.0000 -0.3392042114
C   C31       1.0  0.57983  0.19839  0.66830  1.0000 0.2799429204
C   C32       1.0  0.58105  0.20047  0.55735  1.0000 -0.2282632298
C   C33       1.0  0.48886  0.16161  0.37196  1.0000 0.6615822719
C   C34       1.0  0.27857  0.11863  0.78430  1.0000 0.0912319676
C   C35       1.0  0.35517  0.04049  0.85836  1.0000 0.6615822719
C   C36       1.0  0.15450  0.10725  0.79784  1.0000 -0.400744111
C   C37       1.0  0.69373  0.20382  0.84406  1.0000 0.0912319676
C   C38       1.0  0.63297  0.28572  0.90549  1.0000 0.6678120897
C   C39       1.0  0.82072  0.20215  0.88542  1.0000 -0.400744111
C   C40       1.0  0.02399  0.95395  0.09159  1.0000 0.0149089995
C   C41       1.0  0.96560  0.95117  0.98647  1.0000 -0.2204733215
C   C42       1.0  0.84916  0.92868  0.97011  1.0000 0.2799429204
C   C43       1.0  0.79150  0.90901  0.05778  1.0000 -0.3343429758
C   C44       1.0  0.85345  0.91100  0.16286  1.0000 0.2734150992
C   C45       1.0  0.96961  0.93326  0.18103  1.0000 -0.2204733215
C   C46       1.0  0.14750  0.98069  0.10835  1.0000 0.5718070076
C   C47       1.0  0.68784  0.92856  0.24897  1.0000 0.106924604
C   C48       1.0  0.67439  0.04417  0.20762  1.0000 0.5788432167
C   C49       1.0  0.65848  0.92079  0.36271  1.0000 -0.400744111
C   C50       1.0  0.68280  0.90066  0.83576  1.0000 0.106924604
C   C51       1.0  0.66597  0.78441  0.86640  1.0000 0.593887429
C   C52       1.0  0.65302  0.91426  0.71393  1.0000 -0.400744111
O   O1        1.0  0.43559  0.72141  0.66221  1.0000 -0.7292060151
O   O2        1.0  0.58188  0.60336  0.68893  1.0000 -0.6677831753
O   O3        1.0  0.71466  0.59958  0.32788  1.0000 -0.2204733215
O   O4        1.0  0.62933  0.44689  0.17868  1.0000 -0.719234009
O   O5        1.0  0.60179  0.57500  0.04905  1.0000 -0.6606071337
O   O6        1.0  0.31906  0.72671  0.26909  1.0000 -0.2115634753
O   O7        1.0  0.36794  0.76078  0.99548  1.0000 -0.719234009
O   O8        1.0  0.41089  0.86912  0.14054  1.0000 -0.6606071337
O   O9        1.0  0.79936  0.49998  0.79658  1.0000 -0.6239646568
O   O10       1.0  0.79981  0.48360  0.97482  1.0000 -0.6677831753
O   O11       1.0  0.20030  0.43049  0.13705  1.0000 -0.2115634753
O   O12       1.0  0.25313  0.21908  0.11984  1.0000 -0.5607253506
O   O13       1.0  0.43746  0.25544  0.12550  1.0000 -0.7940405204
O   O14       1.0  0.19650  0.39225  0.74564  1.0000 -0.2204733215
O   O15       1.0  0.24641  0.61308  0.76915  1.0000 -0.6129495992
O   O16       1.0  0.42283  0.57034  0.84809  1.0000 -0.7591427757
O   O17       1.0  0.56441  0.22141  0.33779  1.0000 -0.7292060151
O   O18       1.0  0.41812  0.10336  0.31107  1.0000 -0.6677831753
O   O19       1.0  0.28534  0.09958  0.67212  1.0000 -0.2115634753
O   O20       1.0  0.37067  0.94689  0.82132  1.0000 -0.719234009
O   O21       1.0  0.39821  0.07500  0.95095  1.0000 -0.6606071337
O   O22       1.0  0.68094  0.22671  0.73091  1.0000 -0.2115634753
O   O23       1.0  0.63206  0.26078  0.00452  1.0000 -0.719234009
O   O24       1.0  0.58911  0.36912  0.85946  1.0000 -0.6606071337
O   O25       1.0  0.20064  0.99998  0.20342  1.0000 -0.6239646568
O   O26       1.0  0.20019  0.98360  0.02518  1.0000 -0.6677831753
O   O27       1.0  0.79970  0.93049  0.86295  1.0000 -0.2115634753
O   O28       1.0  0.74687  0.71908  0.88016  1.0000 -0.5607253506
O   O29       1.0  0.56254  0.75544  0.87450  1.0000 -0.7940405204
O   O30       1.0  0.80350  0.89225  0.25436  1.0000 -0.2204733215
O   O31       1.0  0.75359  0.11308  0.23085  1.0000 -0.6129495992
O   O32       1.0  0.57717  0.07034  0.15191  1.0000 -0.7591427757
