# DDEC6 charges by PACMAN v1.1 (https://github.com/mtap-research/PACMAN-charge/)
data_2017[Zn][pcu]3[ASR]17
_chemical_formula_sum              "Zn8 H120 C200 N56 O32"
_cell_length_a       16.3436
_cell_length_b       19.1325
_cell_length_c       17.7966
_cell_angle_alpha    90
_cell_angle_beta     101.934
_cell_angle_gamma    90

_symmetry_space_group_name_H-M    "P 1"
_symmetry_Int_Tables_number       1

loop_
  _symmetry_equiv_pos_as_xyz
  'x, y, z'

loop_
  _atom_site_type_symbol
  _atom_site_label
  _atom_site_symmetry_multiplicity
  _atom_site_fract_x
  _atom_site_fract_y
  _atom_site_fract_z
  _atom_site_occupancy
  _atom_site_charge
Zn  Zn1       1.0  0.41950  0.15911  0.91134  1.0000 0.8121603645
Zn  Zn2       1.0  0.59450  0.02272  0.88115  1.0000 0.8121603645
Zn  Zn3       1.0  0.08532  0.65822  0.83696  1.0000 0.8121603645
Zn  Zn4       1.0  0.90915  0.52277  0.86356  1.0000 0.8121603645
Zn  Zn5       1.0  0.58050  0.65911  0.08866  1.0000 0.8121603645
Zn  Zn6       1.0  0.40550  0.52272  0.11885  1.0000 0.8121603645
Zn  Zn7       1.0  0.91468  0.15822  0.16304  1.0000 0.8121603645
Zn  Zn8       1.0  0.09085  0.02277  0.13644  1.0000 0.8121603645
H   H1        1.0  0.24030  0.47580  0.81680  1.0000 0.1201164044
H   H2        1.0  0.32460  0.37820  0.83230  1.0000 0.1201164044
H   H3        1.0  0.15940  0.28050  0.93590  1.0000 0.1201164044
H   H4        1.0  0.07910  0.37940  0.92410  1.0000 0.1201164044
H   H5        1.0  0.74370  0.19630  0.84690  1.0000 0.1104985934
H   H6        1.0  0.81960  0.29830  0.83430  1.0000 0.1201164044
H   H7        1.0  0.65960  0.41150  0.92580  1.0000 0.1201164044
H   H8        1.0  0.58200  0.31090  0.94060  1.0000 0.1201164044
H   H9        1.0  0.93030  0.81390  0.83920  1.0000 0.1278197024
H   H10       1.0  0.85430  0.91230  0.86040  1.0000 0.1104985934
H   H11       1.0  0.67080  0.78730  0.90260  1.0000 0.1201164044
H   H12       1.0  0.74820  0.69030  0.88140  1.0000 0.1201164044
H   H13       1.0  0.43480  0.86990  0.85960  1.0000 0.1278197024
H   H14       1.0  0.34610  0.77450  0.84400  1.0000 0.1201164044
H   H15       1.0  0.16150  0.89190  0.88600  1.0000 0.1278197024
H   H16       1.0  0.24660  0.98880  0.90030  1.0000 0.1201164044
H   H17       1.0  0.80090  0.70750  0.23620  1.0000 0.1104985934
H   H18       1.0  0.89790  0.54140  0.36260  1.0000 0.1278197024
H   H19       1.0  0.78820  0.70040  0.44960  1.0000 0.1104985934
H   H20       1.0  0.82450  0.65380  0.13550  1.0000 0.307229217
H   H21       1.0  0.01060  0.43970  0.13900  1.0000 0.1403327551
H   H22       1.0  0.99970  0.44780  0.00870  1.0000 0.1104985934
H   H23       1.0  0.84950  0.61150  0.99080  1.0000 0.1278197024
H   H24       1.0  0.92210  0.49410  0.47960  1.0000 0.307229217
H   H25       1.0  0.97210  0.41710  0.62170  1.0000 0.1494752086
H   H26       1.0  0.96230  0.42830  0.74800  1.0000 0.1201164044
H   H27       1.0  0.84800  0.60900  0.71350  1.0000 0.1278197024
H   H28       1.0  0.71930  0.19560  0.51620  1.0000 0.1104985934
H   H29       1.0  0.59570  0.04650  0.37820  1.0000 0.1278197024
H   H30       1.0  0.73290  0.19730  0.30270  1.0000 0.1104985934
H   H31       1.0  0.56940  0.99690  0.49000  1.0000 0.307229217
H   H32       1.0  0.51610  0.92100  0.61130  1.0000 0.1494752086
H   H33       1.0  0.52680  0.93070  0.74160  1.0000 0.1201164044
H   H34       1.0  0.63780  0.11400  0.75010  1.0000 0.1278197024
H   H35       1.0  0.70030  0.14550  0.18830  1.0000 0.307229217
H   H36       1.0  0.51010  0.93470  0.12130  1.0000 0.1494752086
H   H37       1.0  0.52410  0.93880  0.99580  1.0000 0.1104985934
H   H38       1.0  0.67120  0.10440  0.03260  1.0000 0.1278197024
H   H39       1.0  0.31620  0.97450  0.27900  1.0000 0.1104985934
H   H40       1.0  0.41740  0.13420  0.41010  1.0000 0.1278197024
H   H41       1.0  0.30390  0.97720  0.49710  1.0000 0.1201164044
H   H42       1.0  0.33400  0.02920  0.17960  1.0000 0.3027327365
H   H43       1.0  0.51850  0.24570  0.18500  1.0000 0.1403327551
H   H44       1.0  0.50400  0.24180  0.05620  1.0000 0.1201164044
H   H45       1.0  0.35950  0.07550  0.03590  1.0000 0.1278197024
H   H46       1.0  0.44020  0.18360  0.52960  1.0000 0.307229217
H   H47       1.0  0.48340  0.26140  0.66820  1.0000 0.1494752086
H   H48       1.0  0.47160  0.25100  0.79540  1.0000 0.1201164044
H   H49       1.0  0.35490  0.07020  0.75860  1.0000 0.1278197024
H   H50       1.0  0.19830  0.47970  0.47050  1.0000 0.1104985934
H   H51       1.0  0.08550  0.63650  0.33730  1.0000 0.1278197024
H   H52       1.0  0.21400  0.48800  0.25420  1.0000 0.1104985934
H   H53       1.0  0.04740  0.67700  0.44530  1.0000 0.3027327365
H   H54       1.0  0.99440  0.75250  0.56600  1.0000 0.1494752086
H   H55       1.0  0.01160  0.74420  0.69860  1.0000 0.1278197024
H   H56       1.0  0.13080  0.56580  0.70860  1.0000 0.1278197024
H   H57       1.0  0.18630  0.53840  0.14520  1.0000 0.307229217
H   H58       1.0  0.01270  0.75770  0.07880  1.0000 0.1494752086
H   H59       1.0  0.02650  0.75080  0.95430  1.0000 0.1104985934
H   H60       1.0  0.16030  0.58100  0.99020  1.0000 0.1278197024
H   H61       1.0  0.75970  0.97580  0.18320  1.0000 0.1201164044
H   H62       1.0  0.67540  0.87820  0.16770  1.0000 0.1201164044
H   H63       1.0  0.84060  0.78050  0.06410  1.0000 0.1201164044
H   H64       1.0  0.92090  0.87940  0.07590  1.0000 0.1201164044
H   H65       1.0  0.25630  0.69630  0.15310  1.0000 0.1104985934
H   H66       1.0  0.18040  0.79830  0.16570  1.0000 0.1278197024
H   H67       1.0  0.34040  0.91150  0.07420  1.0000 0.1201164044
H   H68       1.0  0.41800  0.81090  0.05940  1.0000 0.1201164044
H   H69       1.0  0.06970  0.31390  0.16080  1.0000 0.1278197024
H   H70       1.0  0.14570  0.41230  0.13960  1.0000 0.1104985934
H   H71       1.0  0.32920  0.28730  0.09740  1.0000 0.1201164044
H   H72       1.0  0.25180  0.19030  0.11860  1.0000 0.1201164044
H   H73       1.0  0.56520  0.36990  0.14040  1.0000 0.1278197024
H   H74       1.0  0.65390  0.27450  0.15600  1.0000 0.1201164044
H   H75       1.0  0.83850  0.39190  0.11400  1.0000 0.1201164044
H   H76       1.0  0.75340  0.48880  0.09970  1.0000 0.1201164044
H   H77       1.0  0.19910  0.20750  0.76380  1.0000 0.1104985934
H   H78       1.0  0.10210  0.04140  0.63740  1.0000 0.1278197024
H   H79       1.0  0.21180  0.20040  0.55040  1.0000 0.1104985934
H   H80       1.0  0.17550  0.15380  0.86450  1.0000 0.307229217
H   H81       1.0  0.98940  0.93970  0.86100  1.0000 0.1403327551
H   H82       1.0  0.00030  0.94780  0.99130  1.0000 0.1104985934
H   H83       1.0  0.15050  0.11150  0.00920  1.0000 0.1278197024
H   H84       1.0  0.07790  0.99410  0.52040  1.0000 0.307229217
H   H85       1.0  0.02790  0.91710  0.37830  1.0000 0.1494752086
H   H86       1.0  0.03770  0.92830  0.25200  1.0000 0.1201164044
H   H87       1.0  0.15200  0.10900  0.28650  1.0000 0.1278197024
H   H88       1.0  0.28070  0.69560  0.48380  1.0000 0.1104985934
H   H89       1.0  0.40430  0.54650  0.62180  1.0000 0.1278197024
H   H90       1.0  0.26710  0.69730  0.69730  1.0000 0.1104985934
H   H91       1.0  0.43060  0.49690  0.51000  1.0000 0.307229217
H   H92       1.0  0.48390  0.42100  0.38870  1.0000 0.1494752086
H   H93       1.0  0.47320  0.43070  0.25840  1.0000 0.1201164044
H   H94       1.0  0.36220  0.61400  0.24990  1.0000 0.1278197024
H   H95       1.0  0.29970  0.64550  0.81170  1.0000 0.307229217
H   H96       1.0  0.48990  0.43470  0.87870  1.0000 0.1494752086
H   H97       1.0  0.47590  0.43880  0.00420  1.0000 0.1104985934
H   H98       1.0  0.32880  0.60440  0.96740  1.0000 0.1278197024
H   H99       1.0  0.68380  0.47450  0.72100  1.0000 0.1104985934
H   H100      1.0  0.58260  0.63420  0.58990  1.0000 0.1201164044
H   H101      1.0  0.69610  0.47720  0.50290  1.0000 0.1201164044
H   H102      1.0  0.66600  0.52920  0.82040  1.0000 0.307229217
H   H103      1.0  0.48150  0.74570  0.81500  1.0000 0.1403327551
H   H104      1.0  0.49600  0.74180  0.94380  1.0000 0.1201164044
H   H105      1.0  0.64050  0.57550  0.96410  1.0000 0.1278197024
H   H106      1.0  0.55980  0.68360  0.47040  1.0000 0.307229217
H   H107      1.0  0.51660  0.76140  0.33180  1.0000 0.1494752086
H   H108      1.0  0.52840  0.75100  0.20460  1.0000 0.1201164044
H   H109      1.0  0.64510  0.57020  0.24140  1.0000 0.1278197024
H   H110      1.0  0.80170  0.97970  0.52950  1.0000 0.1104985934
H   H111      1.0  0.91450  0.13650  0.66270  1.0000 0.1278197024
H   H112      1.0  0.78600  0.98800  0.74580  1.0000 0.1104985934
H   H113      1.0  0.95260  0.17700  0.55470  1.0000 0.3027327365
H   H114      1.0  0.00560  0.25250  0.43400  1.0000 0.1494752086
H   H115      1.0  0.98840  0.24420  0.30140  1.0000 0.1278197024
H   H116      1.0  0.86920  0.06580  0.29140  1.0000 0.1278197024
H   H117      1.0  0.81370  0.03840  0.85480  1.0000 0.307229217
H   H118      1.0  0.98730  0.25770  0.92120  1.0000 0.1494752086
H   H119      1.0  0.97350  0.25080  0.04570  1.0000 0.1104985934
H   H120      1.0  0.83970  0.08100  0.00980  1.0000 0.1278197024
C   C1        1.0  0.09980  0.50450  0.86430  1.0000 0.5685485965
C   C2        1.0  0.15260  0.43970  0.86860  1.0000 -0.0295887672
C   C3        1.0  0.22460  0.43700  0.84190  1.0000 -0.0941213775
C   C4        1.0  0.27530  0.37860  0.85070  1.0000 -0.1101598133
C   C5        1.0  0.25130  0.31960  0.88810  1.0000 -0.003562719
C   C6        1.0  0.17660  0.32030  0.91340  1.0000 -0.1199872446
C   C7        1.0  0.12820  0.37890  0.90550  1.0000 -0.1002560034
C   C8        1.0  0.31070  0.25720  0.90080  1.0000 0.5370290644
C   C9        1.0  0.60820  0.17770  0.90430  1.0000 0.576553396
C   C10       1.0  0.65650  0.24400  0.89580  1.0000 -0.0295887672
C   C11       1.0  0.72690  0.23910  0.86320  1.0000 -0.1101598133
C   C12       1.0  0.77220  0.30060  0.85550  1.0000 -0.1002560034
C   C13       1.0  0.74660  0.36410  0.87910  1.0000 -0.0200137151
C   C14       1.0  0.67640  0.36830  0.91040  1.0000 -0.1101598133
C   C15       1.0  0.62940  0.30800  0.91950  1.0000 -0.1101598133
C   C16       1.0  0.79700  0.42800  0.87040  1.0000 0.550124781
C   C17       1.0  0.89430  0.67770  0.84440  1.0000 0.576553396
C   C18       1.0  0.84570  0.74200  0.85910  1.0000 -0.0295887672
C   C19       1.0  0.87820  0.80880  0.85190  1.0000 -0.1101598133
C   C20       1.0  0.83230  0.86780  0.86380  1.0000 -0.1300590394
C   C21       1.0  0.75380  0.85970  0.88050  1.0000 -0.0102538845
C   C22       1.0  0.72240  0.79290  0.88910  1.0000 -0.1002560034
C   C23       1.0  0.76950  0.73480  0.87700  1.0000 -0.1002560034
C   C24       1.0  0.70000  0.92270  0.88580  1.0000 0.550124781
C   C25       1.0  0.40490  0.00360  0.88490  1.0000 0.5685485965
C   C26       1.0  0.35040  0.94110  0.87970  1.0000 -0.0386826702
C   C27       1.0  0.37950  0.87550  0.86390  1.0000 -0.1101598133
C   C28       1.0  0.32580  0.81800  0.85460  1.0000 -0.1199872446
C   C29       1.0  0.24620  0.82370  0.86050  1.0000 -0.0102538845
C   C30       1.0  0.21630  0.88800  0.87940  1.0000 -0.0941213775
C   C31       1.0  0.26750  0.94600  0.88830  1.0000 -0.0941213775
C   C32       1.0  0.18680  0.76320  0.84730  1.0000 0.550124781
C   C33       1.0  0.81190  0.68370  0.28270  1.0000 0.0024183553
C   C34       1.0  0.85550  0.61930  0.28550  1.0000 -0.0200137151
C   C35       1.0  0.87150  0.58480  0.35750  1.0000 -0.1556407445
C   C36       1.0  0.84830  0.61520  0.41940  1.0000 -0.0200137151
C   C37       1.0  0.80440  0.68000  0.40750  1.0000 0.0372770011
C   C38       1.0  0.87920  0.58960  0.21930  1.0000 0.2891274719
C   C39       1.0  0.88850  0.57590  0.09940  1.0000 0.0818560525
C   C40       1.0  0.93540  0.52580  0.14500  1.0000 0.1494752086
C   C41       1.0  0.97870  0.47460  0.11060  1.0000 -0.2278922747
C   C42       1.0  0.97010  0.48010  0.03180  1.0000 0.0112379373
C   C43       1.0  0.88190  0.57710  0.01960  1.0000 -0.0200137151
C   C44       1.0  0.86470  0.58390  0.49590  1.0000 0.2891274719
C   C45       1.0  0.87360  0.56640  0.61640  1.0000 0.0818560525
C   C46       1.0  0.91030  0.51010  0.58850  1.0000 0.1567365047
C   C47       1.0  0.94610  0.45550  0.63870  1.0000 -0.2278922747
C   C48       1.0  0.93990  0.46340  0.71380  1.0000 0.0605221606
C   C49       1.0  0.87160  0.57020  0.69460  1.0000 0.0372770011
C   C50       1.0  0.70530  0.17470  0.46810  1.0000 0.0372770011
C   C51       1.0  0.65400  0.11360  0.46050  1.0000 -0.0295887672
C   C52       1.0  0.63090  0.08510  0.38700  1.0000 -0.1300590394
C   C53       1.0  0.66130  0.11530  0.32660  1.0000 -0.003562719
C   C54       1.0  0.71330  0.17630  0.34270  1.0000 0.0324503648
C   C55       1.0  0.62770  0.08620  0.52840  1.0000 0.2891274719
C   C56       1.0  0.61270  0.07070  0.64370  1.0000 0.0818560525
C   C57       1.0  0.57700  0.01360  0.60210  1.0000 0.1567365047
C   C58       1.0  0.54190  0.95940  0.63830  1.0000 -0.2212066614
C   C59       1.0  0.54800  0.96680  0.71630  1.0000 0.0466219253
C   C60       1.0  0.61450  0.07480  0.72300  1.0000 0.0112379373
C   C61       1.0  0.63800  0.08510  0.24830  1.0000 0.3027327365
C   C62       1.0  0.63350  0.07060  0.12630  1.0000 0.1104985934
C   C63       1.0  0.58170  0.02010  0.15470  1.0000 0.1667941925
C   C64       1.0  0.54220  0.96940  0.10480  1.0000 -0.2212066614
C   C65       1.0  0.55210  0.97220  0.02960  1.0000 0.0324503648
C   C66       1.0  0.63950  0.07010  0.05030  1.0000 -0.0102538845
C   C67       1.0  0.32620  0.99690  0.32630  1.0000 0.019507932
C   C68       1.0  0.36780  0.06050  0.33320  1.0000 -0.003562719
C   C69       1.0  0.38810  0.09220  0.40410  1.0000 -0.1535768443
C   C70       1.0  0.36420  0.06080  0.46690  1.0000 -0.0200137151
C   C71       1.0  0.32010  0.99820  0.45540  1.0000 0.0112379373
C   C72       1.0  0.39190  0.09240  0.26450  1.0000 0.307229217
C   C73       1.0  0.39810  0.10970  0.14470  1.0000 0.0889188341
C   C74       1.0  0.44510  0.16080  0.19200  1.0000 0.1667941925
C   C75       1.0  0.48610  0.21110  0.15650  1.0000 -0.2115011633
C   C76       1.0  0.47730  0.20780  0.07980  1.0000 0.0372770011
C   C77       1.0  0.39160  0.10920  0.06620  1.0000 -0.0102538845
C   C78       1.0  0.38050  0.09280  0.54260  1.0000 0.2823754019
C   C79       1.0  0.38570  0.11010  0.66490  1.0000 0.0818560525
C   C80       1.0  0.42500  0.16680  0.63600  1.0000 0.1667941925
C   C81       1.0  0.45800  0.22280  0.68530  1.0000 -0.2278922747
C   C82       1.0  0.44960  0.21570  0.76130  1.0000 0.0324503648
C   C83       1.0  0.38050  0.10850  0.74080  1.0000 0.0324503648
C   C84       1.0  0.18470  0.50140  0.42280  1.0000 0.0324503648
C   C85       1.0  0.13650  0.56180  0.41480  1.0000 -0.0200137151
C   C86       1.0  0.11750  0.59590  0.34350  1.0000 -0.1300590394
C   C87       1.0  0.14720  0.56820  0.28220  1.0000 -0.003562719
C   C88       1.0  0.19400  0.50700  0.29510  1.0000 0.019507932
C   C89       1.0  0.11080  0.59050  0.48400  1.0000 0.2891274719
C   C90       1.0  0.09900  0.60540  0.60140  1.0000 0.0818560525
C   C91       1.0  0.06130  0.66110  0.55900  1.0000 0.1403327551
C   C92       1.0  0.02320  0.71560  0.59360  1.0000 -0.2212066614
C   C93       1.0  0.03310  0.70870  0.67260  1.0000 0.0605221606
C   C94       1.0  0.10430  0.60320  0.68020  1.0000 0.0112379373
C   C95       1.0  0.12830  0.60000  0.20620  1.0000 0.307229217
C   C96       1.0  0.12260  0.61650  0.08290  1.0000 0.0818560525
C   C97       1.0  0.07790  0.66860  0.11250  1.0000 0.1567365047
C   C98       1.0  0.04190  0.72090  0.06250  1.0000 -0.2115011633
C   C99       1.0  0.05120  0.71580  0.98770  1.0000 0.0112379373
C   C100      1.0  0.12930  0.61630  0.00680  1.0000 0.019507932
C   C101      1.0  0.90020  0.00450  0.13570  1.0000 0.5685485965
C   C102      1.0  0.84740  0.93970  0.13140  1.0000 -0.0295887672
C   C103      1.0  0.77540  0.93700  0.15810  1.0000 -0.0941213775
C   C104      1.0  0.72470  0.87860  0.14930  1.0000 -0.1101598133
C   C105      1.0  0.74870  0.81960  0.11190  1.0000 -0.003562719
C   C106      1.0  0.82340  0.82030  0.08660  1.0000 -0.1199872446
C   C107      1.0  0.87180  0.87890  0.09450  1.0000 -0.1002560034
C   C108      1.0  0.68930  0.75720  0.09920  1.0000 0.5370290644
C   C109      1.0  0.39180  0.67770  0.09570  1.0000 0.576553396
C   C110      1.0  0.34350  0.74400  0.10420  1.0000 -0.0295887672
C   C111      1.0  0.27310  0.73910  0.13680  1.0000 -0.1101598133
C   C112      1.0  0.22780  0.80060  0.14450  1.0000 -0.1002560034
C   C113      1.0  0.25340  0.86410  0.12090  1.0000 -0.0200137151
C   C114      1.0  0.32360  0.86830  0.08960  1.0000 -0.1101598133
C   C115      1.0  0.37060  0.80800  0.08050  1.0000 -0.1101598133
C   C116      1.0  0.20300  0.92800  0.12960  1.0000 0.550124781
C   C117      1.0  0.10570  0.17770  0.15560  1.0000 0.576553396
C   C118      1.0  0.15430  0.24200  0.14090  1.0000 -0.0295887672
C   C119      1.0  0.12180  0.30880  0.14810  1.0000 -0.1101598133
C   C120      1.0  0.16770  0.36780  0.13620  1.0000 -0.1300590394
C   C121      1.0  0.24620  0.35970  0.11950  1.0000 -0.0102538845
C   C122      1.0  0.27760  0.29290  0.11090  1.0000 -0.1002560034
C   C123      1.0  0.23050  0.23480  0.12300  1.0000 -0.1002560034
C   C124      1.0  0.30000  0.42270  0.11420  1.0000 0.550124781
C   C125      1.0  0.59510  0.50360  0.11510  1.0000 0.5685485965
C   C126      1.0  0.64960  0.44110  0.12030  1.0000 -0.0386826702
C   C127      1.0  0.62050  0.37550  0.13610  1.0000 -0.1101598133
C   C128      1.0  0.67420  0.31800  0.14540  1.0000 -0.1199872446
C   C129      1.0  0.75380  0.32370  0.13950  1.0000 -0.003562719
C   C130      1.0  0.78370  0.38800  0.12060  1.0000 -0.0941213775
C   C131      1.0  0.73250  0.44600  0.11170  1.0000 -0.0941213775
C   C132      1.0  0.81320  0.26320  0.15270  1.0000 0.550124781
C   C133      1.0  0.18810  0.18370  0.71730  1.0000 0.0024183553
C   C134      1.0  0.14450  0.11930  0.71450  1.0000 -0.0200137151
C   C135      1.0  0.12850  0.08480  0.64250  1.0000 -0.1556407445
C   C136      1.0  0.15170  0.11520  0.58060  1.0000 -0.0200137151
C   C137      1.0  0.19560  0.18000  0.59250  1.0000 0.0372770011
C   C138      1.0  0.12080  0.08960  0.78070  1.0000 0.2891274719
C   C139      1.0  0.11150  0.07590  0.90060  1.0000 0.0818560525
C   C140      1.0  0.06460  0.02580  0.85500  1.0000 0.1494752086
C   C141      1.0  0.02130  0.97460  0.88940  1.0000 -0.2278922747
C   C142      1.0  0.02990  0.98010  0.96820  1.0000 0.0112379373
C   C143      1.0  0.11810  0.07710  0.98040  1.0000 -0.0200137151
C   C144      1.0  0.13530  0.08390  0.50410  1.0000 0.2891274719
C   C145      1.0  0.12640  0.06640  0.38360  1.0000 0.0818560525
C   C146      1.0  0.08970  0.01010  0.41150  1.0000 0.1567365047
C   C147      1.0  0.05390  0.95550  0.36130  1.0000 -0.2278922747
C   C148      1.0  0.06010  0.96340  0.28620  1.0000 0.0605221606
C   C149      1.0  0.12840  0.07020  0.30540  1.0000 0.0372770011
C   C150      1.0  0.29470  0.67470  0.53190  1.0000 0.0372770011
C   C151      1.0  0.34600  0.61360  0.53950  1.0000 -0.0295887672
C   C152      1.0  0.36910  0.58510  0.61300  1.0000 -0.1300590394
C   C153      1.0  0.33870  0.61530  0.67340  1.0000 -0.003562719
C   C154      1.0  0.28670  0.67630  0.65730  1.0000 0.0324503648
C   C155      1.0  0.37230  0.58620  0.47160  1.0000 0.2891274719
C   C156      1.0  0.38730  0.57070  0.35630  1.0000 0.0818560525
C   C157      1.0  0.42300  0.51360  0.39790  1.0000 0.1567365047
C   C158      1.0  0.45810  0.45940  0.36170  1.0000 -0.2212066614
C   C159      1.0  0.45200  0.46680  0.28370  1.0000 0.0466219253
C   C160      1.0  0.38550  0.57480  0.27700  1.0000 0.0112379373
C   C161      1.0  0.36200  0.58510  0.75170  1.0000 0.3027327365
C   C162      1.0  0.36650  0.57060  0.87370  1.0000 0.1104985934
C   C163      1.0  0.41830  0.52010  0.84530  1.0000 0.1667941925
C   C164      1.0  0.45780  0.46940  0.89520  1.0000 -0.2212066614
C   C165      1.0  0.44790  0.47220  0.97040  1.0000 0.0324503648
C   C166      1.0  0.36050  0.57010  0.94970  1.0000 -0.0102538845
C   C167      1.0  0.67380  0.49690  0.67370  1.0000 0.019507932
C   C168      1.0  0.63220  0.56050  0.66680  1.0000 -0.003562719
C   C169      1.0  0.61190  0.59220  0.59590  1.0000 -0.1535768443
C   C170      1.0  0.63580  0.56080  0.53310  1.0000 -0.0200137151
C   C171      1.0  0.67990  0.49820  0.54460  1.0000 0.0112379373
C   C172      1.0  0.60810  0.59240  0.73550  1.0000 0.307229217
C   C173      1.0  0.60190  0.60970  0.85530  1.0000 0.0889188341
C   C174      1.0  0.55490  0.66080  0.80800  1.0000 0.1667941925
C   C175      1.0  0.51390  0.71110  0.84350  1.0000 -0.2115011633
C   C176      1.0  0.52270  0.70780  0.92020  1.0000 0.0372770011
C   C177      1.0  0.60840  0.60920  0.93380  1.0000 -0.0102538845
C   C178      1.0  0.61950  0.59280  0.45740  1.0000 0.2823754019
C   C179      1.0  0.61430  0.61010  0.33510  1.0000 0.0818560525
C   C180      1.0  0.57500  0.66680  0.36400  1.0000 0.1667941925
C   C181      1.0  0.54200  0.72280  0.31470  1.0000 -0.2278922747
C   C182      1.0  0.55040  0.71570  0.23870  1.0000 0.0324503648
C   C183      1.0  0.61950  0.60850  0.25920  1.0000 0.0324503648
C   C184      1.0  0.81530  0.00140  0.57720  1.0000 0.0324503648
C   C185      1.0  0.86350  0.06180  0.58520  1.0000 -0.0200137151
C   C186      1.0  0.88250  0.09590  0.65650  1.0000 -0.1300590394
C   C187      1.0  0.85280  0.06820  0.71780  1.0000 -0.003562719
C   C188      1.0  0.80600  0.00700  0.70490  1.0000 0.019507932
C   C189      1.0  0.88920  0.09050  0.51600  1.0000 0.2891274719
C   C190      1.0  0.90100  0.10540  0.39860  1.0000 0.0818560525
C   C191      1.0  0.93870  0.16110  0.44100  1.0000 0.1403327551
C   C192      1.0  0.97680  0.21560  0.40640  1.0000 -0.2212066614
C   C193      1.0  0.96690  0.20870  0.32740  1.0000 0.0605221606
C   C194      1.0  0.89570  0.10320  0.31980  1.0000 0.0112379373
C   C195      1.0  0.87170  0.10000  0.79380  1.0000 0.307229217
C   C196      1.0  0.87740  0.11650  0.91710  1.0000 0.0818560525
C   C197      1.0  0.92210  0.16860  0.88750  1.0000 0.1567365047
C   C198      1.0  0.95810  0.22090  0.93750  1.0000 -0.2115011633
C   C199      1.0  0.94880  0.21580  0.01230  1.0000 0.0112379373
C   C200      1.0  0.87070  0.11630  0.99320  1.0000 0.019507932
N   N1        1.0  0.78530  0.71270  0.34180  1.0000 -0.2212066614
N   N2        1.0  0.92170  0.52890  0.98270  1.0000 -0.2386938403
N   N3        1.0  0.85500  0.61730  0.14780  1.0000 -0.2914679183
N   N4        1.0  0.92850  0.53390  0.22090  1.0000 -0.417274841
N   N5        1.0  0.90360  0.51820  0.74230  1.0000 -0.2386938403
N   N6        1.0  0.84370  0.61370  0.55730  1.0000 -0.3984188769
N   N7        1.0  0.90450  0.52110  0.51150  1.0000 -0.2999990474
N   N8        1.0  0.73420  0.20330  0.41150  1.0000 -0.1942943864
N   N9        1.0  0.58320  0.02330  0.76050  1.0000 -0.2386938403
N   N10       1.0  0.64470  0.11630  0.59640  1.0000 -0.3984188769
N   N11       1.0  0.58620  0.02400  0.52860  1.0000 -0.2999990474
N   N12       1.0  0.60040  0.02080  0.00020  1.0000 -0.2558250659
N   N13       1.0  0.66700  0.11060  0.18780  1.0000 -0.2914679183
N   N14       1.0  0.58760  0.03050  0.23130  1.0000 -0.4110778206
N   N15       1.0  0.29950  0.96620  0.38450  1.0000 -0.2386938403
N   N16       1.0  0.43230  0.15830  0.03390  1.0000 -0.2212066614
N   N17       1.0  0.36480  0.06550  0.19250  1.0000 -0.3116287126
N   N18       1.0  0.44140  0.14960  0.26830  1.0000 -0.4440033966
N   N19       1.0  0.41050  0.15920  0.79060  1.0000 -0.2531411433
N   N20       1.0  0.35880  0.06370  0.60490  1.0000 -0.3888429039
N   N21       1.0  0.42130  0.15640  0.56050  1.0000 -0.2914679183
N   N22       1.0  0.21220  0.47350  0.36340  1.0000 -0.2386938403
N   N23       1.0  0.07160  0.65430  0.71540  1.0000 -0.2278922747
N   N24       1.0  0.13080  0.56180  0.55360  1.0000 -0.3984188769
N   N25       1.0  0.06720  0.65080  0.48410  1.0000 -0.2999990474
N   N26       1.0  0.09400  0.66350  0.95660  1.0000 -0.2386938403
N   N27       1.0  0.15490  0.57440  0.14550  1.0000 -0.2999990474
N   N28       1.0  0.08210  0.65880  0.19050  1.0000 -0.417274841
N   N29       1.0  0.21470  0.21270  0.65820  1.0000 -0.2278922747
N   N30       1.0  0.07830  0.02890  0.01730  1.0000 -0.2386938403
N   N31       1.0  0.14500  0.11730  0.85220  1.0000 -0.2914679183
N   N32       1.0  0.07150  0.03390  0.77910  1.0000 -0.417274841
N   N33       1.0  0.09640  0.01820  0.25770  1.0000 -0.2386938403
N   N34       1.0  0.15630  0.11370  0.44270  1.0000 -0.3984188769
N   N35       1.0  0.09550  0.02110  0.48850  1.0000 -0.3116287126
N   N36       1.0  0.26580  0.70330  0.58850  1.0000 -0.1942943864
N   N37       1.0  0.41680  0.52330  0.23950  1.0000 -0.2386938403
N   N38       1.0  0.35530  0.61630  0.40360  1.0000 -0.3984188769
N   N39       1.0  0.41380  0.52400  0.47140  1.0000 -0.2999990474
N   N40       1.0  0.39960  0.52080  0.99980  1.0000 -0.2558250659
N   N41       1.0  0.33300  0.61060  0.81220  1.0000 -0.2914679183
N   N42       1.0  0.41240  0.53050  0.76870  1.0000 -0.4110778206
N   N43       1.0  0.70050  0.46620  0.61550  1.0000 -0.2386938403
N   N44       1.0  0.56770  0.65830  0.96610  1.0000 -0.2212066614
N   N45       1.0  0.63520  0.56550  0.80750  1.0000 -0.3116287126
N   N46       1.0  0.55860  0.64960  0.73170  1.0000 -0.4440033966
N   N47       1.0  0.58950  0.65920  0.20940  1.0000 -0.2531411433
N   N48       1.0  0.64120  0.56370  0.39510  1.0000 -0.3888429039
N   N49       1.0  0.57870  0.65640  0.43950  1.0000 -0.2914679183
N   N50       1.0  0.78780  0.97350  0.63660  1.0000 -0.2386938403
N   N51       1.0  0.92840  0.15430  0.28460  1.0000 -0.2212066614
N   N52       1.0  0.86920  0.06180  0.44640  1.0000 -0.3984188769
N   N53       1.0  0.93280  0.15080  0.51590  1.0000 -0.2999990474
N   N54       1.0  0.90600  0.16350  0.04340  1.0000 -0.2278922747
N   N55       1.0  0.84510  0.07440  0.85450  1.0000 -0.2999990474
N   N56       1.0  0.91790  0.15880  0.80950  1.0000 -0.417274841
O   O1        1.0  0.03280  0.50040  0.88580  1.0000 -0.5396213167
O   O2        1.0  0.13190  0.55940  0.84250  1.0000 -0.5484960013
O   O3        1.0  0.38660  0.26660  0.90400  1.0000 -0.5176516506
O   O4        1.0  0.27940  0.19680  0.90690  1.0000 -0.5765472286
O   O5        1.0  0.63760  0.12180  0.88360  1.0000 -0.5396213167
O   O6        1.0  0.54290  0.18370  0.93170  1.0000 -0.5604960107
O   O7        1.0  0.76480  0.48740  0.86940  1.0000 -0.5604960107
O   O8        1.0  0.87260  0.41980  0.86690  1.0000 -0.5176516506
O   O9        1.0  0.86280  0.62030  0.85730  1.0000 -0.5332047575
O   O10       1.0  0.96140  0.68580  0.82080  1.0000 -0.5604960107
O   O11       1.0  0.73200  0.98380  0.88810  1.0000 -0.5727070802
O   O12       1.0  0.62450  0.91400  0.88580  1.0000 -0.5138140553
O   O13       1.0  0.47070  0.99770  0.86060  1.0000 -0.5396213167
O   O14       1.0  0.37680  0.05980  0.90830  1.0000 -0.5396213167
O   O15       1.0  0.11010  0.77420  0.83690  1.0000 -0.5176516506
O   O16       1.0  0.21520  0.70140  0.84650  1.0000 -0.5604960107
O   O17       1.0  0.96720  0.00040  0.11420  1.0000 -0.5396213167
O   O18       1.0  0.86810  0.05940  0.15750  1.0000 -0.5484960013
O   O19       1.0  0.61340  0.76660  0.09600  1.0000 -0.5176516506
O   O20       1.0  0.72060  0.69680  0.09310  1.0000 -0.5765472286
O   O21       1.0  0.36240  0.62180  0.11640  1.0000 -0.5396213167
O   O22       1.0  0.45710  0.68370  0.06830  1.0000 -0.5604960107
O   O23       1.0  0.23520  0.98740  0.13060  1.0000 -0.5604960107
O   O24       1.0  0.12740  0.91980  0.13310  1.0000 -0.5176516506
O   O25       1.0  0.13720  0.12030  0.14270  1.0000 -0.5332047575
O   O26       1.0  0.03860  0.18580  0.17920  1.0000 -0.5604960107
O   O27       1.0  0.26800  0.48380  0.11190  1.0000 -0.5727070802
O   O28       1.0  0.37550  0.41400  0.11420  1.0000 -0.5138140553
O   O29       1.0  0.52930  0.49770  0.13940  1.0000 -0.5396213167
O   O30       1.0  0.62320  0.55980  0.09170  1.0000 -0.5396213167
O   O31       1.0  0.88990  0.27420  0.16310  1.0000 -0.5176516506
O   O32       1.0  0.78480  0.20140  0.15350  1.0000 -0.5604960107
