# DDEC6 charges by PACMAN v1.1 (https://github.com/mtap-research/PACMAN-charge/)
data_2017[Al][fon]3[ASR]2
_chemical_formula_sum              "Al32 H320 C464 O144"
_cell_length_a       18.9175
_cell_length_b       18.9175
_cell_length_c       71.908
_cell_angle_alpha    90
_cell_angle_beta     90
_cell_angle_gamma    90

_symmetry_space_group_name_H-M    "P 1"
_symmetry_Int_Tables_number       1

loop_
  _symmetry_equiv_pos_as_xyz
  'x, y, z'

loop_
  _atom_site_type_symbol
  _atom_site_label
  _atom_site_symmetry_multiplicity
  _atom_site_fract_x
  _atom_site_fract_y
  _atom_site_fract_z
  _atom_site_occupancy
  _atom_site_charge
Al  Al1       1.0  0.39683  0.64706  0.53690  1.0000 1.5819941438
Al  Al2       1.0  0.85294  0.89683  0.78690  1.0000 1.5819941438
Al  Al3       1.0  0.60317  0.35294  0.03690  1.0000 1.5819941438
Al  Al4       1.0  0.14706  0.10317  0.28690  1.0000 1.5819941438
Al  Al5       1.0  0.89683  0.85294  0.21310  1.0000 1.5819941438
Al  Al6       1.0  0.10317  0.14706  0.71310  1.0000 1.5819941438
Al  Al7       1.0  0.64706  0.39683  0.46310  1.0000 1.5819941438
Al  Al8       1.0  0.35294  0.60317  0.96310  1.0000 1.5819941438
Al  Al9       1.0  0.34168  0.67141  0.49945  1.0000 1.4905639417
Al  Al10      1.0  0.82859  0.84168  0.74945  1.0000 1.4905639417
Al  Al11      1.0  0.65832  0.32859  0.99945  1.0000 1.4905639417
Al  Al12      1.0  0.17141  0.15832  0.24945  1.0000 1.4905639417
Al  Al13      1.0  0.84168  0.82859  0.25055  1.0000 1.4905639417
Al  Al14      1.0  0.15832  0.17141  0.75055  1.0000 1.4905639417
Al  Al15      1.0  0.67141  0.34168  0.50055  1.0000 1.4905639417
Al  Al16      1.0  0.32859  0.65832  0.00055  1.0000 1.4905639417
Al  Al17      1.0  0.50432  0.52994  0.55566  1.0000 1.6493179179
Al  Al18      1.0  0.97006  0.00432  0.80566  1.0000 1.6493179179
Al  Al19      1.0  0.49568  0.47006  0.05566  1.0000 1.6493179179
Al  Al20      1.0  0.02994  0.99568  0.30566  1.0000 1.6493179179
Al  Al21      1.0  0.00432  0.97006  0.19434  1.0000 1.6493179179
Al  Al22      1.0  0.99568  0.02994  0.69434  1.0000 1.6493179179
Al  Al23      1.0  0.52994  0.50432  0.44434  1.0000 1.6493179179
Al  Al24      1.0  0.47006  0.49568  0.94434  1.0000 1.6493179179
Al  Al25      1.0  0.60192  0.39767  0.54131  1.0000 1.6493179179
Al  Al26      1.0  0.10233  0.10192  0.79131  1.0000 1.6493179179
Al  Al27      1.0  0.39808  0.60233  0.04131  1.0000 1.6493179179
Al  Al28      1.0  0.89767  0.89808  0.29131  1.0000 1.6493179179
Al  Al29      1.0  0.10192  0.10233  0.20869  1.0000 1.6493179179
Al  Al30      1.0  0.89808  0.89767  0.70869  1.0000 1.6493179179
Al  Al31      1.0  0.39767  0.60192  0.45869  1.0000 1.6493179179
Al  Al32      1.0  0.60233  0.39808  0.95869  1.0000 1.6493179179
H   H1        1.0  0.48550  0.56790  0.52380  1.0000 0.3844987578
H   H2        1.0  0.93210  0.98550  0.77380  1.0000 0.3844987578
H   H3        1.0  0.51450  0.43210  0.02380  1.0000 0.3844987578
H   H4        1.0  0.06790  0.01450  0.27380  1.0000 0.3844987578
H   H5        1.0  0.98550  0.93210  0.22620  1.0000 0.3844987578
H   H6        1.0  0.01450  0.06790  0.72620  1.0000 0.3844987578
H   H7        1.0  0.56790  0.48550  0.47620  1.0000 0.3844987578
H   H8        1.0  0.43210  0.51450  0.97620  1.0000 0.3844987578
H   H9        1.0  0.62660  0.30410  0.59240  1.0000 0.1198708857
H   H10       1.0  0.19590  0.12660  0.84240  1.0000 0.1198708857
H   H11       1.0  0.37340  0.69590  0.09240  1.0000 0.1198708857
H   H12       1.0  0.80410  0.87340  0.34240  1.0000 0.1198708857
H   H13       1.0  0.12660  0.19590  0.15760  1.0000 0.1198708857
H   H14       1.0  0.87340  0.80410  0.65760  1.0000 0.1198708857
H   H15       1.0  0.30410  0.62660  0.40760  1.0000 0.1198708857
H   H16       1.0  0.69590  0.37340  0.90760  1.0000 0.1198708857
H   H17       1.0  0.36530  0.87460  0.63350  1.0000 0.1112610591
H   H18       1.0  0.62540  0.86530  0.88350  1.0000 0.1112610591
H   H19       1.0  0.63470  0.12540  0.13350  1.0000 0.1112610591
H   H20       1.0  0.37460  0.13470  0.38350  1.0000 0.1112610591
H   H21       1.0  0.86530  0.62540  0.11650  1.0000 0.1112610591
H   H22       1.0  0.13470  0.37460  0.61650  1.0000 0.1112610591
H   H23       1.0  0.87460  0.36530  0.36650  1.0000 0.1112610591
H   H24       1.0  0.12540  0.63470  0.86650  1.0000 0.1112610591
H   H25       1.0  0.75380  0.86430  0.67890  1.0000 0.1269850231
H   H26       1.0  0.63570  0.25380  0.92890  1.0000 0.1269850231
H   H27       1.0  0.24620  0.13570  0.17890  1.0000 0.1269850231
H   H28       1.0  0.36430  0.74620  0.42890  1.0000 0.1269850231
H   H29       1.0  0.25380  0.63570  0.07110  1.0000 0.1269850231
H   H30       1.0  0.74620  0.36430  0.57110  1.0000 0.1269850231
H   H31       1.0  0.86430  0.75380  0.32110  1.0000 0.1269850231
H   H32       1.0  0.13570  0.24620  0.82110  1.0000 0.1269850231
H   H33       1.0  0.25070  0.24960  0.68330  1.0000 0.1198708857
H   H34       1.0  0.25040  0.75070  0.93330  1.0000 0.1198708857
H   H35       1.0  0.74930  0.75040  0.18330  1.0000 0.1198708857
H   H36       1.0  0.74960  0.24930  0.43330  1.0000 0.1198708857
H   H37       1.0  0.75070  0.25040  0.06670  1.0000 0.1198708857
H   H38       1.0  0.24930  0.74960  0.56670  1.0000 0.1198708857
H   H39       1.0  0.24960  0.25070  0.31670  1.0000 0.1198708857
H   H40       1.0  0.75040  0.74930  0.81670  1.0000 0.1198708857
H   H41       1.0  0.54490  0.19510  0.69790  1.0000 0.1198708857
H   H42       1.0  0.30490  0.04490  0.94790  1.0000 0.1198708857
H   H43       1.0  0.45510  0.80490  0.19790  1.0000 0.1198708857
H   H44       1.0  0.69510  0.95510  0.44790  1.0000 0.1198708857
H   H45       1.0  0.04490  0.30490  0.05210  1.0000 0.1198708857
H   H46       1.0  0.95510  0.69510  0.55210  1.0000 0.1198708857
H   H47       1.0  0.19510  0.54490  0.30210  1.0000 0.1198708857
H   H48       1.0  0.80490  0.45510  0.80210  1.0000 0.1198708857
H   H49       1.0  0.46140  0.32670  0.65910  1.0000 0.1112610591
H   H50       1.0  0.17330  0.96140  0.90910  1.0000 0.1112610591
H   H51       1.0  0.53860  0.67330  0.15910  1.0000 0.1112610591
H   H52       1.0  0.82670  0.03860  0.40910  1.0000 0.1112610591
H   H53       1.0  0.96140  0.17330  0.09090  1.0000 0.1112610591
H   H54       1.0  0.03860  0.82670  0.59090  1.0000 0.1112610591
H   H55       1.0  0.32670  0.46140  0.34090  1.0000 0.1112610591
H   H56       1.0  0.67330  0.53860  0.84090  1.0000 0.1112610591
H   H57       1.0  0.27490  0.08270  0.68590  1.0000 0.1198708857
H   H58       1.0  0.41730  0.77490  0.93590  1.0000 0.1198708857
H   H59       1.0  0.72510  0.91730  0.18590  1.0000 0.1198708857
H   H60       1.0  0.58270  0.22510  0.43590  1.0000 0.1198708857
H   H61       1.0  0.77490  0.41730  0.06410  1.0000 0.1198708857
H   H62       1.0  0.22510  0.58270  0.56410  1.0000 0.1198708857
H   H63       1.0  0.08270  0.27490  0.31410  1.0000 0.1198708857
H   H64       1.0  0.91730  0.72510  0.81410  1.0000 0.1198708857
H   H65       1.0  0.46010  0.26240  0.71670  1.0000 0.1198708857
H   H66       1.0  0.23760  0.96010  0.96670  1.0000 0.1198708857
H   H67       1.0  0.53990  0.73760  0.21670  1.0000 0.1198708857
H   H68       1.0  0.76240  0.03990  0.46670  1.0000 0.1198708857
H   H69       1.0  0.96010  0.23760  0.03330  1.0000 0.1198708857
H   H70       1.0  0.03990  0.76240  0.53330  1.0000 0.1198708857
H   H71       1.0  0.26240  0.46010  0.28330  1.0000 0.1198708857
H   H72       1.0  0.73760  0.53990  0.78330  1.0000 0.1198708857
H   H73       1.0  0.16300  0.91490  0.66870  1.0000 0.1198708857
H   H74       1.0  0.58510  0.66300  0.91870  1.0000 0.1198708857
H   H75       1.0  0.83700  0.08510  0.16870  1.0000 0.1198708857
H   H76       1.0  0.41490  0.33700  0.41870  1.0000 0.1198708857
H   H77       1.0  0.66300  0.58510  0.08130  1.0000 0.1198708857
H   H78       1.0  0.33700  0.41490  0.58130  1.0000 0.1198708857
H   H79       1.0  0.91490  0.16300  0.33130  1.0000 0.1198708857
H   H80       1.0  0.08510  0.83700  0.83130  1.0000 0.1198708857
H   H81       1.0  0.65780  0.24450  0.65200  1.0000 0.1112610591
H   H82       1.0  0.25550  0.15780  0.90200  1.0000 0.1112610591
H   H83       1.0  0.34220  0.75550  0.15200  1.0000 0.1112610591
H   H84       1.0  0.74450  0.84220  0.40200  1.0000 0.1112610591
H   H85       1.0  0.15780  0.25550  0.09800  1.0000 0.1112610591
H   H86       1.0  0.84220  0.74450  0.59800  1.0000 0.1112610591
H   H87       1.0  0.24450  0.65780  0.34800  1.0000 0.1112610591
H   H88       1.0  0.75550  0.34220  0.84800  1.0000 0.1112610591
H   H89       1.0  0.56630  0.81520  0.64470  1.0000 0.1112610591
H   H90       1.0  0.68480  0.06630  0.89470  1.0000 0.1112610591
H   H91       1.0  0.43370  0.18480  0.14470  1.0000 0.1112610591
H   H92       1.0  0.31520  0.93370  0.39470  1.0000 0.1112610591
H   H93       1.0  0.06630  0.68480  0.10530  1.0000 0.1112610591
H   H94       1.0  0.93370  0.31520  0.60530  1.0000 0.1112610591
H   H95       1.0  0.81520  0.56630  0.35530  1.0000 0.1112610591
H   H96       1.0  0.18480  0.43370  0.85530  1.0000 0.1112610591
H   H97       1.0  0.62030  0.85240  0.72320  1.0000 0.1198708857
H   H98       1.0  0.64760  0.12030  0.97320  1.0000 0.1198708857
H   H99       1.0  0.37970  0.14760  0.22320  1.0000 0.1198708857
H   H100      1.0  0.35240  0.87970  0.47320  1.0000 0.1198708857
H   H101      1.0  0.12030  0.64760  0.02680  1.0000 0.1198708857
H   H102      1.0  0.87970  0.35240  0.52680  1.0000 0.1198708857
H   H103      1.0  0.85240  0.62030  0.27680  1.0000 0.1198708857
H   H104      1.0  0.14760  0.37970  0.77680  1.0000 0.1198708857
H   H105      1.0  0.37960  0.03170  0.67550  1.0000 0.1112610591
H   H106      1.0  0.46830  0.87960  0.92550  1.0000 0.1112610591
H   H107      1.0  0.62040  0.96830  0.17550  1.0000 0.1112610591
H   H108      1.0  0.53170  0.12040  0.42550  1.0000 0.1112610591
H   H109      1.0  0.87960  0.46830  0.07450  1.0000 0.1112610591
H   H110      1.0  0.12040  0.53170  0.57450  1.0000 0.1112610591
H   H111      1.0  0.03170  0.37960  0.32450  1.0000 0.1112610591
H   H112      1.0  0.96830  0.62040  0.82450  1.0000 0.1112610591
H   H113      1.0  0.35870  0.26300  0.66740  1.0000 0.1198708857
H   H114      1.0  0.23700  0.85870  0.91740  1.0000 0.1198708857
H   H115      1.0  0.64130  0.73700  0.16740  1.0000 0.1198708857
H   H116      1.0  0.76300  0.14130  0.41740  1.0000 0.1198708857
H   H117      1.0  0.85870  0.23700  0.08260  1.0000 0.1198708857
H   H118      1.0  0.14130  0.76300  0.58260  1.0000 0.1198708857
H   H119      1.0  0.26300  0.35870  0.33260  1.0000 0.1198708857
H   H120      1.0  0.73700  0.64130  0.83260  1.0000 0.1198708857
H   H121      1.0  0.53010  0.71940  0.62900  1.0000 0.1112610591
H   H122      1.0  0.78060  0.03010  0.87900  1.0000 0.1112610591
H   H123      1.0  0.46990  0.28060  0.12900  1.0000 0.1112610591
H   H124      1.0  0.21940  0.96990  0.37900  1.0000 0.1112610591
H   H125      1.0  0.03010  0.78060  0.12100  1.0000 0.1112610591
H   H126      1.0  0.96990  0.21940  0.62100  1.0000 0.1112610591
H   H127      1.0  0.71940  0.53010  0.37100  1.0000 0.1112610591
H   H128      1.0  0.28060  0.46990  0.87100  1.0000 0.1112610591
H   H129      1.0  0.53660  0.65070  0.60200  1.0000 0.1269850231
H   H130      1.0  0.84930  0.03660  0.85200  1.0000 0.1269850231
H   H131      1.0  0.46340  0.34930  0.10200  1.0000 0.1269850231
H   H132      1.0  0.15070  0.96340  0.35200  1.0000 0.1269850231
H   H133      1.0  0.03660  0.84930  0.14800  1.0000 0.1269850231
H   H134      1.0  0.96340  0.15070  0.64800  1.0000 0.1269850231
H   H135      1.0  0.65070  0.53660  0.39800  1.0000 0.1269850231
H   H136      1.0  0.34930  0.46340  0.89800  1.0000 0.1269850231
H   H137      1.0  0.52360  0.86220  0.70270  1.0000 0.1112610591
H   H138      1.0  0.63780  0.02360  0.95270  1.0000 0.1198708857
H   H139      1.0  0.47640  0.13780  0.20270  1.0000 0.1112610591
H   H140      1.0  0.36220  0.97640  0.45270  1.0000 0.1112610591
H   H141      1.0  0.02360  0.63780  0.04730  1.0000 0.1112610591
H   H142      1.0  0.97640  0.36220  0.54730  1.0000 0.1112610591
H   H143      1.0  0.86220  0.52360  0.29730  1.0000 0.1112610591
H   H144      1.0  0.13780  0.47640  0.79730  1.0000 0.1112610591
H   H145      1.0  0.65570  0.87870  0.65910  1.0000 0.1198708857
H   H146      1.0  0.62130  0.15570  0.90910  1.0000 0.1198708857
H   H147      1.0  0.34430  0.12130  0.15910  1.0000 0.1198708857
H   H148      1.0  0.37870  0.84430  0.40910  1.0000 0.1198708857
H   H149      1.0  0.15570  0.62130  0.09090  1.0000 0.1198708857
H   H150      1.0  0.84430  0.37870  0.59090  1.0000 0.1198708857
H   H151      1.0  0.87870  0.65570  0.34090  1.0000 0.1198708857
H   H152      1.0  0.12130  0.34430  0.84090  1.0000 0.1198708857
H   H153      1.0  0.50480  0.41510  0.64160  1.0000 0.1112610591
H   H154      1.0  0.08490  0.00480  0.89160  1.0000 0.1112610591
H   H155      1.0  0.49520  0.58490  0.14160  1.0000 0.1112610591
H   H156      1.0  0.91510  0.99520  0.39160  1.0000 0.1112610591
H   H157      1.0  0.00480  0.08490  0.10840  1.0000 0.1112610591
H   H158      1.0  0.99520  0.91510  0.60840  1.0000 0.1112610591
H   H159      1.0  0.41510  0.50480  0.35840  1.0000 0.1112610591
H   H160      1.0  0.58490  0.49520  0.85840  1.0000 0.1112610591
H   H161      1.0  0.61940  0.25010  0.62190  1.0000 0.1112610591
H   H162      1.0  0.24990  0.11940  0.87190  1.0000 0.1112610591
H   H163      1.0  0.38060  0.74990  0.12190  1.0000 0.1112610591
H   H164      1.0  0.75010  0.88060  0.37190  1.0000 0.1112610591
H   H165      1.0  0.11940  0.24990  0.12810  1.0000 0.1112610591
H   H166      1.0  0.88060  0.75010  0.62810  1.0000 0.1112610591
H   H167      1.0  0.25010  0.61940  0.37810  1.0000 0.1112610591
H   H168      1.0  0.74990  0.38060  0.87810  1.0000 0.1112610591
H   H169      1.0  0.41880  0.80070  0.57520  1.0000 0.1269850231
H   H170      1.0  0.69930  0.91880  0.82520  1.0000 0.1269850231
H   H171      1.0  0.58120  0.19930  0.07520  1.0000 0.1269850231
H   H172      1.0  0.30070  0.08120  0.32520  1.0000 0.1269850231
H   H173      1.0  0.91880  0.69930  0.17480  1.0000 0.1269850231
H   H174      1.0  0.08120  0.30070  0.67480  1.0000 0.1269850231
H   H175      1.0  0.80070  0.41880  0.42480  1.0000 0.1269850231
H   H176      1.0  0.19930  0.58120  0.92480  1.0000 0.1269850231
H   H177      1.0  0.35720  0.25330  0.73210  1.0000 0.1269850231
H   H178      1.0  0.24670  0.85720  0.98210  1.0000 0.1269850231
H   H179      1.0  0.64280  0.74670  0.23210  1.0000 0.1269850231
H   H180      1.0  0.75330  0.14280  0.48210  1.0000 0.1269850231
H   H181      1.0  0.85720  0.24670  0.01790  1.0000 0.1269850231
H   H182      1.0  0.14280  0.75330  0.51790  1.0000 0.1269850231
H   H183      1.0  0.25330  0.35720  0.26790  1.0000 0.1269850231
H   H184      1.0  0.74670  0.64280  0.76790  1.0000 0.1269850231
H   H185      1.0  0.26520  0.86010  0.65770  1.0000 0.1198708857
H   H186      1.0  0.63990  0.76520  0.90770  1.0000 0.1198708857
H   H187      1.0  0.73480  0.13990  0.15770  1.0000 0.1198708857
H   H188      1.0  0.36010  0.23480  0.40770  1.0000 0.1198708857
H   H189      1.0  0.76520  0.63990  0.09230  1.0000 0.1198708857
H   H190      1.0  0.23480  0.36010  0.59230  1.0000 0.1198708857
H   H191      1.0  0.86010  0.26520  0.34230  1.0000 0.1198708857
H   H192      1.0  0.13990  0.73480  0.84230  1.0000 0.1198708857
H   H193      1.0  0.41480  0.86730  0.60210  1.0000 0.1198708857
H   H194      1.0  0.63270  0.91480  0.85210  1.0000 0.1198708857
H   H195      1.0  0.58520  0.13270  0.10210  1.0000 0.1198708857
H   H196      1.0  0.36730  0.08520  0.35210  1.0000 0.1198708857
H   H197      1.0  0.91480  0.63270  0.14790  1.0000 0.1198708857
H   H198      1.0  0.08520  0.36730  0.64790  1.0000 0.1198708857
H   H199      1.0  0.86730  0.41480  0.39790  1.0000 0.1198708857
H   H200      1.0  0.13270  0.58520  0.89790  1.0000 0.1198708857
H   H201      1.0  0.45340  0.93250  0.68220  1.0000 0.1112610591
H   H202      1.0  0.56750  0.95340  0.93220  1.0000 0.1112610591
H   H203      1.0  0.54660  0.06750  0.18220  1.0000 0.1112610591
H   H204      1.0  0.43250  0.04660  0.43220  1.0000 0.1112610591
H   H205      1.0  0.95340  0.56750  0.06780  1.0000 0.1112610591
H   H206      1.0  0.04660  0.43250  0.56780  1.0000 0.1112610591
H   H207      1.0  0.93250  0.45340  0.31780  1.0000 0.1112610591
H   H208      1.0  0.06750  0.54660  0.81780  1.0000 0.1112610591
H   H209      1.0  0.60680  0.08280  0.69120  1.0000 0.1112610591
H   H210      1.0  0.41720  0.10680  0.94120  1.0000 0.1112610591
H   H211      1.0  0.39320  0.91720  0.19120  1.0000 0.1112610591
H   H212      1.0  0.58280  0.89320  0.44120  1.0000 0.1112610591
H   H213      1.0  0.10680  0.41720  0.05880  1.0000 0.1112610591
H   H214      1.0  0.89320  0.58280  0.55880  1.0000 0.1112610591
H   H215      1.0  0.08280  0.60680  0.30880  1.0000 0.1112610591
H   H216      1.0  0.91720  0.39320  0.80880  1.0000 0.1112610591
H   H217      1.0  0.74740  0.24290  0.67800  1.0000 0.1198708857
H   H218      1.0  0.25710  0.24740  0.92800  1.0000 0.1198708857
H   H219      1.0  0.25260  0.75710  0.17800  1.0000 0.1198708857
H   H220      1.0  0.74290  0.75260  0.42800  1.0000 0.1198708857
H   H221      1.0  0.24740  0.25710  0.07200  1.0000 0.1198708857
H   H222      1.0  0.75260  0.74290  0.57200  1.0000 0.1198708857
H   H223      1.0  0.24290  0.74740  0.32200  1.0000 0.1198708857
H   H224      1.0  0.75710  0.25260  0.82200  1.0000 0.1198708857
H   H225      1.0  0.48730  0.43970  0.53220  1.0000 0.4222851074
H   H226      1.0  0.06030  0.98730  0.78220  1.0000 0.4222851074
H   H227      1.0  0.51270  0.56030  0.03220  1.0000 0.4222851074
H   H228      1.0  0.93970  0.01270  0.28220  1.0000 0.4222851074
H   H229      1.0  0.98730  0.06030  0.21780  1.0000 0.4222851074
H   H230      1.0  0.01270  0.93970  0.71780  1.0000 0.4222851074
H   H231      1.0  0.43970  0.48730  0.46780  1.0000 0.4222851074
H   H232      1.0  0.56030  0.51270  0.96780  1.0000 0.4222851074
H   H233      1.0  0.70710  0.01320  0.70040  1.0000 0.1112610591
H   H234      1.0  0.48680  0.20710  0.95040  1.0000 0.1112610591
H   H235      1.0  0.29290  0.98680  0.20040  1.0000 0.1112610591
H   H236      1.0  0.51320  0.79290  0.45040  1.0000 0.1112610591
H   H237      1.0  0.20710  0.48680  0.04960  1.0000 0.1112610591
H   H238      1.0  0.79290  0.51320  0.54960  1.0000 0.1112610591
H   H239      1.0  0.01320  0.70710  0.29960  1.0000 0.1112610591
H   H240      1.0  0.98680  0.29290  0.79960  1.0000 0.1112610591
H   H241      1.0  0.84160  0.16550  0.68540  1.0000 0.1198708857
H   H242      1.0  0.33450  0.34160  0.93540  1.0000 0.1198708857
H   H243      1.0  0.15840  0.83450  0.18540  1.0000 0.1198708857
H   H244      1.0  0.66550  0.65840  0.43540  1.0000 0.1198708857
H   H245      1.0  0.34160  0.33450  0.06460  1.0000 0.1198708857
H   H246      1.0  0.65840  0.66550  0.56460  1.0000 0.1198708857
H   H247      1.0  0.16550  0.84160  0.31460  1.0000 0.1198708857
H   H248      1.0  0.83450  0.15840  0.81460  1.0000 0.1198708857
H   H249      1.0  0.50780  0.46840  0.61080  1.0000 0.1269850231
H   H250      1.0  0.03160  0.00780  0.86080  1.0000 0.1269850231
H   H251      1.0  0.49220  0.53160  0.11080  1.0000 0.1269850231
H   H252      1.0  0.96840  0.99220  0.36080  1.0000 0.1269850231
H   H253      1.0  0.00780  0.03160  0.13920  1.0000 0.1269850231
H   H254      1.0  0.99220  0.96840  0.63920  1.0000 0.1269850231
H   H255      1.0  0.46840  0.50780  0.38920  1.0000 0.1269850231
H   H256      1.0  0.53160  0.49220  0.88920  1.0000 0.1269850231
H   H257      1.0  0.51480  0.61940  0.48350  1.0000 0.0989082924
H   H258      1.0  0.88060  0.01480  0.73350  1.0000 0.0989082924
H   H259      1.0  0.48520  0.38060  0.98350  1.0000 0.0989082924
H   H260      1.0  0.11940  0.98520  0.23350  1.0000 0.0989082924
H   H261      1.0  0.01480  0.88060  0.26650  1.0000 0.0989082924
H   H262      1.0  0.98520  0.11940  0.76650  1.0000 0.0989082924
H   H263      1.0  0.61940  0.51480  0.51650  1.0000 0.0989082924
H   H264      1.0  0.38060  0.48520  0.01650  1.0000 0.0989082924
H   H265      1.0  0.48100  0.57860  0.50090  1.0000 0.0814206887
H   H266      1.0  0.92140  0.98100  0.75090  1.0000 0.0814206887
H   H267      1.0  0.51900  0.42140  0.00090  1.0000 0.0814206887
H   H268      1.0  0.07860  0.01900  0.25090  1.0000 0.0814206887
H   H269      1.0  0.98100  0.92140  0.24910  1.0000 0.0814206887
H   H270      1.0  0.01900  0.07860  0.74910  1.0000 0.0814206887
H   H271      1.0  0.57860  0.48100  0.49910  1.0000 0.0814206887
H   H272      1.0  0.42140  0.51900  0.99910  1.0000 0.0814206887
H   H273      1.0  0.52660  0.67610  0.51380  1.0000 0.1112610591
H   H274      1.0  0.82390  0.02660  0.76380  1.0000 0.1112610591
H   H275      1.0  0.47340  0.32390  0.01380  1.0000 0.1112610591
H   H276      1.0  0.17610  0.97340  0.26380  1.0000 0.1112610591
H   H277      1.0  0.02660  0.82390  0.23620  1.0000 0.1112610591
H   H278      1.0  0.97340  0.17610  0.73620  1.0000 0.1112610591
H   H279      1.0  0.67610  0.52660  0.48620  1.0000 0.1112610591
H   H280      1.0  0.32390  0.47340  0.98620  1.0000 0.1112610591
H   H281      1.0  0.50090  0.72560  0.49700  1.0000 0.1198708857
H   H282      1.0  0.77440  0.00090  0.74700  1.0000 0.1198708857
H   H283      1.0  0.49910  0.27440  0.99700  1.0000 0.1198708857
H   H284      1.0  0.22560  0.99910  0.24700  1.0000 0.1198708857
H   H285      1.0  0.00090  0.77440  0.25300  1.0000 0.1198708857
H   H286      1.0  0.99910  0.22560  0.75300  1.0000 0.1198708857
H   H287      1.0  0.72560  0.50090  0.50300  1.0000 0.1198708857
H   H288      1.0  0.27440  0.49910  0.00300  1.0000 0.1198708857
H   H289      1.0  0.20510  0.53870  0.49750  1.0000 0.0914339921
H   H290      1.0  0.96130  0.70510  0.74750  1.0000 0.0914339921
H   H291      1.0  0.79490  0.46130  0.99750  1.0000 0.0914339921
H   H292      1.0  0.03870  0.29490  0.24750  1.0000 0.0914339921
H   H293      1.0  0.70510  0.96130  0.25250  1.0000 0.0914339921
H   H294      1.0  0.29490  0.03870  0.75250  1.0000 0.0914339921
H   H295      1.0  0.53870  0.20510  0.50250  1.0000 0.0914339921
H   H296      1.0  0.46130  0.79490  0.00250  1.0000 0.0914339921
H   H297      1.0  0.19050  0.60800  0.50980  1.0000 0.0989082924
H   H298      1.0  0.89200  0.69050  0.75980  1.0000 0.0989082924
H   H299      1.0  0.80950  0.39200  0.00980  1.0000 0.0989082924
H   H300      1.0  0.10800  0.30950  0.25980  1.0000 0.0989082924
H   H301      1.0  0.69050  0.89200  0.24020  1.0000 0.0989082924
H   H302      1.0  0.30950  0.10800  0.74020  1.0000 0.0989082924
H   H303      1.0  0.60800  0.19050  0.49020  1.0000 0.0989082924
H   H304      1.0  0.39200  0.80950  0.99020  1.0000 0.0989082924
H   H305      1.0  0.25850  0.55080  0.52990  1.0000 0.0914339921
H   H306      1.0  0.94920  0.75850  0.77990  1.0000 0.0914339921
H   H307      1.0  0.74150  0.44920  0.02990  1.0000 0.0914339921
H   H308      1.0  0.05080  0.24150  0.27990  1.0000 0.0914339921
H   H309      1.0  0.75850  0.94920  0.22010  1.0000 0.0914339921
H   H310      1.0  0.24150  0.05080  0.72010  1.0000 0.0914339921
H   H311      1.0  0.55080  0.25850  0.47010  1.0000 0.0914339921
H   H312      1.0  0.44920  0.74150  0.97010  1.0000 0.0914339921
H   H313      1.0  0.29920  0.50810  0.51390  1.0000 0.0989082924
H   H314      1.0  0.99190  0.79920  0.76390  1.0000 0.0989082924
H   H315      1.0  0.70080  0.49190  0.01390  1.0000 0.0989082924
H   H316      1.0  0.00810  0.20080  0.26390  1.0000 0.0989082924
H   H317      1.0  0.79920  0.99190  0.23610  1.0000 0.0989082924
H   H318      1.0  0.20080  0.00810  0.73610  1.0000 0.0989082924
H   H319      1.0  0.50810  0.29920  0.48610  1.0000 0.0989082924
H   H320      1.0  0.49190  0.70080  0.98610  1.0000 0.0989082924
C   C1        1.0  0.69570  0.85290  0.70337  1.0000 -0.0805780659
C   C2        1.0  0.64710  0.19570  0.95337  1.0000 -0.0805780659
C   C3        1.0  0.30430  0.14710  0.20337  1.0000 -0.0805780659
C   C4        1.0  0.35290  0.80430  0.45337  1.0000 -0.0805780659
C   C5        1.0  0.19570  0.64710  0.04663  1.0000 -0.0805780659
C   C6        1.0  0.80430  0.35290  0.54663  1.0000 -0.0805780659
C   C7        1.0  0.85290  0.69570  0.29663  1.0000 -0.0805780659
C   C8        1.0  0.14710  0.30430  0.79663  1.0000 -0.0805780659
C   C9        1.0  0.56440  0.38960  0.59915  1.0000 -0.0428637625
C   C10       1.0  0.11040  0.06440  0.84915  1.0000 -0.0428637625
C   C11       1.0  0.43560  0.61040  0.09915  1.0000 -0.0428637625
C   C12       1.0  0.88960  0.93560  0.34915  1.0000 -0.0428637625
C   C13       1.0  0.06440  0.11040  0.15085  1.0000 -0.0428637625
C   C14       1.0  0.93560  0.88960  0.65085  1.0000 -0.0428637625
C   C15       1.0  0.38960  0.56440  0.40085  1.0000 -0.0428637625
C   C16       1.0  0.61040  0.43560  0.90085  1.0000 -0.0428637625
C   C17       1.0  0.42000  0.25850  0.69031  1.0000 0.0814206887
C   C18       1.0  0.24150  0.92000  0.94031  1.0000 0.0814206887
C   C19       1.0  0.58000  0.74150  0.19031  1.0000 0.0814206887
C   C20       1.0  0.75850  0.08000  0.44031  1.0000 0.0814206887
C   C21       1.0  0.92000  0.24150  0.05969  1.0000 0.0814206887
C   C22       1.0  0.08000  0.75850  0.55969  1.0000 0.0814206887
C   C23       1.0  0.25850  0.42000  0.30969  1.0000 0.0814206887
C   C24       1.0  0.74150  0.58000  0.80969  1.0000 0.0814206887
C   C25       1.0  0.55770  0.29140  0.65245  1.0000 0.0814206887
C   C26       1.0  0.20860  0.05770  0.90245  1.0000 0.0814206887
C   C27       1.0  0.44230  0.70860  0.15245  1.0000 0.0814206887
C   C28       1.0  0.79140  0.94230  0.40245  1.0000 0.0814206887
C   C29       1.0  0.05770  0.20860  0.09755  1.0000 0.0814206887
C   C30       1.0  0.94230  0.79140  0.59755  1.0000 0.0814206887
C   C31       1.0  0.29140  0.55770  0.34755  1.0000 0.0814206887
C   C32       1.0  0.70860  0.44230  0.84755  1.0000 0.0814206887
C   C33       1.0  0.20620  0.00310  0.67913  1.0000 -0.0984141068
C   C34       1.0  0.49690  0.70620  0.92913  1.0000 -0.0984141068
C   C35       1.0  0.79380  0.99690  0.17913  1.0000 -0.0984141068
C   C36       1.0  0.50310  0.29380  0.42913  1.0000 -0.0984141068
C   C37       1.0  0.70620  0.49690  0.07087  1.0000 -0.0984141068
C   C38       1.0  0.29380  0.50310  0.57087  1.0000 -0.0984141068
C   C39       1.0  0.00310  0.20620  0.32087  1.0000 -0.0984141068
C   C40       1.0  0.99690  0.79380  0.82087  1.0000 -0.0984141068
C   C41       1.0  0.47370  0.67390  0.56947  1.0000 0.6321972623
C   C42       1.0  0.82610  0.97370  0.81947  1.0000 0.6321972623
C   C43       1.0  0.52630  0.32610  0.06947  1.0000 0.6321972623
C   C44       1.0  0.17390  0.02630  0.31947  1.0000 0.6321972623
C   C45       1.0  0.97370  0.82610  0.18053  1.0000 0.6321972623
C   C46       1.0  0.02630  0.17390  0.68053  1.0000 0.6321972623
C   C47       1.0  0.67390  0.47370  0.43053  1.0000 0.6321972623
C   C48       1.0  0.32610  0.52630  0.93053  1.0000 0.6321972623
C   C49       1.0  0.33260  0.94040  0.66495  1.0000 0.0814206887
C   C50       1.0  0.55960  0.83260  0.91495  1.0000 0.0814206887
C   C51       1.0  0.66740  0.05960  0.16495  1.0000 0.0814206887
C   C52       1.0  0.44040  0.16740  0.41495  1.0000 0.0814206887
C   C53       1.0  0.83260  0.55960  0.08505  1.0000 0.0814206887
C   C54       1.0  0.16740  0.44040  0.58505  1.0000 0.0814206887
C   C55       1.0  0.94040  0.33260  0.33505  1.0000 0.0814206887
C   C56       1.0  0.05960  0.66740  0.83505  1.0000 0.0814206887
C   C57       1.0  0.46620  0.83750  0.63709  1.0000 0.0814206887
C   C58       1.0  0.66250  0.96620  0.88709  1.0000 0.0814206887
C   C59       1.0  0.53380  0.16250  0.13709  1.0000 0.0814206887
C   C60       1.0  0.33750  0.03380  0.38709  1.0000 0.0814206887
C   C61       1.0  0.96620  0.66250  0.11291  1.0000 0.0814206887
C   C62       1.0  0.03380  0.33750  0.61291  1.0000 0.0814206887
C   C63       1.0  0.83750  0.46620  0.36291  1.0000 0.0814206887
C   C64       1.0  0.16250  0.53380  0.86291  1.0000 0.0814206887
C   C65       1.0  0.60060  0.32580  0.60214  1.0000 -0.0898708022
C   C66       1.0  0.17420  0.10060  0.85214  1.0000 -0.0898708022
C   C67       1.0  0.39940  0.67420  0.10214  1.0000 -0.0898708022
C   C68       1.0  0.82580  0.89940  0.35214  1.0000 -0.0898708022
C   C69       1.0  0.10060  0.17420  0.14786  1.0000 -0.0898708022
C   C70       1.0  0.89940  0.82580  0.64786  1.0000 -0.0898708022
C   C71       1.0  0.32580  0.60060  0.39786  1.0000 -0.0898708022
C   C72       1.0  0.67420  0.39940  0.89786  1.0000 -0.0898708022
C   C73       1.0  0.40360  0.87320  0.64207  1.0000 -0.2021533125
C   C74       1.0  0.62680  0.90360  0.89207  1.0000 -0.2021533125
C   C75       1.0  0.59640  0.12680  0.14207  1.0000 -0.2021533125
C   C76       1.0  0.37320  0.09640  0.39207  1.0000 -0.2021533125
C   C77       1.0  0.90360  0.62680  0.10793  1.0000 -0.2021533125
C   C78       1.0  0.09640  0.37320  0.60793  1.0000 -0.2021533125
C   C79       1.0  0.87320  0.40360  0.35793  1.0000 -0.2021533125
C   C80       1.0  0.12680  0.59640  0.85793  1.0000 -0.2021533125
C   C81       1.0  0.56330  0.42080  0.57954  1.0000 0.6321972623
C   C82       1.0  0.07920  0.06330  0.82954  1.0000 0.6321972623
C   C83       1.0  0.43670  0.57920  0.07954  1.0000 0.6321972623
C   C84       1.0  0.92080  0.93670  0.32954  1.0000 0.6321972623
C   C85       1.0  0.06330  0.07920  0.17046  1.0000 0.6321972623
C   C86       1.0  0.93670  0.92080  0.67046  1.0000 0.6321972623
C   C87       1.0  0.42080  0.56330  0.42046  1.0000 0.6321972623
C   C88       1.0  0.57920  0.43670  0.92046  1.0000 0.6321972623
C   C89       1.0  0.70720  0.86310  0.68381  1.0000 -0.0805780659
C   C90       1.0  0.63690  0.20720  0.93381  1.0000 -0.0805780659
C   C91       1.0  0.29280  0.13690  0.18381  1.0000 -0.0805780659
C   C92       1.0  0.36310  0.79280  0.43381  1.0000 -0.0805780659
C   C93       1.0  0.20720  0.63690  0.06619  1.0000 -0.0805780659
C   C94       1.0  0.79280  0.36310  0.56619  1.0000 -0.0805780659
C   C95       1.0  0.86310  0.70720  0.31619  1.0000 -0.0805780659
C   C96       1.0  0.13690  0.29280  0.81619  1.0000 -0.0805780659
C   C97       1.0  0.29370  0.25180  0.69014  1.0000 -0.0704008271
C   C98       1.0  0.24820  0.79370  0.94014  1.0000 -0.0704008271
C   C99       1.0  0.70630  0.74820  0.19014  1.0000 -0.0704008271
C   C100      1.0  0.75180  0.20630  0.44014  1.0000 -0.0704008271
C   C101      1.0  0.79370  0.24820  0.05986  1.0000 -0.0704008271
C   C102      1.0  0.20630  0.75180  0.55986  1.0000 -0.0704008271
C   C103      1.0  0.25180  0.29370  0.30986  1.0000 -0.0704008271
C   C104      1.0  0.74820  0.70630  0.80986  1.0000 -0.0704008271
C   C105      1.0  0.54780  0.21970  0.68643  1.0000 -0.2021533125
C   C106      1.0  0.28030  0.04780  0.93643  1.0000 -0.2021533125
C   C107      1.0  0.45220  0.78030  0.18643  1.0000 -0.2021533125
C   C108      1.0  0.71970  0.95220  0.43643  1.0000 -0.2021533125
C   C109      1.0  0.04780  0.28030  0.06357  1.0000 -0.2021533125
C   C110      1.0  0.95220  0.71970  0.56357  1.0000 -0.2021533125
C   C111      1.0  0.21970  0.54780  0.31357  1.0000 -0.2021533125
C   C112      1.0  0.78030  0.45220  0.81357  1.0000 -0.2021533125
C   C113      1.0  0.49870  0.29680  0.66312  1.0000 -0.2021533125
C   C114      1.0  0.20320  0.99870  0.91312  1.0000 -0.2021533125
C   C115      1.0  0.50130  0.70320  0.16312  1.0000 -0.2021533125
C   C116      1.0  0.79680  0.00130  0.41312  1.0000 -0.2021533125
C   C117      1.0  0.99870  0.20320  0.08688  1.0000 -0.2021533125
C   C118      1.0  0.00130  0.79680  0.58688  1.0000 -0.2021533125
C   C119      1.0  0.29680  0.49870  0.33688  1.0000 -0.2021533125
C   C120      1.0  0.70320  0.50130  0.83688  1.0000 -0.2021533125
C   C121      1.0  0.39710  0.90580  0.65906  1.0000 0.0694617482
C   C122      1.0  0.59420  0.89710  0.90906  1.0000 0.0694617482
C   C123      1.0  0.60290  0.09420  0.15906  1.0000 0.0694617482
C   C124      1.0  0.40580  0.10290  0.40906  1.0000 0.0694617482
C   C125      1.0  0.89710  0.59420  0.09094  1.0000 0.0694617482
C   C126      1.0  0.10290  0.40580  0.59094  1.0000 0.0694617482
C   C127      1.0  0.90580  0.39710  0.34094  1.0000 0.0694617482
C   C128      1.0  0.09420  0.60290  0.84094  1.0000 0.0694617482
C   C129      1.0  0.27300  0.03710  0.68035  1.0000 -0.0805780659
C   C130      1.0  0.46290  0.77300  0.93035  1.0000 -0.0805780659
C   C131      1.0  0.72700  0.96290  0.18035  1.0000 -0.0805780659
C   C132      1.0  0.53710  0.22700  0.43035  1.0000 -0.0805780659
C   C133      1.0  0.77300  0.46290  0.06965  1.0000 -0.0805780659
C   C134      1.0  0.22700  0.53710  0.56965  1.0000 -0.0805780659
C   C135      1.0  0.03710  0.27300  0.31965  1.0000 -0.0805780659
C   C136      1.0  0.96290  0.72700  0.81965  1.0000 -0.0805780659
C   C137      1.0  0.52020  0.87400  0.66548  1.0000 0.0989082924
C   C138      1.0  0.62600  0.02020  0.91548  1.0000 0.0989082924
C   C139      1.0  0.47980  0.12600  0.16548  1.0000 0.0989082924
C   C140      1.0  0.37400  0.97980  0.41548  1.0000 0.0989082924
C   C141      1.0  0.02020  0.62600  0.08452  1.0000 0.0989082924
C   C142      1.0  0.97980  0.37400  0.58452  1.0000 0.0989082924
C   C143      1.0  0.87400  0.52020  0.33452  1.0000 0.0989082924
C   C144      1.0  0.12600  0.47980  0.83452  1.0000 0.0989082924
C   C145      1.0  0.47710  0.71830  0.58595  1.0000 -0.0704008271
C   C146      1.0  0.78170  0.97710  0.83595  1.0000 -0.0704008271
C   C147      1.0  0.52290  0.28170  0.08595  1.0000 -0.0704008271
C   C148      1.0  0.21830  0.02290  0.33595  1.0000 -0.0704008271
C   C149      1.0  0.97710  0.78170  0.16405  1.0000 -0.0704008271
C   C150      1.0  0.02290  0.21830  0.66405  1.0000 -0.0704008271
C   C151      1.0  0.71830  0.47710  0.41405  1.0000 -0.0704008271
C   C152      1.0  0.28170  0.52290  0.91405  1.0000 -0.0704008271
C   C153      1.0  0.41740  0.25860  0.70986  1.0000 -0.1415707008
C   C154      1.0  0.24140  0.91740  0.95986  1.0000 -0.1415707008
C   C155      1.0  0.58260  0.74140  0.20986  1.0000 -0.1415707008
C   C156      1.0  0.75860  0.08260  0.45986  1.0000 -0.1415707008
C   C157      1.0  0.91740  0.24140  0.04014  1.0000 -0.1415707008
C   C158      1.0  0.08260  0.75860  0.54014  1.0000 -0.1415707008
C   C159      1.0  0.25860  0.41740  0.29014  1.0000 -0.1415707008
C   C160      1.0  0.74140  0.58260  0.79014  1.0000 -0.1415707008
C   C161      1.0  0.20680  0.93860  0.67023  1.0000 -0.0704008271
C   C162      1.0  0.56140  0.70680  0.92023  1.0000 -0.0704008271
C   C163      1.0  0.79320  0.06140  0.17023  1.0000 -0.0704008271
C   C164      1.0  0.43860  0.29320  0.42023  1.0000 -0.0704008271
C   C165      1.0  0.70680  0.56140  0.07977  1.0000 -0.0704008271
C   C166      1.0  0.29320  0.43860  0.57977  1.0000 -0.0704008271
C   C167      1.0  0.93860  0.20680  0.32977  1.0000 -0.0704008271
C   C168      1.0  0.06140  0.79320  0.82977  1.0000 -0.0704008271
C   C169      1.0  0.29240  0.24860  0.70953  1.0000 -0.0805780659
C   C170      1.0  0.25140  0.79240  0.95953  1.0000 -0.0805780659
C   C171      1.0  0.70760  0.75140  0.20953  1.0000 -0.0805780659
C   C172      1.0  0.74860  0.20760  0.45953  1.0000 -0.0805780659
C   C173      1.0  0.79240  0.25140  0.04047  1.0000 -0.0805780659
C   C174      1.0  0.20760  0.74860  0.54047  1.0000 -0.0805780659
C   C175      1.0  0.24860  0.29240  0.29047  1.0000 -0.0805780659
C   C176      1.0  0.75140  0.70760  0.79047  1.0000 -0.0805780659
C   C177      1.0  0.58000  0.86840  0.67954  1.0000 0.0694617482
C   C178      1.0  0.63160  0.08000  0.92954  1.0000 0.0694617482
C   C179      1.0  0.42000  0.13160  0.17954  1.0000 0.0694617482
C   C180      1.0  0.36840  0.92000  0.42954  1.0000 0.0694617482
C   C181      1.0  0.08000  0.63160  0.07046  1.0000 0.0694617482
C   C182      1.0  0.92000  0.36840  0.57046  1.0000 0.0694617482
C   C183      1.0  0.86840  0.58000  0.32046  1.0000 0.0694617482
C   C184      1.0  0.13160  0.42000  0.82046  1.0000 0.0694617482
C   C185      1.0  0.61560  0.24940  0.65908  1.0000 -0.2125516954
C   C186      1.0  0.25060  0.11560  0.90908  1.0000 -0.2125516954
C   C187      1.0  0.38440  0.75060  0.15908  1.0000 -0.2125516954
C   C188      1.0  0.74940  0.88440  0.40908  1.0000 -0.2125516954
C   C189      1.0  0.11560  0.25060  0.09092  1.0000 -0.2125516954
C   C190      1.0  0.88440  0.74940  0.59092  1.0000 -0.2125516954
C   C191      1.0  0.24940  0.61560  0.34092  1.0000 -0.2125516954
C   C192      1.0  0.75060  0.38440  0.84092  1.0000 -0.2125516954
C   C193      1.0  0.52390  0.83840  0.64835  1.0000 -0.2125516954
C   C194      1.0  0.66160  0.02390  0.89835  1.0000 -0.2125516954
C   C195      1.0  0.47610  0.16160  0.14835  1.0000 -0.2125516954
C   C196      1.0  0.33840  0.97610  0.39835  1.0000 -0.2125516954
C   C197      1.0  0.02390  0.66160  0.10165  1.0000 -0.2125516954
C   C198      1.0  0.97610  0.33840  0.60165  1.0000 -0.2125516954
C   C199      1.0  0.83840  0.52390  0.35165  1.0000 -0.2125516954
C   C200      1.0  0.16160  0.47610  0.85165  1.0000 -0.2125516954
C   C201      1.0  0.62830  0.85530  0.71020  1.0000 -0.0805780659
C   C202      1.0  0.64470  0.12830  0.96020  1.0000 -0.0805780659
C   C203      1.0  0.37170  0.14470  0.21020  1.0000 -0.0805780659
C   C204      1.0  0.35530  0.87170  0.46020  1.0000 -0.0805780659
C   C205      1.0  0.12830  0.64470  0.03980  1.0000 -0.0805780659
C   C206      1.0  0.87170  0.35530  0.53980  1.0000 -0.0805780659
C   C207      1.0  0.85530  0.62830  0.28980  1.0000 -0.0805780659
C   C208      1.0  0.14470  0.37170  0.78980  1.0000 -0.0805780659
C   C209      1.0  0.49060  0.25880  0.68031  1.0000 0.0814206887
C   C210      1.0  0.24120  0.99060  0.93031  1.0000 0.0814206887
C   C211      1.0  0.50940  0.74120  0.18031  1.0000 0.0814206887
C   C212      1.0  0.75880  0.00940  0.43031  1.0000 0.0814206887
C   C213      1.0  0.99060  0.24120  0.06969  1.0000 0.0814206887
C   C214      1.0  0.00940  0.75880  0.56969  1.0000 0.0814206887
C   C215      1.0  0.25880  0.49060  0.31969  1.0000 0.0814206887
C   C216      1.0  0.74120  0.50940  0.81969  1.0000 0.0814206887
C   C217      1.0  0.33580  0.00780  0.67396  1.0000 -0.1604248361
C   C218      1.0  0.49220  0.83580  0.92396  1.0000 -0.1604248361
C   C219      1.0  0.66420  0.99220  0.17396  1.0000 -0.1604248361
C   C220      1.0  0.50780  0.16420  0.42396  1.0000 -0.1604248361
C   C221      1.0  0.83580  0.49220  0.07604  1.0000 -0.1604248361
C   C222      1.0  0.16420  0.50780  0.57604  1.0000 -0.1604248361
C   C223      1.0  0.00780  0.33580  0.32604  1.0000 -0.1604248361
C   C224      1.0  0.99220  0.66420  0.82604  1.0000 -0.1604248361
C   C225      1.0  0.35820  0.25850  0.68059  1.0000 -0.1530584073
C   C226      1.0  0.24150  0.85820  0.93059  1.0000 -0.1604248361
C   C227      1.0  0.64180  0.74150  0.18059  1.0000 -0.1604248361
C   C228      1.0  0.75850  0.14180  0.43059  1.0000 -0.1530584073
C   C229      1.0  0.85820  0.24150  0.06941  1.0000 -0.1530584073
C   C230      1.0  0.14180  0.75850  0.56941  1.0000 -0.1604248361
C   C231      1.0  0.25850  0.35820  0.31941  1.0000 -0.1604248361
C   C232      1.0  0.74150  0.64180  0.81941  1.0000 -0.1604248361
C   C233      1.0  0.50710  0.73520  0.61801  1.0000 -0.1530584073
C   C234      1.0  0.76480  0.00710  0.86801  1.0000 -0.1530584073
C   C235      1.0  0.49290  0.26480  0.11801  1.0000 -0.1530584073
C   C236      1.0  0.23520  0.99290  0.36801  1.0000 -0.1530584073
C   C237      1.0  0.00710  0.76480  0.13199  1.0000 -0.1530584073
C   C238      1.0  0.99290  0.23520  0.63199  1.0000 -0.1530584073
C   C239      1.0  0.73520  0.50710  0.38199  1.0000 -0.1530584073
C   C240      1.0  0.26480  0.49290  0.88199  1.0000 -0.1530584073
C   C241      1.0  0.51130  0.69410  0.60206  1.0000 -0.0898708022
C   C242      1.0  0.80590  0.01130  0.85206  1.0000 -0.0898708022
C   C243      1.0  0.48870  0.30590  0.10206  1.0000 -0.0898708022
C   C244      1.0  0.19410  0.98870  0.35206  1.0000 -0.0898708022
C   C245      1.0  0.01130  0.80590  0.14794  1.0000 -0.0898708022
C   C246      1.0  0.98870  0.19410  0.64794  1.0000 -0.0898708022
C   C247      1.0  0.69410  0.51130  0.39794  1.0000 -0.0898708022
C   C248      1.0  0.30590  0.48870  0.89794  1.0000 -0.0898708022
C   C249      1.0  0.47020  0.79850  0.61843  1.0000 0.0814206887
C   C250      1.0  0.70150  0.97020  0.86843  1.0000 0.0814206887
C   C251      1.0  0.52980  0.20150  0.11843  1.0000 0.0814206887
C   C252      1.0  0.29850  0.02980  0.36843  1.0000 0.0814206887
C   C253      1.0  0.97020  0.70150  0.13157  1.0000 0.0814206887
C   C254      1.0  0.02980  0.29850  0.63157  1.0000 0.0814206887
C   C255      1.0  0.79850  0.47020  0.38157  1.0000 0.0814206887
C   C256      1.0  0.20150  0.52980  0.88157  1.0000 0.0814206887
C   C257      1.0  0.57040  0.86210  0.69783  1.0000 -0.1530584073
C   C258      1.0  0.63790  0.07040  0.94783  1.0000 -0.1530584073
C   C259      1.0  0.42960  0.13790  0.19783  1.0000 -0.1530584073
C   C260      1.0  0.36210  0.92960  0.44783  1.0000 -0.1530584073
C   C261      1.0  0.07040  0.63790  0.05217  1.0000 -0.1530584073
C   C262      1.0  0.92960  0.36210  0.55217  1.0000 -0.1530584073
C   C263      1.0  0.86210  0.57040  0.30217  1.0000 -0.1530584073
C   C264      1.0  0.13790  0.42960  0.80217  1.0000 -0.1530584073
C   C265      1.0  0.64900  0.87130  0.67208  1.0000 -0.1530584073
C   C266      1.0  0.62870  0.14900  0.92208  1.0000 -0.1530584073
C   C267      1.0  0.35100  0.12870  0.17208  1.0000 -0.1530584073
C   C268      1.0  0.37130  0.85100  0.42208  1.0000 -0.1530584073
C   C269      1.0  0.14900  0.62870  0.07792  1.0000 -0.1530584073
C   C270      1.0  0.85100  0.37130  0.57792  1.0000 -0.1530584073
C   C271      1.0  0.87130  0.64900  0.32792  1.0000 -0.1530584073
C   C272      1.0  0.12870  0.35100  0.82792  1.0000 -0.1530584073
C   C273      1.0  0.52870  0.39220  0.63166  1.0000 -0.1604248361
C   C274      1.0  0.10780  0.02870  0.88166  1.0000 -0.1604248361
C   C275      1.0  0.47130  0.60780  0.13166  1.0000 -0.1604248361
C   C276      1.0  0.89220  0.97130  0.38166  1.0000 -0.1604248361
C   C277      1.0  0.02870  0.10780  0.11834  1.0000 -0.1604248361
C   C278      1.0  0.97130  0.89220  0.61834  1.0000 -0.1604248361
C   C279      1.0  0.39220  0.52870  0.36834  1.0000 -0.1604248361
C   C280      1.0  0.60780  0.47130  0.86834  1.0000 -0.1604248361
C   C281      1.0  0.56290  0.32770  0.63461  1.0000 0.0694617482
C   C282      1.0  0.17230  0.06290  0.88461  1.0000 0.0694617482
C   C283      1.0  0.43710  0.67230  0.13461  1.0000 0.0694617482
C   C284      1.0  0.82770  0.93710  0.38461  1.0000 0.0694617482
C   C285      1.0  0.06290  0.17230  0.11539  1.0000 0.0694617482
C   C286      1.0  0.93710  0.82770  0.61539  1.0000 0.0694617482
C   C287      1.0  0.32770  0.56290  0.36539  1.0000 0.0694617482
C   C288      1.0  0.67230  0.43710  0.86539  1.0000 0.0694617482
C   C289      1.0  0.59750  0.29460  0.61989  1.0000 -0.1604248361
C   C290      1.0  0.20540  0.09750  0.86989  1.0000 -0.1604248361
C   C291      1.0  0.40250  0.70540  0.11989  1.0000 -0.1604248361
C   C292      1.0  0.79460  0.90250  0.36989  1.0000 -0.1604248361
C   C293      1.0  0.09750  0.20540  0.13011  1.0000 -0.1604248361
C   C294      1.0  0.90250  0.79460  0.63011  1.0000 -0.1604248361
C   C295      1.0  0.29460  0.59750  0.38011  1.0000 -0.1604248361
C   C296      1.0  0.70540  0.40250  0.88011  1.0000 -0.1604248361
C   C297      1.0  0.44120  0.78380  0.58620  1.0000 -0.0898708022
C   C298      1.0  0.71620  0.94120  0.83620  1.0000 -0.0898708022
C   C299      1.0  0.55880  0.21620  0.08620  1.0000 -0.0898708022
C   C300      1.0  0.28380  0.05880  0.33620  1.0000 -0.0898708022
C   C301      1.0  0.94120  0.71620  0.16380  1.0000 -0.0898708022
C   C302      1.0  0.05880  0.28380  0.66380  1.0000 -0.0898708022
C   C303      1.0  0.78380  0.44120  0.41380  1.0000 -0.0898708022
C   C304      1.0  0.21620  0.55880  0.91380  1.0000 -0.0898708022
C   C305      1.0  0.14480  0.03340  0.68729  1.0000 0.61081743
C   C306      1.0  0.46660  0.64480  0.93729  1.0000 0.61081743
C   C307      1.0  0.85520  0.96660  0.18729  1.0000 0.61081743
C   C308      1.0  0.53340  0.35520  0.43729  1.0000 0.61081743
C   C309      1.0  0.64480  0.46660  0.06271  1.0000 0.61081743
C   C310      1.0  0.35520  0.53340  0.56271  1.0000 0.61081743
C   C311      1.0  0.03340  0.14480  0.31271  1.0000 0.61081743
C   C312      1.0  0.96660  0.85520  0.81271  1.0000 0.61081743
C   C313      1.0  0.35690  0.25360  0.71893  1.0000 -0.0898708022
C   C314      1.0  0.24640  0.85690  0.96893  1.0000 -0.0898708022
C   C315      1.0  0.64310  0.74640  0.21893  1.0000 -0.0898708022
C   C316      1.0  0.75360  0.14310  0.46893  1.0000 -0.0898708022
C   C317      1.0  0.85690  0.24640  0.03107  1.0000 -0.0898708022
C   C318      1.0  0.14310  0.75360  0.53107  1.0000 -0.0898708022
C   C319      1.0  0.25360  0.35690  0.28107  1.0000 -0.0898708022
C   C320      1.0  0.74640  0.64310  0.78107  1.0000 -0.0898708022
C   C321      1.0  0.26790  0.90540  0.66332  1.0000 -0.1604248361
C   C322      1.0  0.59460  0.76790  0.91332  1.0000 -0.1604248361
C   C323      1.0  0.73210  0.09460  0.16332  1.0000 -0.1604248361
C   C324      1.0  0.40540  0.23210  0.41332  1.0000 -0.1604248361
C   C325      1.0  0.76790  0.59460  0.08668  1.0000 -0.1604248361
C   C326      1.0  0.23210  0.40540  0.58668  1.0000 -0.1604248361
C   C327      1.0  0.90540  0.26790  0.33668  1.0000 -0.1604248361
C   C328      1.0  0.09460  0.73210  0.83668  1.0000 -0.1604248361
C   C329      1.0  0.43850  0.82300  0.60211  1.0000 -0.1530584073
C   C330      1.0  0.67700  0.93850  0.85211  1.0000 -0.1530584073
C   C331      1.0  0.56150  0.17700  0.10211  1.0000 -0.1530584073
C   C332      1.0  0.32300  0.06150  0.35211  1.0000 -0.1530584073
C   C333      1.0  0.93850  0.67700  0.14789  1.0000 -0.1530584073
C   C334      1.0  0.06150  0.32300  0.64789  1.0000 -0.1530584073
C   C335      1.0  0.82300  0.43850  0.39789  1.0000 -0.1530584073
C   C336      1.0  0.17700  0.56150  0.89789  1.0000 -0.1530584073
C   C337      1.0  0.45610  0.90800  0.67070  1.0000 -0.2125516954
C   C338      1.0  0.59200  0.95610  0.92070  1.0000 -0.2125516954
C   C339      1.0  0.54390  0.09200  0.17070  1.0000 -0.2125516954
C   C340      1.0  0.40800  0.04390  0.42070  1.0000 -0.2125516954
C   C341      1.0  0.95610  0.59200  0.07930  1.0000 -0.2125516954
C   C342      1.0  0.04390  0.40800  0.57930  1.0000 -0.2125516954
C   C343      1.0  0.90800  0.45610  0.32930  1.0000 -0.2125516954
C   C344      1.0  0.09200  0.54390  0.82930  1.0000 -0.2125516954
C   C345      1.0  0.65390  0.09990  0.69006  1.0000 -0.1893381518
C   C346      1.0  0.40010  0.15390  0.94006  1.0000 -0.1893381518
C   C347      1.0  0.34610  0.90010  0.19006  1.0000 -0.1893381518
C   C348      1.0  0.59990  0.84610  0.44006  1.0000 -0.1893381518
C   C349      1.0  0.15390  0.40010  0.05994  1.0000 -0.1893381518
C   C350      1.0  0.84610  0.59990  0.55994  1.0000 -0.1893381518
C   C351      1.0  0.09990  0.65390  0.30994  1.0000 -0.1893381518
C   C352      1.0  0.90010  0.34610  0.80994  1.0000 -0.1893381518
C   C353      1.0  0.73850  0.19570  0.68182  1.0000 -0.1799821728
C   C354      1.0  0.30430  0.23850  0.93182  1.0000 -0.1799821728
C   C355      1.0  0.26150  0.80430  0.18182  1.0000 -0.1799821728
C   C356      1.0  0.69570  0.76150  0.43182  1.0000 -0.1799821728
C   C357      1.0  0.23850  0.30430  0.06818  1.0000 -0.1799821728
C   C358      1.0  0.76150  0.69570  0.56818  1.0000 -0.1799821728
C   C359      1.0  0.19570  0.73850  0.31818  1.0000 -0.1799821728
C   C360      1.0  0.80430  0.26150  0.81818  1.0000 -0.1799821728
C   C361      1.0  0.67040  0.16880  0.68279  1.0000 0.0989082924
C   C362      1.0  0.33120  0.17040  0.93279  1.0000 0.0989082924
C   C363      1.0  0.32960  0.83120  0.18279  1.0000 0.0989082924
C   C364      1.0  0.66880  0.82960  0.43279  1.0000 0.0989082924
C   C365      1.0  0.17040  0.33120  0.06721  1.0000 0.0989082924
C   C366      1.0  0.82960  0.66880  0.56721  1.0000 0.0989082924
C   C367      1.0  0.16880  0.67040  0.31721  1.0000 0.0989082924
C   C368      1.0  0.83120  0.32960  0.81721  1.0000 0.0989082924
C   C369      1.0  0.71470  0.05900  0.69541  1.0000 -0.0704008271
C   C370      1.0  0.44100  0.21470  0.94541  1.0000 -0.0704008271
C   C371      1.0  0.28530  0.94100  0.19541  1.0000 -0.0704008271
C   C372      1.0  0.55900  0.78530  0.44541  1.0000 -0.0704008271
C   C373      1.0  0.21470  0.44100  0.05459  1.0000 -0.0704008271
C   C374      1.0  0.78530  0.55900  0.55459  1.0000 -0.0704008271
C   C375      1.0  0.05900  0.71470  0.30459  1.0000 -0.0704008271
C   C376      1.0  0.94100  0.28530  0.80459  1.0000 -0.0704008271
C   C377      1.0  0.79430  0.14940  0.68683  1.0000 -0.0622396045
C   C378      1.0  0.35060  0.29430  0.93683  1.0000 -0.0622396045
C   C379      1.0  0.20570  0.85060  0.18683  1.0000 -0.0622396045
C   C380      1.0  0.64940  0.70570  0.43683  1.0000 -0.0622396045
C   C381      1.0  0.29430  0.35060  0.06317  1.0000 -0.0622396045
C   C382      1.0  0.70570  0.64940  0.56317  1.0000 -0.0622396045
C   C383      1.0  0.14940  0.79430  0.31317  1.0000 -0.0622396045
C   C384      1.0  0.85060  0.20570  0.81317  1.0000 -0.0622396045
C   C385      1.0  0.53020  0.42430  0.61305  1.0000 -0.1065676235
C   C386      1.0  0.07570  0.03020  0.86305  1.0000 -0.1065676235
C   C387      1.0  0.46980  0.57570  0.11305  1.0000 -0.1065676235
C   C388      1.0  0.92430  0.96980  0.36305  1.0000 -0.1065676235
C   C389      1.0  0.03020  0.07570  0.13695  1.0000 -0.1065676235
C   C390      1.0  0.96980  0.92430  0.63695  1.0000 -0.1065676235
C   C391      1.0  0.42430  0.53020  0.38695  1.0000 -0.1065676235
C   C392      1.0  0.57570  0.46980  0.88695  1.0000 -0.1065676235
C   C393      1.0  0.60770  0.21610  0.67635  1.0000 0.0814206887
C   C394      1.0  0.28390  0.10770  0.92635  1.0000 0.0814206887
C   C395      1.0  0.39230  0.78390  0.17635  1.0000 0.0814206887
C   C396      1.0  0.71610  0.89230  0.42635  1.0000 0.0814206887
C   C397      1.0  0.10770  0.28390  0.07365  1.0000 0.0814206887
C   C398      1.0  0.89230  0.71610  0.57365  1.0000 0.0814206887
C   C399      1.0  0.21610  0.60770  0.32365  1.0000 0.0814206887
C   C400      1.0  0.78390  0.39230  0.82365  1.0000 0.0814206887
C   C401      1.0  0.78340  0.08260  0.69365  1.0000 -0.0898708022
C   C402      1.0  0.41740  0.28340  0.94365  1.0000 -0.0898708022
C   C403      1.0  0.21660  0.91740  0.19365  1.0000 -0.0898708022
C   C404      1.0  0.58260  0.71660  0.44365  1.0000 -0.0898708022
C   C405      1.0  0.28340  0.41740  0.05635  1.0000 -0.0898708022
C   C406      1.0  0.71660  0.58260  0.55635  1.0000 -0.0898708022
C   C407      1.0  0.08260  0.78340  0.30635  1.0000 -0.0898708022
C   C408      1.0  0.91740  0.21660  0.80635  1.0000 -0.0898708022
C   C409      1.0  0.84200  0.03760  0.69796  1.0000 0.61081743
C   C410      1.0  0.46240  0.34200  0.94796  1.0000 0.61081743
C   C411      1.0  0.15800  0.96240  0.19796  1.0000 0.61081743
C   C412      1.0  0.53760  0.65800  0.44796  1.0000 0.61081743
C   C413      1.0  0.34200  0.46240  0.05204  1.0000 0.61081743
C   C414      1.0  0.65800  0.53760  0.55204  1.0000 0.61081743
C   C415      1.0  0.03760  0.84200  0.30204  1.0000 0.61081743
C   C416      1.0  0.96240  0.15800  0.80204  1.0000 0.61081743
C   C417      1.0  0.22550  0.23490  0.71871  1.0000 0.601378826
C   C418      1.0  0.26510  0.72550  0.96871  1.0000 0.601378826
C   C419      1.0  0.77450  0.76510  0.21871  1.0000 0.601378826
C   C420      1.0  0.73490  0.27450  0.46871  1.0000 0.601378826
C   C421      1.0  0.72550  0.26510  0.03129  1.0000 0.601378826
C   C422      1.0  0.27450  0.73490  0.53129  1.0000 0.601378826
C   C423      1.0  0.23490  0.22550  0.28129  1.0000 0.601378826
C   C424      1.0  0.76510  0.77450  0.78129  1.0000 0.601378826
C   C425      1.0  0.75870  0.84320  0.71479  1.0000 0.6208263314
C   C426      1.0  0.65680  0.25870  0.96479  1.0000 0.6208263314
C   C427      1.0  0.24130  0.15680  0.21479  1.0000 0.6208263314
C   C428      1.0  0.34320  0.74130  0.46479  1.0000 0.6208263314
C   C429      1.0  0.25870  0.65680  0.03521  1.0000 0.6208263314
C   C430      1.0  0.74130  0.34320  0.53521  1.0000 0.6208263314
C   C431      1.0  0.84320  0.75870  0.28521  1.0000 0.6208263314
C   C432      1.0  0.15680  0.24130  0.78521  1.0000 0.6208263314
C   C433      1.0  0.47730  0.62160  0.49312  1.0000 -0.0091205868
C   C434      1.0  0.87840  0.97730  0.74312  1.0000 -0.0091205868
C   C435      1.0  0.52270  0.37840  0.99312  1.0000 -0.0091205868
C   C436      1.0  0.12160  0.02270  0.24312  1.0000 -0.0091205868
C   C437      1.0  0.97730  0.87840  0.25688  1.0000 -0.0091205868
C   C438      1.0  0.02270  0.12160  0.75688  1.0000 -0.0091205868
C   C439      1.0  0.62160  0.47730  0.50688  1.0000 -0.0091205868
C   C440      1.0  0.37840  0.52270  0.00688  1.0000 -0.0091205868
C   C441      1.0  0.48790  0.68460  0.50480  1.0000 -0.0091205868
C   C442      1.0  0.81540  0.98790  0.75480  1.0000 -0.0091205868
C   C443      1.0  0.51210  0.31540  0.00480  1.0000 -0.0091205868
C   C444      1.0  0.18460  0.01210  0.25480  1.0000 -0.0091205868
C   C445      1.0  0.98790  0.81540  0.24520  1.0000 -0.0091205868
C   C446      1.0  0.01210  0.18460  0.74520  1.0000 -0.0091205868
C   C447      1.0  0.68460  0.48790  0.49520  1.0000 -0.0091205868
C   C448      1.0  0.31540  0.51210  0.99520  1.0000 -0.0091205868
C   C449      1.0  0.22770  0.58000  0.50354  1.0000 -0.0091205868
C   C450      1.0  0.92000  0.72770  0.75354  1.0000 -0.0091205868
C   C451      1.0  0.77230  0.42000  0.00354  1.0000 -0.0091205868
C   C452      1.0  0.08000  0.27230  0.25354  1.0000 -0.0091205868
C   C453      1.0  0.72770  0.92000  0.24646  1.0000 -0.0091205868
C   C454      1.0  0.27230  0.08000  0.74646  1.0000 -0.0091205868
C   C455      1.0  0.58000  0.22770  0.49646  1.0000 -0.0091205868
C   C456      1.0  0.42000  0.77230  0.99646  1.0000 -0.0091205868
C   C457      1.0  0.28130  0.55520  0.51757  1.0000 0.0230231336
C   C458      1.0  0.94480  0.78130  0.76757  1.0000 0.0230231336
C   C459      1.0  0.71870  0.44480  0.01757  1.0000 0.0230231336
C   C460      1.0  0.05520  0.21870  0.26757  1.0000 0.0230231336
C   C461      1.0  0.78130  0.94480  0.23243  1.0000 0.0230231336
C   C462      1.0  0.21870  0.05520  0.73243  1.0000 0.0230231336
C   C463      1.0  0.55520  0.28130  0.48243  1.0000 0.0230231336
C   C464      1.0  0.44480  0.71870  0.98243  1.0000 0.0230231336
O   O1        1.0  0.46706  0.57874  0.53577  1.0000 -0.9817318865
O   O2        1.0  0.92126  0.96706  0.78577  1.0000 -0.9817318865
O   O3        1.0  0.53294  0.42126  0.03577  1.0000 -0.9817318865
O   O4        1.0  0.07874  0.03294  0.28577  1.0000 -0.9817318865
O   O5        1.0  0.96706  0.92126  0.21423  1.0000 -0.9817318865
O   O6        1.0  0.03294  0.07874  0.71423  1.0000 -0.9817318865
O   O7        1.0  0.57874  0.46706  0.46423  1.0000 -0.9817318865
O   O8        1.0  0.42126  0.53294  0.96423  1.0000 -0.9817318865
O   O9        1.0  0.40867  0.62303  0.48410  1.0000 -0.6597382747
O   O10       1.0  0.87697  0.90867  0.73410  1.0000 -0.6597382747
O   O11       1.0  0.59133  0.37697  0.98410  1.0000 -0.6597382747
O   O12       1.0  0.12303  0.09133  0.23410  1.0000 -0.6597382747
O   O13       1.0  0.90867  0.87697  0.26590  1.0000 -0.6597382747
O   O14       1.0  0.09133  0.12303  0.76590  1.0000 -0.6597382747
O   O15       1.0  0.62303  0.40867  0.51590  1.0000 -0.6597382747
O   O16       1.0  0.37697  0.59133  0.01590  1.0000 -0.6597382747
O   O17       1.0  0.44993  0.69850  0.55399  1.0000 -0.5888661785
O   O18       1.0  0.80150  0.94993  0.80399  1.0000 -0.5888661785
O   O19       1.0  0.55007  0.30150  0.05399  1.0000 -0.5888661785
O   O20       1.0  0.19850  0.05007  0.30399  1.0000 -0.5888661785
O   O21       1.0  0.94993  0.80150  0.19601  1.0000 -0.5888661785
O   O22       1.0  0.05007  0.19850  0.69601  1.0000 -0.5888661785
O   O23       1.0  0.69850  0.44993  0.44601  1.0000 -0.5888661785
O   O24       1.0  0.30150  0.55007  0.94601  1.0000 -0.5888661785
O   O25       1.0  0.53797  0.48138  0.57733  1.0000 -0.5722693153
O   O26       1.0  0.01862  0.03797  0.82733  1.0000 -0.5722693153
O   O27       1.0  0.46203  0.51862  0.07733  1.0000 -0.5722693153
O   O28       1.0  0.98138  0.96203  0.32733  1.0000 -0.5722693153
O   O29       1.0  0.03797  0.01862  0.17267  1.0000 -0.5722693153
O   O30       1.0  0.96203  0.98138  0.67267  1.0000 -0.5722693153
O   O31       1.0  0.48138  0.53797  0.42267  1.0000 -0.5722693153
O   O32       1.0  0.51862  0.46203  0.92267  1.0000 -0.5722693153
O   O33       1.0  0.49065  0.60678  0.57197  1.0000 -0.6274948069
O   O34       1.0  0.89322  0.99065  0.82197  1.0000 -0.6274948069
O   O35       1.0  0.50935  0.39322  0.07197  1.0000 -0.6274948069
O   O36       1.0  0.10678  0.00935  0.32197  1.0000 -0.6274948069
O   O37       1.0  0.99065  0.89322  0.17803  1.0000 -0.6274948069
O   O38       1.0  0.00935  0.10678  0.67803  1.0000 -0.6274948069
O   O39       1.0  0.60678  0.49065  0.42803  1.0000 -0.6274948069
O   O40       1.0  0.39322  0.50935  0.92803  1.0000 -0.6274948069
O   O41       1.0  0.14854  0.09511  0.69402  1.0000 -0.5888661785
O   O42       1.0  0.40489  0.64854  0.94402  1.0000 -0.5888661785
O   O43       1.0  0.85146  0.90489  0.19402  1.0000 -0.5888661785
O   O44       1.0  0.59511  0.35146  0.44402  1.0000 -0.5888661785
O   O45       1.0  0.64854  0.40489  0.05598  1.0000 -0.5888661785
O   O46       1.0  0.35146  0.59511  0.55598  1.0000 -0.5888661785
O   O47       1.0  0.09511  0.14854  0.30598  1.0000 -0.5817314953
O   O48       1.0  0.90489  0.85146  0.80598  1.0000 -0.5888661785
O   O49       1.0  0.08800  0.99726  0.68760  1.0000 -0.5817314953
O   O50       1.0  0.50274  0.58800  0.93760  1.0000 -0.5817314953
O   O51       1.0  0.91200  0.00274  0.18760  1.0000 -0.5817314953
O   O52       1.0  0.49726  0.41200  0.43760  1.0000 -0.5817314953
O   O53       1.0  0.58800  0.50274  0.06240  1.0000 -0.5817314953
O   O54       1.0  0.41200  0.49726  0.56240  1.0000 -0.5817314953
O   O55       1.0  0.99726  0.08800  0.31240  1.0000 -0.5817314953
O   O56       1.0  0.00274  0.91200  0.81240  1.0000 -0.5817314953
O   O57       1.0  0.58917  0.38122  0.56707  1.0000 -0.6118017756
O   O58       1.0  0.11878  0.08917  0.81707  1.0000 -0.6118017756
O   O59       1.0  0.41083  0.61878  0.06707  1.0000 -0.6118017756
O   O60       1.0  0.88122  0.91083  0.31707  1.0000 -0.6118017756
O   O61       1.0  0.08917  0.11878  0.18293  1.0000 -0.6118017756
O   O62       1.0  0.91083  0.88122  0.68293  1.0000 -0.6118017756
O   O63       1.0  0.38122  0.58917  0.43293  1.0000 -0.6118017756
O   O64       1.0  0.61878  0.41083  0.93293  1.0000 -0.6118017756
O   O65       1.0  0.75178  0.84253  0.73277  1.0000 -0.5817314953
O   O66       1.0  0.65747  0.25178  0.98277  1.0000 -0.5817314953
O   O67       1.0  0.24822  0.15747  0.23277  1.0000 -0.5817314953
O   O68       1.0  0.34253  0.74822  0.48277  1.0000 -0.5817314953
O   O69       1.0  0.25178  0.65747  0.01723  1.0000 -0.5817314953
O   O70       1.0  0.74822  0.34253  0.51723  1.0000 -0.5817314953
O   O71       1.0  0.84253  0.75178  0.26723  1.0000 -0.5817314953
O   O72       1.0  0.15747  0.24822  0.76723  1.0000 -0.5817314953
O   O73       1.0  0.52277  0.45239  0.54091  1.0000 -1.0128079974
O   O74       1.0  0.04761  0.02277  0.79091  1.0000 -1.0128079974
O   O75       1.0  0.47723  0.54761  0.04091  1.0000 -1.0128079974
O   O76       1.0  0.95239  0.97723  0.29091  1.0000 -1.0128079974
O   O77       1.0  0.02277  0.04761  0.20909  1.0000 -1.0128079974
O   O78       1.0  0.97723  0.95239  0.70909  1.0000 -1.0128079974
O   O79       1.0  0.45239  0.52277  0.45909  1.0000 -1.0128079974
O   O80       1.0  0.54761  0.47723  0.95909  1.0000 -1.0128079974
O   O81       1.0  0.83435  0.97379  0.70245  1.0000 -0.5722693153
O   O82       1.0  0.52621  0.33435  0.95245  1.0000 -0.5722693153
O   O83       1.0  0.16565  0.02621  0.20245  1.0000 -0.5722693153
O   O84       1.0  0.47379  0.66565  0.45245  1.0000 -0.5722693153
O   O85       1.0  0.33435  0.52621  0.04755  1.0000 -0.5722693153
O   O86       1.0  0.66565  0.47379  0.54755  1.0000 -0.5722693153
O   O87       1.0  0.97379  0.83435  0.29755  1.0000 -0.5722693153
O   O88       1.0  0.02621  0.16565  0.79755  1.0000 -0.5722693153
O   O89       1.0  0.90469  0.06832  0.69803  1.0000 -0.6274948069
O   O90       1.0  0.43168  0.40469  0.94803  1.0000 -0.6274948069
O   O91       1.0  0.09531  0.93168  0.19803  1.0000 -0.6274948069
O   O92       1.0  0.56832  0.59531  0.44803  1.0000 -0.6274948069
O   O93       1.0  0.40469  0.43168  0.05197  1.0000 -0.6274948069
O   O94       1.0  0.59531  0.56832  0.55197  1.0000 -0.6274948069
O   O95       1.0  0.06832  0.90469  0.30197  1.0000 -0.6274948069
O   O96       1.0  0.93168  0.09531  0.80197  1.0000 -0.6274948069
O   O97       1.0  0.22271  0.22997  0.73627  1.0000 -0.5367308208
O   O98       1.0  0.27003  0.72271  0.98627  1.0000 -0.5367308208
O   O99       1.0  0.77729  0.77003  0.23627  1.0000 -0.5367308208
O   O100      1.0  0.72997  0.27729  0.48627  1.0000 -0.5367308208
O   O101      1.0  0.72271  0.27003  0.01373  1.0000 -0.5367308208
O   O102      1.0  0.27729  0.72997  0.51373  1.0000 -0.5367308208
O   O103      1.0  0.22997  0.22271  0.26373  1.0000 -0.5367308208
O   O104      1.0  0.77003  0.77729  0.76373  1.0000 -0.5367308208
O   O105      1.0  0.17180  0.21664  0.70843  1.0000 -0.6006700122
O   O106      1.0  0.28336  0.67180  0.95843  1.0000 -0.6006700122
O   O107      1.0  0.82820  0.78336  0.20843  1.0000 -0.6006700122
O   O108      1.0  0.71664  0.32820  0.45843  1.0000 -0.6006700122
O   O109      1.0  0.67180  0.28336  0.04157  1.0000 -0.6006700122
O   O110      1.0  0.32820  0.71664  0.54157  1.0000 -0.6006700122
O   O111      1.0  0.21664  0.17180  0.29157  1.0000 -0.6006700122
O   O112      1.0  0.78336  0.82820  0.79157  1.0000 -0.6006700122
O   O113      1.0  0.81699  0.83680  0.70689  1.0000 -0.5722693153
O   O114      1.0  0.66320  0.31699  0.95689  1.0000 -0.5722693153
O   O115      1.0  0.18301  0.16320  0.20689  1.0000 -0.5722693153
O   O116      1.0  0.33680  0.68301  0.45689  1.0000 -0.5722693153
O   O117      1.0  0.31699  0.66320  0.04311  1.0000 -0.5722693153
O   O118      1.0  0.68301  0.33680  0.54311  1.0000 -0.5722693153
O   O119      1.0  0.83680  0.81699  0.29311  1.0000 -0.5722693153
O   O120      1.0  0.16320  0.18301  0.79311  1.0000 -0.5722693153
O   O121      1.0  0.33932  0.60407  0.51879  1.0000 -0.6597382747
O   O122      1.0  0.89593  0.83932  0.76879  1.0000 -0.6597382747
O   O123      1.0  0.66068  0.39593  0.01879  1.0000 -0.6597382747
O   O124      1.0  0.10407  0.16068  0.26879  1.0000 -0.6597382747
O   O125      1.0  0.83932  0.89593  0.23121  1.0000 -0.6597382747
O   O126      1.0  0.16068  0.10407  0.73121  1.0000 -0.6597382747
O   O127      1.0  0.60407  0.33932  0.48121  1.0000 -0.6597382747
O   O128      1.0  0.39593  0.66068  0.98121  1.0000 -0.6597382747
O   O129      1.0  0.42160  0.69861  0.51467  1.0000 -0.6430191123
O   O130      1.0  0.80139  0.92160  0.76467  1.0000 -0.6430191123
O   O131      1.0  0.57840  0.30139  0.01467  1.0000 -0.6430191123
O   O132      1.0  0.19861  0.07840  0.26467  1.0000 -0.6430191123
O   O133      1.0  0.92160  0.80139  0.23533  1.0000 -0.6430191123
O   O134      1.0  0.07840  0.19861  0.73533  1.0000 -0.6430191123
O   O135      1.0  0.69861  0.42160  0.48533  1.0000 -0.6430191123
O   O136      1.0  0.30139  0.57840  0.98533  1.0000 -0.6430191123
O   O137      1.0  0.26325  0.62375  0.48941  1.0000 -0.5507479929
O   O138      1.0  0.87625  0.76325  0.73941  1.0000 -0.5507479929
O   O139      1.0  0.73675  0.37625  0.98941  1.0000 -0.5507479929
O   O140      1.0  0.12375  0.23675  0.23941  1.0000 -0.5507479929
O   O141      1.0  0.76325  0.87625  0.26059  1.0000 -0.5507479929
O   O142      1.0  0.23675  0.12375  0.76059  1.0000 -0.5507479929
O   O143      1.0  0.62375  0.26325  0.51059  1.0000 -0.5507479929
O   O144      1.0  0.37625  0.73675  0.01059  1.0000 -0.5507479929
