# DDEC6 charges by PACMAN v1.1 (https://github.com/mtap-research/PACMAN-charge/)
data_2017[CuSi][ssa]3[ASR]1
_chemical_formula_sum              "Cu12 Si6 H72 C108 O48"
_cell_length_a       18.5185
_cell_length_b       18.5185
_cell_length_c       19.1215
_cell_angle_alpha    90
_cell_angle_beta     90
_cell_angle_gamma    120

_symmetry_space_group_name_H-M    "P 1"
_symmetry_Int_Tables_number       1

loop_
  _symmetry_equiv_pos_as_xyz
  'x, y, z'

loop_
  _atom_site_type_symbol
  _atom_site_label
  _atom_site_symmetry_multiplicity
  _atom_site_fract_x
  _atom_site_fract_y
  _atom_site_fract_z
  _atom_site_occupancy
  _atom_site_charge
Cu  Cu1       1.0  0.47642  0.95284  0.05626  1.0000 0.85912004
Cu  Cu2       1.0  0.04716  0.52358  0.05626  1.0000 0.85912004
Cu  Cu3       1.0  0.47642  0.52358  0.05626  1.0000 0.85912004
Cu  Cu4       1.0  0.52358  0.04716  0.55626  1.0000 0.85912004
Cu  Cu5       1.0  0.95284  0.47642  0.55626  1.0000 0.85912004
Cu  Cu6       1.0  0.52358  0.47642  0.55626  1.0000 0.85912004
Cu  Cu7       1.0  0.95284  0.47642  0.94374  1.0000 0.85912004
Cu  Cu8       1.0  0.52358  0.04716  0.94374  1.0000 0.85912004
Cu  Cu9       1.0  0.52358  0.47642  0.94374  1.0000 0.85912004
Cu  Cu10      1.0  0.04716  0.52358  0.44374  1.0000 0.85912004
Cu  Cu11      1.0  0.47642  0.95284  0.44374  1.0000 0.85912004
Cu  Cu12      1.0  0.47642  0.52358  0.44374  1.0000 0.85912004
Si  Si1       1.0  0.26565  0.13282  0.25000  1.0000 0.8381677209
Si  Si2       1.0  0.86718  0.13282  0.25000  1.0000 0.8381677209
Si  Si3       1.0  0.86718  0.73435  0.25000  1.0000 0.8381677209
Si  Si4       1.0  0.73435  0.86718  0.75000  1.0000 0.8381677209
Si  Si5       1.0  0.13283  0.86718  0.75000  1.0000 0.8381677209
Si  Si6       1.0  0.13282  0.26565  0.75000  1.0000 0.8381677209
H   H1        1.0  0.34690  0.06460  0.16190  1.0000 0.1291684646
H   H2        1.0  0.93540  0.28230  0.16190  1.0000 0.1291684646
H   H3        1.0  0.71770  0.65310  0.16190  1.0000 0.1291684646
H   H4        1.0  0.65310  0.93540  0.66190  1.0000 0.1291684646
H   H5        1.0  0.06460  0.71770  0.66190  1.0000 0.1291684646
H   H6        1.0  0.28230  0.34690  0.66190  1.0000 0.1291684646
H   H7        1.0  0.06460  0.34690  0.83810  1.0000 0.1291684646
H   H8        1.0  0.28230  0.93540  0.83810  1.0000 0.1291684646
H   H9        1.0  0.65310  0.71770  0.83810  1.0000 0.1291684646
H   H10       1.0  0.93540  0.65310  0.33810  1.0000 0.1291684646
H   H11       1.0  0.71770  0.06460  0.33810  1.0000 0.1291684646
H   H12       1.0  0.34690  0.28230  0.33810  1.0000 0.1291684646
H   H13       1.0  0.65310  0.93540  0.83810  1.0000 0.1291684646
H   H14       1.0  0.06460  0.71770  0.83810  1.0000 0.1291684646
H   H15       1.0  0.28230  0.34690  0.83810  1.0000 0.1291684646
H   H16       1.0  0.34690  0.06460  0.33810  1.0000 0.1291684646
H   H17       1.0  0.93540  0.28230  0.33810  1.0000 0.1291684646
H   H18       1.0  0.71770  0.65310  0.33810  1.0000 0.1291684646
H   H19       1.0  0.93540  0.65310  0.16190  1.0000 0.1291684646
H   H20       1.0  0.71770  0.06460  0.16190  1.0000 0.1291684646
H   H21       1.0  0.34690  0.28230  0.16190  1.0000 0.1291684646
H   H22       1.0  0.06460  0.34690  0.66190  1.0000 0.1291684646
H   H23       1.0  0.28230  0.93540  0.66190  1.0000 0.1291684646
H   H24       1.0  0.65310  0.71770  0.66190  1.0000 0.1291684646
H   H25       1.0  0.23490  0.24360  0.25000  1.0000 0.1405289211
H   H26       1.0  0.75640  0.99130  0.25000  1.0000 0.1405289211
H   H27       1.0  0.00870  0.76510  0.25000  1.0000 0.1405289211
H   H28       1.0  0.76510  0.75640  0.75000  1.0000 0.1405289211
H   H29       1.0  0.24360  0.00870  0.75000  1.0000 0.1405289211
H   H30       1.0  0.99130  0.23490  0.75000  1.0000 0.1405289211
H   H31       1.0  0.24360  0.23490  0.75000  1.0000 0.1405289211
H   H32       1.0  0.99130  0.75640  0.75000  1.0000 0.1405289211
H   H33       1.0  0.76510  0.00870  0.75000  1.0000 0.1405289211
H   H34       1.0  0.75640  0.76510  0.25000  1.0000 0.1405289211
H   H35       1.0  0.00870  0.24360  0.25000  1.0000 0.1405289211
H   H36       1.0  0.23490  0.99130  0.25000  1.0000 0.1405289211
H   H37       1.0  0.16390  0.16550  0.20820  1.0000 0.1566670973
H   H38       1.0  0.83450  0.99840  0.20820  1.0000 0.1566670973
H   H39       1.0  0.00160  0.83610  0.20820  1.0000 0.1566670973
H   H40       1.0  0.83610  0.83450  0.70820  1.0000 0.1566670973
H   H41       1.0  0.16550  0.00160  0.70820  1.0000 0.1566670973
H   H42       1.0  0.99840  0.16390  0.70820  1.0000 0.1566670973
H   H43       1.0  0.16550  0.16390  0.79180  1.0000 0.1566670973
H   H44       1.0  0.99840  0.83450  0.79180  1.0000 0.1566670973
H   H45       1.0  0.83610  0.00160  0.79180  1.0000 0.1566670973
H   H46       1.0  0.83450  0.83610  0.29180  1.0000 0.1566670973
H   H47       1.0  0.00160  0.16550  0.29180  1.0000 0.1566670973
H   H48       1.0  0.16390  0.99840  0.29180  1.0000 0.1566670973
H   H49       1.0  0.83610  0.83450  0.79180  1.0000 0.1566670973
H   H50       1.0  0.16550  0.00160  0.79180  1.0000 0.1566670973
H   H51       1.0  0.99840  0.16390  0.79180  1.0000 0.1566670973
H   H52       1.0  0.16390  0.16550  0.29180  1.0000 0.1566670973
H   H53       1.0  0.83450  0.99840  0.29180  1.0000 0.1566670973
H   H54       1.0  0.00160  0.83610  0.29180  1.0000 0.1566670973
H   H55       1.0  0.83450  0.83610  0.20820  1.0000 0.1566670973
H   H56       1.0  0.00160  0.16550  0.20820  1.0000 0.1566670973
H   H57       1.0  0.16390  0.99840  0.20820  1.0000 0.1566670973
H   H58       1.0  0.16550  0.16390  0.70820  1.0000 0.1566670973
H   H59       1.0  0.99840  0.83450  0.70820  1.0000 0.1566670973
H   H60       1.0  0.83610  0.00160  0.70820  1.0000 0.1566670973
H   H61       1.0  0.47760  0.23880  0.01590  1.0000 0.1405289211
H   H62       1.0  0.76120  0.23880  0.01590  1.0000 0.1405289211
H   H63       1.0  0.76120  0.52240  0.01590  1.0000 0.1405289211
H   H64       1.0  0.52240  0.76120  0.51590  1.0000 0.1405289211
H   H65       1.0  0.23880  0.76120  0.51590  1.0000 0.1405289211
H   H66       1.0  0.23880  0.47760  0.51590  1.0000 0.1405289211
H   H67       1.0  0.23880  0.47760  0.98410  1.0000 0.1405289211
H   H68       1.0  0.23880  0.76120  0.98410  1.0000 0.1405289211
H   H69       1.0  0.52240  0.76120  0.98410  1.0000 0.1405289211
H   H70       1.0  0.76120  0.52240  0.48410  1.0000 0.1405289211
H   H71       1.0  0.76120  0.23880  0.48410  1.0000 0.1405289211
H   H72       1.0  0.47760  0.23880  0.48410  1.0000 0.1405289211
C   C1        1.0  0.36440  0.11790  0.14211  1.0000 -0.091070303
C   C2        1.0  0.88210  0.24650  0.14211  1.0000 -0.091070303
C   C3        1.0  0.75350  0.63560  0.14211  1.0000 -0.091070303
C   C4        1.0  0.63560  0.88210  0.64211  1.0000 -0.091070303
C   C5        1.0  0.11790  0.75350  0.64211  1.0000 -0.091070303
C   C6        1.0  0.24650  0.36440  0.64211  1.0000 -0.091070303
C   C7        1.0  0.11790  0.36440  0.85789  1.0000 -0.091070303
C   C8        1.0  0.24650  0.88210  0.85789  1.0000 -0.091070303
C   C9        1.0  0.63560  0.75350  0.85789  1.0000 -0.091070303
C   C10       1.0  0.88210  0.63560  0.35789  1.0000 -0.091070303
C   C11       1.0  0.75350  0.11790  0.35789  1.0000 -0.091070303
C   C12       1.0  0.36440  0.24650  0.35789  1.0000 -0.091070303
C   C13       1.0  0.63560  0.88210  0.85789  1.0000 -0.091070303
C   C14       1.0  0.11790  0.75350  0.85789  1.0000 -0.091070303
C   C15       1.0  0.24650  0.36440  0.85789  1.0000 -0.091070303
C   C16       1.0  0.36440  0.11790  0.35789  1.0000 -0.091070303
C   C17       1.0  0.88210  0.24650  0.35789  1.0000 -0.091070303
C   C18       1.0  0.75350  0.63560  0.35789  1.0000 -0.091070303
C   C19       1.0  0.88210  0.63560  0.14211  1.0000 -0.091070303
C   C20       1.0  0.75350  0.11790  0.14211  1.0000 -0.091070303
C   C21       1.0  0.36440  0.24650  0.14211  1.0000 -0.091070303
C   C22       1.0  0.11790  0.36440  0.64211  1.0000 -0.091070303
C   C23       1.0  0.24650  0.88210  0.64211  1.0000 -0.091070303
C   C24       1.0  0.63560  0.75350  0.64211  1.0000 -0.091070303
C   C25       1.0  0.33600  0.16800  0.17090  1.0000 -0.2037796004
C   C26       1.0  0.83200  0.16800  0.17090  1.0000 -0.2037796004
C   C27       1.0  0.83200  0.66400  0.17090  1.0000 -0.2037796004
C   C28       1.0  0.66400  0.83200  0.67090  1.0000 -0.2037796004
C   C29       1.0  0.16800  0.83200  0.67090  1.0000 -0.2037796004
C   C30       1.0  0.16800  0.33600  0.67090  1.0000 -0.2037796004
C   C31       1.0  0.16800  0.33600  0.82910  1.0000 -0.2037796004
C   C32       1.0  0.16800  0.83200  0.82910  1.0000 -0.2037796004
C   C33       1.0  0.66400  0.83200  0.82910  1.0000 -0.2037796004
C   C34       1.0  0.83200  0.66400  0.32910  1.0000 -0.2037796004
C   C35       1.0  0.83200  0.16800  0.32910  1.0000 -0.2037796004
C   C36       1.0  0.33600  0.16800  0.32910  1.0000 -0.2037796004
C   C37       1.0  0.19920  0.18280  0.25000  1.0000 -0.7159618598
C   C38       1.0  0.81720  0.01640  0.25000  1.0000 -0.7159618598
C   C39       1.0  0.98360  0.80080  0.25000  1.0000 -0.7159618598
C   C40       1.0  0.80080  0.81720  0.75000  1.0000 -0.7159618598
C   C41       1.0  0.18280  0.98360  0.75000  1.0000 -0.7159618598
C   C42       1.0  0.01640  0.19920  0.75000  1.0000 -0.7159618598
C   C43       1.0  0.18280  0.19920  0.75000  1.0000 -0.7159618598
C   C44       1.0  0.01640  0.81720  0.75000  1.0000 -0.7159618598
C   C45       1.0  0.80080  0.98360  0.75000  1.0000 -0.7159618598
C   C46       1.0  0.81720  0.80080  0.25000  1.0000 -0.7159618598
C   C47       1.0  0.98360  0.18280  0.25000  1.0000 -0.7159618598
C   C48       1.0  0.19920  0.01640  0.25000  1.0000 -0.7159618598
C   C49       1.0  0.41790  0.14437  0.08494  1.0000 -0.0097612378
C   C50       1.0  0.85563  0.27353  0.08494  1.0000 -0.0097612378
C   C51       1.0  0.72647  0.58210  0.08494  1.0000 -0.0097612378
C   C52       1.0  0.58210  0.85563  0.58494  1.0000 -0.0097612378
C   C53       1.0  0.14437  0.72647  0.58494  1.0000 -0.0097612378
C   C54       1.0  0.27353  0.41790  0.58494  1.0000 -0.0097612378
C   C55       1.0  0.14437  0.41790  0.91506  1.0000 -0.0097612378
C   C56       1.0  0.27353  0.85563  0.91506  1.0000 -0.0097612378
C   C57       1.0  0.58210  0.72647  0.91506  1.0000 -0.0097612378
C   C58       1.0  0.85563  0.58210  0.41506  1.0000 -0.0097612378
C   C59       1.0  0.72647  0.14437  0.41506  1.0000 -0.0097612378
C   C60       1.0  0.41790  0.27353  0.41506  1.0000 -0.0097612378
C   C61       1.0  0.58210  0.85563  0.91506  1.0000 -0.0097612378
C   C62       1.0  0.14437  0.72647  0.91506  1.0000 -0.0097612378
C   C63       1.0  0.27353  0.41790  0.91506  1.0000 -0.0097612378
C   C64       1.0  0.41790  0.14437  0.41506  1.0000 -0.0097612378
C   C65       1.0  0.85563  0.27353  0.41506  1.0000 -0.0097612378
C   C66       1.0  0.72647  0.58210  0.41506  1.0000 -0.0097612378
C   C67       1.0  0.85563  0.58210  0.08494  1.0000 -0.0097612378
C   C68       1.0  0.72647  0.14437  0.08494  1.0000 -0.0097612378
C   C69       1.0  0.41790  0.27353  0.08494  1.0000 -0.0097612378
C   C70       1.0  0.14437  0.41790  0.58494  1.0000 -0.0097612378
C   C71       1.0  0.27353  0.85563  0.58494  1.0000 -0.0097612378
C   C72       1.0  0.58210  0.72647  0.58494  1.0000 -0.0097612378
C   C73       1.0  0.44290  0.22145  0.05610  1.0000 -0.091070303
C   C74       1.0  0.77855  0.22145  0.05610  1.0000 -0.091070303
C   C75       1.0  0.77855  0.55710  0.05610  1.0000 -0.091070303
C   C76       1.0  0.55710  0.77855  0.55610  1.0000 -0.091070303
C   C77       1.0  0.22145  0.77855  0.55610  1.0000 -0.091070303
C   C78       1.0  0.22145  0.44290  0.55610  1.0000 -0.091070303
C   C79       1.0  0.22145  0.44290  0.94390  1.0000 -0.091070303
C   C80       1.0  0.22145  0.77855  0.94390  1.0000 -0.091070303
C   C81       1.0  0.55710  0.77855  0.94390  1.0000 -0.091070303
C   C82       1.0  0.77855  0.55710  0.44390  1.0000 -0.091070303
C   C83       1.0  0.77855  0.22145  0.44390  1.0000 -0.091070303
C   C84       1.0  0.44290  0.22145  0.44390  1.0000 -0.091070303
C   C85       1.0  0.44850  0.09000  0.05402  1.0000 0.5815532941
C   C86       1.0  0.91000  0.35850  0.05402  1.0000 0.5815532941
C   C87       1.0  0.64150  0.55150  0.05402  1.0000 0.5815532941
C   C88       1.0  0.55150  0.91000  0.55402  1.0000 0.5815532941
C   C89       1.0  0.09000  0.64150  0.55402  1.0000 0.5815532941
C   C90       1.0  0.35850  0.44850  0.55402  1.0000 0.5815532941
C   C91       1.0  0.09000  0.44850  0.94598  1.0000 0.5815532941
C   C92       1.0  0.35850  0.91000  0.94598  1.0000 0.5815532941
C   C93       1.0  0.55150  0.64150  0.94598  1.0000 0.5815532941
C   C94       1.0  0.91000  0.55150  0.44598  1.0000 0.5815532941
C   C95       1.0  0.64150  0.09000  0.44598  1.0000 0.5815532941
C   C96       1.0  0.44850  0.35850  0.44598  1.0000 0.5815532941
C   C97       1.0  0.55150  0.91000  0.94598  1.0000 0.5815532941
C   C98       1.0  0.09000  0.64150  0.94598  1.0000 0.5815532941
C   C99       1.0  0.35850  0.44850  0.94598  1.0000 0.5815532941
C   C100      1.0  0.44850  0.09000  0.44598  1.0000 0.5815532941
C   C101      1.0  0.91000  0.35850  0.44598  1.0000 0.5815532941
C   C102      1.0  0.64150  0.55150  0.44598  1.0000 0.5815532941
C   C103      1.0  0.91000  0.55150  0.05402  1.0000 0.5815532941
C   C104      1.0  0.64150  0.09000  0.05402  1.0000 0.5815532941
C   C105      1.0  0.44850  0.35850  0.05402  1.0000 0.5815532941
C   C106      1.0  0.09000  0.44850  0.55402  1.0000 0.5815532941
C   C107      1.0  0.35850  0.91000  0.55402  1.0000 0.5815532941
C   C108      1.0  0.55150  0.64150  0.55402  1.0000 0.5815532941
O   O1        1.0  0.43949  0.02918  0.08988  1.0000 -0.5203911524
O   O2        1.0  0.97082  0.41031  0.08988  1.0000 -0.5203911524
O   O3        1.0  0.58969  0.56051  0.08988  1.0000 -0.5203911524
O   O4        1.0  0.56051  0.97082  0.58988  1.0000 -0.5203911524
O   O5        1.0  0.02918  0.58969  0.58988  1.0000 -0.5203911524
O   O6        1.0  0.41031  0.43949  0.58988  1.0000 -0.5203911524
O   O7        1.0  0.02918  0.43949  0.91012  1.0000 -0.5203911524
O   O8        1.0  0.41031  0.97082  0.91012  1.0000 -0.5203911524
O   O9        1.0  0.56051  0.58969  0.91012  1.0000 -0.5203911524
O   O10       1.0  0.97082  0.56051  0.41012  1.0000 -0.5203911524
O   O11       1.0  0.58969  0.02918  0.41012  1.0000 -0.5203911524
O   O12       1.0  0.43949  0.41031  0.41012  1.0000 -0.5203911524
O   O13       1.0  0.56051  0.97082  0.91012  1.0000 -0.5203911524
O   O14       1.0  0.02918  0.58969  0.91012  1.0000 -0.5203911524
O   O15       1.0  0.41031  0.43949  0.91012  1.0000 -0.5203911524
O   O16       1.0  0.43949  0.02918  0.41012  1.0000 -0.5203911524
O   O17       1.0  0.97082  0.41031  0.41012  1.0000 -0.5203911524
O   O18       1.0  0.58969  0.56051  0.41012  1.0000 -0.5203911524
O   O19       1.0  0.97082  0.56051  0.08988  1.0000 -0.5203911524
O   O20       1.0  0.58969  0.02918  0.08988  1.0000 -0.5203911524
O   O21       1.0  0.43949  0.41031  0.08988  1.0000 -0.5203911524
O   O22       1.0  0.02918  0.43949  0.58988  1.0000 -0.5203911524
O   O23       1.0  0.41031  0.97082  0.58988  1.0000 -0.5203911524
O   O24       1.0  0.56051  0.58969  0.58988  1.0000 -0.5203911524
O   O25       1.0  0.48069  0.10963  0.99466  1.0000 -0.5203911524
O   O26       1.0  0.89037  0.37106  0.99466  1.0000 -0.5203911524
O   O27       1.0  0.62894  0.51931  0.99466  1.0000 -0.5203911524
O   O28       1.0  0.51931  0.89037  0.49466  1.0000 -0.5203911524
O   O29       1.0  0.10963  0.62894  0.49466  1.0000 -0.5203911524
O   O30       1.0  0.37106  0.48069  0.49466  1.0000 -0.5203911524
O   O31       1.0  0.10963  0.48069  0.00534  1.0000 -0.5203911524
O   O32       1.0  0.37106  0.89037  0.00534  1.0000 -0.5203911524
O   O33       1.0  0.51931  0.62894  0.00534  1.0000 -0.5203911524
O   O34       1.0  0.89037  0.51931  0.50534  1.0000 -0.5203911524
O   O35       1.0  0.62894  0.10963  0.50534  1.0000 -0.5203911524
O   O36       1.0  0.48069  0.37106  0.50534  1.0000 -0.5203911524
O   O37       1.0  0.51931  0.89037  0.00534  1.0000 -0.5203911524
O   O38       1.0  0.10963  0.62894  0.00534  1.0000 -0.5203911524
O   O39       1.0  0.37106  0.48069  0.00534  1.0000 -0.5203911524
O   O40       1.0  0.48069  0.10963  0.50534  1.0000 -0.5203911524
O   O41       1.0  0.89037  0.37106  0.50534  1.0000 -0.5203911524
O   O42       1.0  0.62894  0.51931  0.50534  1.0000 -0.5203911524
O   O43       1.0  0.89037  0.51931  0.99466  1.0000 -0.5203911524
O   O44       1.0  0.62894  0.10963  0.99466  1.0000 -0.5203911524
O   O45       1.0  0.48069  0.37106  0.99466  1.0000 -0.5203911524
O   O46       1.0  0.10963  0.48069  0.49466  1.0000 -0.5203911524
O   O47       1.0  0.37106  0.89037  0.49466  1.0000 -0.5203911524
O   O48       1.0  0.51931  0.62894  0.49466  1.0000 -0.5203911524
