# DDEC6 charges by PACMAN v1.1 (https://github.com/mtap-research/PACMAN-charge/)
data_2017[Zn][lon]3[ASR]2
_chemical_formula_sum              "Zn4 H18 C38 N6 O18"
_cell_length_a       10.058
_cell_length_b       16.6
_cell_length_c       14.739
_cell_angle_alpha    90
_cell_angle_beta     94.75
_cell_angle_gamma    90

_symmetry_space_group_name_H-M    "P 1"
_symmetry_Int_Tables_number       1

loop_
  _symmetry_equiv_pos_as_xyz
  'x, y, z'

loop_
  _atom_site_type_symbol
  _atom_site_label
  _atom_site_symmetry_multiplicity
  _atom_site_fract_x
  _atom_site_fract_y
  _atom_site_fract_z
  _atom_site_occupancy
  _atom_site_charge
Zn  Zn1       1.0  0.27478  0.87985  0.55980  1.0000 0.9111937722
Zn  Zn2       1.0  0.47428  0.81403  0.69013  1.0000 0.9172554851
Zn  Zn3       1.0  0.72733  0.38053  0.43298  1.0000 0.9111937722
Zn  Zn4       1.0  0.52665  0.31503  0.30871  1.0000 0.9111937722
H   H1        1.0  0.56636  0.59255  0.52321  1.0000 0.1304661523
H   H2        1.0  0.42976  0.55551  0.23857  1.0000 0.1390046737
H   H3        1.0  0.31678  0.77104  0.38175  1.0000 0.1108780593
H   H4        1.0  0.92428  0.83259  0.65892  1.0000 0.1304661523
H   H5        1.0  0.77732  0.77547  0.91777  1.0000 0.1304661523
H   H6        1.0  0.20649  0.78422  0.89001  1.0000 0.1304661523
H   H7        1.0  0.21300  0.80782  0.04378  1.0000 0.1390046737
H   H8        1.0  0.12465  0.72283  0.28970  1.0000 0.0892219
H   H9        1.0  0.22405  0.80313  0.25314  1.0000 0.0780387983
H   H10       1.0  0.43839  0.09100  0.47772  1.0000 0.1304661523
H   H11       1.0  0.56340  0.05952  0.76487  1.0000 0.1390046737
H   H12       1.0  0.67268  0.27536  0.61999  1.0000 0.1173497677
H   H13       1.0  0.07131  0.32975  0.33753  1.0000 0.1304661523
H   H14       1.0  0.22776  0.27972  0.07978  1.0000 0.1390046737
H   H15       1.0  0.79762  0.28986  0.09740  1.0000 0.1304661523
H   H16       1.0  0.81707  0.29592  0.73451  1.0000 0.1304661523
H   H17       1.0  0.95571  0.36642  0.88386  1.0000 0.1014402002
H   H18       1.0  0.85663  0.37459  0.97903  1.0000 0.0892219
C   C1        1.0  0.58272  0.49345  0.38465  1.0000 0.5895611286
C   C2        1.0  0.50739  0.56908  0.38018  1.0000 -0.0206792046
C   C3        1.0  0.43802  0.68487  0.45890  1.0000 -0.0206792046
C   C4        1.0  0.50882  0.61340  0.46102  1.0000 -0.0968188405
C   C5        1.0  0.36280  0.66542  0.30043  1.0000 0.2556396961
C   C6        1.0  0.43438  0.59309  0.29999  1.0000 -0.178792043
C   C7        1.0  0.36683  0.71291  0.37909  1.0000 -0.2206341088
C   C8        1.0  0.18087  0.81839  0.70949  1.0000 0.6005379399
C   C9        1.0  0.07374  0.81055  0.77065  1.0000 -0.0206792046
C   C10       1.0  0.83895  0.80476  0.78537  1.0000 -0.0097976863
C   C11       1.0  0.94332  0.81790  0.73137  1.0000 -0.0865101278
C   C12       1.0  0.86208  0.78496  0.87719  1.0000 -0.1435774376
C   C13       1.0  0.10225  0.79081  0.86260  1.0000 -0.1592961013
C   C14       1.0  0.99411  0.77805  0.91452  1.0000 0.1485006452
C   C15       1.0  0.44100  0.73269  0.54264  1.0000 0.5818184257
C   C16       1.0  0.70088  0.81290  0.74463  1.0000 0.5589288116
C   C17       1.0  0.09686  0.74549  0.14780  1.0000 0.1390046737
C   C18       1.0  0.12600  0.77602  0.06479  1.0000 -0.1488903969
C   C19       1.0  0.18290  0.74311  0.23357  1.0000 -0.0097976863
C   C20       1.0  0.41990  0.99328  0.61684  1.0000 0.6005379399
C   C21       1.0  0.49463  0.06982  0.62144  1.0000 -0.0097976863
C   C22       1.0  0.56315  0.18531  0.54113  1.0000 -0.0097976863
C   C23       1.0  0.49372  0.11305  0.54022  1.0000 -0.0842815995
C   C24       1.0  0.62510  0.17164  0.70226  1.0000 0.1556355149
C   C25       1.0  0.56213  0.09621  0.70303  1.0000 -0.1435774376
C   C26       1.0  0.62685  0.21589  0.62162  1.0000 -0.1592961013
C   C27       1.0  0.81834  0.31666  0.28406  1.0000 0.6005379399
C   C28       1.0  0.92548  0.30960  0.22244  1.0000 -0.0206792046
C   C29       1.0  0.16232  0.30257  0.21244  1.0000 -0.0097976863
C   C30       1.0  0.05503  0.31580  0.26448  1.0000 -0.109002611
C   C31       1.0  0.14143  0.28765  0.11932  1.0000 -0.1951852202
C   C32       1.0  0.90026  0.29636  0.12828  1.0000 -0.2136232167
C   C33       1.0  0.01140  0.28916  0.07700  1.0000 0.2556396961
C   C34       1.0  0.56180  0.23275  0.45641  1.0000 0.5818184257
C   C35       1.0  0.29948  0.31077  0.25497  1.0000 0.5589288116
C   C36       1.0  0.80152  0.27773  0.88473  1.0000 0.1304661523
C   C37       1.0  0.77723  0.26666  0.79250  1.0000 -0.1696479678
C   C38       1.0  0.90219  0.33171  0.93328  1.0000 -0.0007584217
N   N1        1.0  0.01647  0.75796  0.00771  1.0000 0.1390046737
N   N2        1.0  0.92137  0.71744  0.05373  1.0000 -0.1435774376
N   N3        1.0  0.97239  0.71014  0.13926  1.0000 -0.2206341088
N   N4        1.0  0.68611  0.20530  0.78377  1.0000 0.1390046737
N   N5        1.0  0.65333  0.18018  0.86892  1.0000 -0.1334237069
N   N6        1.0  0.72416  0.22474  0.93001  1.0000 -0.2408113539
O   O1        1.0  0.56682  0.44110  0.32136  1.0000 -0.55525074
O   O2        1.0  0.66625  0.48500  0.45675  1.0000 -0.519948928
O   O3        1.0  0.14023  0.84239  0.62726  1.0000 -0.5440501928
O   O4        1.0  0.29854  0.80050  0.73896  1.0000 -0.519948928
O   O5        1.0  0.60579  0.80130  0.79751  1.0000 -0.519948928
O   O6        1.0  0.41295  0.80968  0.53158  1.0000 -0.5993259012
O   O7        1.0  0.67933  0.83000  0.66021  1.0000 -0.519948928
O   O8        1.0  0.28802  0.68516  0.22125  1.0000 -0.1951852202
O   O9        1.0  0.47416  0.70328  0.62005  1.0000 -0.4819408267
O   O10       1.0  0.43642  0.94130  0.67988  1.0000 -0.5528037309
O   O11       1.0  0.33727  0.98539  0.54409  1.0000 -0.519948928
O   O12       1.0  0.85992  0.34077  0.36645  1.0000 -0.5440501928
O   O13       1.0  0.69999  0.29939  0.25604  1.0000 -0.519948928
O   O14       1.0  0.39476  0.30045  0.20277  1.0000 -0.519948928
O   O15       1.0  0.59324  0.30877  0.46854  1.0000 -0.5993259012
O   O16       1.0  0.32033  0.32837  0.33939  1.0000 -0.519948928
O   O17       1.0  0.52715  0.20306  0.37964  1.0000 -0.4819408267
O   O18       1.0  0.00421  0.28409  0.98379  1.0000 -0.178792043
