# DDEC6 charges by PACMAN v1.1 (https://github.com/mtap-research/PACMAN-charge/)
data_2017[Zn][nan]3[ASR]30
_chemical_formula_sum              "Zn8 H40 C88 N4 O32"
_cell_length_a       13.166
_cell_length_b       13.678
_cell_length_c       27.32
_cell_angle_alpha    90
_cell_angle_beta     109.44
_cell_angle_gamma    90

_symmetry_space_group_name_H-M    "P 1"
_symmetry_Int_Tables_number       1

loop_
  _symmetry_equiv_pos_as_xyz
  'x, y, z'

loop_
  _atom_site_type_symbol
  _atom_site_label
  _atom_site_symmetry_multiplicity
  _atom_site_fract_x
  _atom_site_fract_y
  _atom_site_fract_z
  _atom_site_occupancy
  _atom_site_charge
Zn  Zn1       1.0  0.48502  0.52998  0.86625  1.0000 0.9212947293
Zn  Zn2       1.0  0.28759  0.67740  0.78167  1.0000 0.9877680644
Zn  Zn3       1.0  0.51498  0.02998  0.63375  1.0000 0.9212947293
Zn  Zn4       1.0  0.71241  0.17740  0.71833  1.0000 0.9877680644
Zn  Zn5       1.0  0.51498  0.47002  0.13375  1.0000 0.9212947293
Zn  Zn6       1.0  0.71241  0.32260  0.21833  1.0000 0.9877680644
Zn  Zn7       1.0  0.48502  0.97002  0.36625  1.0000 0.9212947293
Zn  Zn8       1.0  0.28759  0.82260  0.28167  1.0000 0.9877680644
H   H1        1.0  0.18980  0.46620  0.67700  1.0000 0.119579184
H   H2        1.0  0.28020  0.24610  0.60880  1.0000 0.1294291123
H   H3        1.0  0.47370  0.33830  0.74550  1.0000 0.1477817326
H   H4        1.0  0.15450  0.48990  0.56650  1.0000 0.119579184
H   H5        1.0  0.86450  0.39580  0.48240  1.0000 0.119579184
H   H6        1.0  0.82250  0.20660  0.45880  1.0000 0.119579184
H   H7        1.0  0.61930  0.07210  0.51310  1.0000 0.142617642
H   H8        1.0  0.84510  0.24670  0.60620  1.0000 0.119579184
H   H9        1.0  0.11470  0.20540  0.63920  1.0000 0.2872706457
H   H10       1.0  0.00520  0.16920  0.60870  1.0000 0.2787950739
H   H11       1.0  0.81020  0.96620  0.82300  1.0000 0.119579184
H   H12       1.0  0.71980  0.74610  0.89120  1.0000 0.1294291123
H   H13       1.0  0.52630  0.83830  0.75450  1.0000 0.1477817326
H   H14       1.0  0.84550  0.98990  0.93350  1.0000 0.119579184
H   H15       1.0  0.13550  0.89580  0.01760  1.0000 0.119579184
H   H16       1.0  0.17750  0.70660  0.04120  1.0000 0.119579184
H   H17       1.0  0.38070  0.57210  0.98690  1.0000 0.142617642
H   H18       1.0  0.15490  0.74670  0.89380  1.0000 0.119579184
H   H19       1.0  0.88530  0.70540  0.86080  1.0000 0.2872706457
H   H20       1.0  0.99480  0.66920  0.89130  1.0000 0.2787950739
H   H21       1.0  0.81020  0.53380  0.32300  1.0000 0.119579184
H   H22       1.0  0.71980  0.75390  0.39120  1.0000 0.1294291123
H   H23       1.0  0.52630  0.66170  0.25450  1.0000 0.1477817326
H   H24       1.0  0.84550  0.51010  0.43350  1.0000 0.119579184
H   H25       1.0  0.13550  0.60420  0.51760  1.0000 0.119579184
H   H26       1.0  0.17750  0.79340  0.54120  1.0000 0.119579184
H   H27       1.0  0.38070  0.92790  0.48690  1.0000 0.142617642
H   H28       1.0  0.15490  0.75330  0.39380  1.0000 0.119579184
H   H29       1.0  0.88530  0.79460  0.36080  1.0000 0.2872706457
H   H30       1.0  0.99480  0.83080  0.39130  1.0000 0.2787950739
H   H31       1.0  0.18980  0.03380  0.17700  1.0000 0.119579184
H   H32       1.0  0.28020  0.25390  0.10880  1.0000 0.1294291123
H   H33       1.0  0.47370  0.16170  0.24550  1.0000 0.1477817326
H   H34       1.0  0.15450  0.01010  0.06650  1.0000 0.119579184
H   H35       1.0  0.86450  0.10420  0.98240  1.0000 0.119579184
H   H36       1.0  0.82250  0.29340  0.95880  1.0000 0.119579184
H   H37       1.0  0.61930  0.42790  0.01310  1.0000 0.142617642
H   H38       1.0  0.84510  0.25330  0.10620  1.0000 0.119579184
H   H39       1.0  0.11470  0.29460  0.13920  1.0000 0.2872706457
H   H40       1.0  0.00520  0.33080  0.10870  1.0000 0.2787950739
C   C1        1.0  0.35550  0.47940  0.76410  1.0000 0.6008103892
C   C2        1.0  0.33650  0.41220  0.71930  1.0000 -0.0378203102
C   C3        1.0  0.24000  0.41840  0.67700  1.0000 -0.150965751
C   C4        1.0  0.21930  0.35640  0.63690  1.0000 0.0613431016
C   C5        1.0  0.29420  0.28880  0.63680  1.0000 -0.150965751
C   C6        1.0  0.39060  0.28120  0.67700  1.0000 -0.0234321476
C   C7        1.0  0.40950  0.34320  0.71790  1.0000 -0.0944535964
C   C8        1.0  0.46940  0.20290  0.67400  1.0000 0.6008103892
C   C9        1.0  0.11590  0.36540  0.59110  1.0000 -0.0106369481
C   C10       1.0  0.10040  0.44300  0.55960  1.0000 -0.1811755196
C   C11       1.0  0.00680  0.45740  0.51670  1.0000 0.0613431016
C   C12       1.0  0.92890  0.38840  0.50980  1.0000 -0.1811755196
C   C13       1.0  0.94140  0.30800  0.54140  1.0000 -0.0106369481
C   C14       1.0  0.03840  0.29480  0.58310  1.0000 0.1591857626
C   C15       1.0  0.84970  0.23860  0.53370  1.0000 0.0613431016
C   C16       1.0  0.79810  0.19380  0.48640  1.0000 -0.150965751
C   C17       1.0  0.71280  0.13170  0.47860  1.0000 -0.0295273688
C   C18       1.0  0.67760  0.11380  0.51800  1.0000 -0.1065364227
C   C19       1.0  0.72680  0.15670  0.56670  1.0000 -0.0295273688
C   C20       1.0  0.81210  0.21830  0.57390  1.0000 -0.150965751
C   C21       1.0  0.65830  0.08860  0.42690  1.0000 0.555316846
C   C22       1.0  0.68550  0.13490  0.60980  1.0000 0.6108096048
C   C23       1.0  0.64450  0.97940  0.73590  1.0000 0.6008103892
C   C24       1.0  0.66350  0.91220  0.78070  1.0000 -0.0378203102
C   C25       1.0  0.76000  0.91840  0.82300  1.0000 -0.150965751
C   C26       1.0  0.78070  0.85640  0.86310  1.0000 0.0613431016
C   C27       1.0  0.70580  0.78880  0.86320  1.0000 -0.150965751
C   C28       1.0  0.60940  0.78120  0.82300  1.0000 -0.0234321476
C   C29       1.0  0.59050  0.84320  0.78210  1.0000 -0.0944535964
C   C30       1.0  0.53060  0.70290  0.82600  1.0000 0.6008103892
C   C31       1.0  0.88410  0.86540  0.90890  1.0000 -0.0106369481
C   C32       1.0  0.89960  0.94300  0.94040  1.0000 -0.1811755196
C   C33       1.0  0.99320  0.95740  0.98330  1.0000 0.0613431016
C   C34       1.0  0.07110  0.88840  0.99020  1.0000 -0.1811755196
C   C35       1.0  0.05860  0.80800  0.95860  1.0000 -0.0106369481
C   C36       1.0  0.96160  0.79480  0.91690  1.0000 0.1591857626
C   C37       1.0  0.15030  0.73860  0.96630  1.0000 0.0613431016
C   C38       1.0  0.20190  0.69380  0.01360  1.0000 -0.150965751
C   C39       1.0  0.28720  0.63170  0.02140  1.0000 -0.0295273688
C   C40       1.0  0.32240  0.61380  0.98200  1.0000 -0.1065364227
C   C41       1.0  0.27320  0.65670  0.93330  1.0000 -0.0295273688
C   C42       1.0  0.18790  0.71830  0.92610  1.0000 -0.150965751
C   C43       1.0  0.34170  0.58860  0.07310  1.0000 0.555316846
C   C44       1.0  0.31450  0.63490  0.89020  1.0000 0.6108096048
C   C45       1.0  0.64450  0.52060  0.23590  1.0000 0.6008103892
C   C46       1.0  0.66350  0.58780  0.28070  1.0000 -0.0378203102
C   C47       1.0  0.76000  0.58160  0.32300  1.0000 -0.150965751
C   C48       1.0  0.78070  0.64360  0.36310  1.0000 0.0613431016
C   C49       1.0  0.70580  0.71120  0.36320  1.0000 -0.150965751
C   C50       1.0  0.60940  0.71880  0.32300  1.0000 -0.0234321476
C   C51       1.0  0.59050  0.65680  0.28210  1.0000 -0.0944535964
C   C52       1.0  0.53060  0.79710  0.32600  1.0000 0.6008103892
C   C53       1.0  0.88410  0.63460  0.40890  1.0000 -0.0106369481
C   C54       1.0  0.89960  0.55700  0.44040  1.0000 -0.1811755196
C   C55       1.0  0.99320  0.54260  0.48330  1.0000 0.0613431016
C   C56       1.0  0.07110  0.61160  0.49020  1.0000 -0.1811755196
C   C57       1.0  0.05860  0.69200  0.45860  1.0000 -0.0106369481
C   C58       1.0  0.96160  0.70520  0.41690  1.0000 0.1591857626
C   C59       1.0  0.15030  0.76140  0.46630  1.0000 0.0613431016
C   C60       1.0  0.20190  0.80620  0.51360  1.0000 -0.150965751
C   C61       1.0  0.28720  0.86830  0.52140  1.0000 -0.0295273688
C   C62       1.0  0.32240  0.88620  0.48200  1.0000 -0.1065364227
C   C63       1.0  0.27320  0.84330  0.43330  1.0000 -0.0295273688
C   C64       1.0  0.18790  0.78170  0.42610  1.0000 -0.150965751
C   C65       1.0  0.34170  0.91140  0.57310  1.0000 0.555316846
C   C66       1.0  0.31450  0.86510  0.39020  1.0000 0.6108096048
C   C67       1.0  0.35550  0.02060  0.26410  1.0000 0.6008103892
C   C68       1.0  0.33650  0.08780  0.21930  1.0000 -0.0378203102
C   C69       1.0  0.24000  0.08160  0.17700  1.0000 -0.150965751
C   C70       1.0  0.21930  0.14360  0.13690  1.0000 0.0613431016
C   C71       1.0  0.29420  0.21120  0.13680  1.0000 -0.150965751
C   C72       1.0  0.39060  0.21880  0.17700  1.0000 -0.0234321476
C   C73       1.0  0.40950  0.15680  0.21790  1.0000 -0.0944535964
C   C74       1.0  0.46940  0.29710  0.17400  1.0000 0.6008103892
C   C75       1.0  0.11590  0.13460  0.09110  1.0000 -0.0106369481
C   C76       1.0  0.10040  0.05700  0.05960  1.0000 -0.1811755196
C   C77       1.0  0.00680  0.04260  0.01670  1.0000 0.0613431016
C   C78       1.0  0.92890  0.11160  0.00980  1.0000 -0.1811755196
C   C79       1.0  0.94140  0.19200  0.04140  1.0000 -0.0106369481
C   C80       1.0  0.03840  0.20520  0.08310  1.0000 0.1591857626
C   C81       1.0  0.84970  0.26140  0.03370  1.0000 0.0613431016
C   C82       1.0  0.79810  0.30620  0.98640  1.0000 -0.150965751
C   C83       1.0  0.71280  0.36830  0.97860  1.0000 -0.0295273688
C   C84       1.0  0.67760  0.38620  0.01800  1.0000 -0.1065364227
C   C85       1.0  0.72680  0.34330  0.06670  1.0000 -0.0295273688
C   C86       1.0  0.81210  0.28170  0.07390  1.0000 -0.150965751
C   C87       1.0  0.65830  0.41140  0.92690  1.0000 0.555316846
C   C88       1.0  0.68550  0.36510  0.10980  1.0000 0.6108096048
N   N1        1.0  0.05480  0.21280  0.61430  1.0000 -0.553890203
N   N2        1.0  0.94520  0.71280  0.88570  1.0000 -0.553890203
N   N3        1.0  0.94520  0.78720  0.38570  1.0000 -0.553890203
N   N4        1.0  0.05480  0.28720  0.11430  1.0000 -0.553890203
O   O1        1.0  0.43860  0.46120  0.80249  1.0000 -0.5380923049
O   O2        1.0  0.28940  0.54390  0.76100  1.0000 -0.5645423726
O   O3        1.0  0.56120  0.21040  0.70930  1.0000 -0.5927466945
O   O4        1.0  0.44230  0.14490  0.63890  1.0000 -0.4972873524
O   O5        1.0  0.57350  0.04320  0.42290  1.0000 -0.5200482056
O   O6        1.0  0.69540  0.09690  0.39280  1.0000 -0.5147830442
O   O7        1.0  0.62280  0.06560  0.60470  1.0000 -0.5304142729
O   O8        1.0  0.72310  0.18610  0.65000  1.0000 -0.5832256124
O   O9        1.0  0.56140  0.96120  0.69751  1.0000 -0.5380923049
O   O10       1.0  0.71060  0.04390  0.73900  1.0000 -0.5645423726
O   O11       1.0  0.43880  0.71040  0.79070  1.0000 -0.5927466945
O   O12       1.0  0.55770  0.64490  0.86110  1.0000 -0.4972873524
O   O13       1.0  0.42650  0.54320  0.07710  1.0000 -0.5200482056
O   O14       1.0  0.30460  0.59690  0.10720  1.0000 -0.5147830442
O   O15       1.0  0.37720  0.56560  0.89530  1.0000 -0.5304142729
O   O16       1.0  0.27690  0.68610  0.85000  1.0000 -0.5832256124
O   O17       1.0  0.56140  0.53880  0.19751  1.0000 -0.5380923049
O   O18       1.0  0.71060  0.45610  0.23900  1.0000 -0.5645423726
O   O19       1.0  0.43880  0.78960  0.29070  1.0000 -0.5927466945
O   O20       1.0  0.55770  0.85510  0.36110  1.0000 -0.4972873524
O   O21       1.0  0.42650  0.95680  0.57710  1.0000 -0.5200482056
O   O22       1.0  0.30460  0.90310  0.60720  1.0000 -0.5147830442
O   O23       1.0  0.37720  0.93440  0.39530  1.0000 -0.5304142729
O   O24       1.0  0.27690  0.81390  0.35000  1.0000 -0.5832256124
O   O25       1.0  0.43860  0.03880  0.30249  1.0000 -0.5380923049
O   O26       1.0  0.28940  0.95610  0.26100  1.0000 -0.5645423726
O   O27       1.0  0.56120  0.28960  0.20930  1.0000 -0.5927466945
O   O28       1.0  0.44230  0.35510  0.13890  1.0000 -0.4972873524
O   O29       1.0  0.57350  0.45680  0.92290  1.0000 -0.5200482056
O   O30       1.0  0.69540  0.40310  0.89280  1.0000 -0.5147830442
O   O31       1.0  0.62280  0.43440  0.10470  1.0000 -0.5304142729
O   O32       1.0  0.72310  0.31390  0.15000  1.0000 -0.5832256124
