# DDEC6 charges by PACMAN v1.1 (https://github.com/mtap-research/PACMAN-charge/)
data_2017[Cd][nan]3[ASR]6
_chemical_formula_sum              "Cd32 H152 C224 N72 O96"
_cell_length_a       14.3533
_cell_length_b       19.9026
_cell_length_c       37.941
_cell_angle_alpha    90
_cell_angle_beta     90
_cell_angle_gamma    90

_symmetry_space_group_name_H-M    "P 1"
_symmetry_Int_Tables_number       1

loop_
  _symmetry_equiv_pos_as_xyz
  'x, y, z'

loop_
  _atom_site_type_symbol
  _atom_site_label
  _atom_site_symmetry_multiplicity
  _atom_site_fract_x
  _atom_site_fract_y
  _atom_site_fract_z
  _atom_site_occupancy
  _atom_site_charge
Cd  Cd1       1.0  0.50153  0.23933  0.61576  1.0000 0.8300681851
Cd  Cd2       1.0  0.00153  0.26067  0.88424  1.0000 0.8300681851
Cd  Cd3       1.0  0.49847  0.26067  0.11576  1.0000 0.8300681851
Cd  Cd4       1.0  0.99847  0.23933  0.38424  1.0000 0.8300681851
Cd  Cd5       1.0  0.49847  0.76067  0.38424  1.0000 0.8300681851
Cd  Cd6       1.0  0.99847  0.73933  0.11576  1.0000 0.8300681851
Cd  Cd7       1.0  0.50153  0.73933  0.88424  1.0000 0.8300681851
Cd  Cd8       1.0  0.00153  0.76067  0.61576  1.0000 0.8300681851
Cd  Cd9       1.0  0.75122  0.18304  0.24773  1.0000 0.9320028938
Cd  Cd10      1.0  0.25122  0.31696  0.25227  1.0000 0.9320028938
Cd  Cd11      1.0  0.24878  0.31696  0.74773  1.0000 0.9320028938
Cd  Cd12      1.0  0.74878  0.18304  0.75227  1.0000 0.9320028938
Cd  Cd13      1.0  0.24878  0.81696  0.75227  1.0000 0.9320028938
Cd  Cd14      1.0  0.74878  0.68304  0.74773  1.0000 0.9320028938
Cd  Cd15      1.0  0.75122  0.68304  0.25227  1.0000 0.9320028938
Cd  Cd16      1.0  0.25122  0.81696  0.24773  1.0000 0.9320028938
Cd  Cd17      1.0  0.41037  0.29005  0.32394  1.0000 0.924179881
Cd  Cd18      1.0  0.91037  0.20995  0.17606  1.0000 0.924179881
Cd  Cd19      1.0  0.58963  0.20995  0.82394  1.0000 0.924179881
Cd  Cd20      1.0  0.08963  0.29005  0.67606  1.0000 0.924179881
Cd  Cd21      1.0  0.58963  0.70995  0.67606  1.0000 0.924179881
Cd  Cd22      1.0  0.08963  0.79005  0.82394  1.0000 0.924179881
Cd  Cd23      1.0  0.41037  0.79005  0.17606  1.0000 0.924179881
Cd  Cd24      1.0  0.91037  0.70995  0.32394  1.0000 0.924179881
Cd  Cd25      1.0  0.58817  0.17015  0.31985  1.0000 0.9320028938
Cd  Cd26      1.0  0.08817  0.32985  0.18015  1.0000 0.9320028938
Cd  Cd27      1.0  0.41183  0.32985  0.81985  1.0000 0.9320028938
Cd  Cd28      1.0  0.91183  0.17015  0.68015  1.0000 0.9320028938
Cd  Cd29      1.0  0.41183  0.82985  0.68015  1.0000 0.9320028938
Cd  Cd30      1.0  0.91183  0.67015  0.81985  1.0000 0.9320028938
Cd  Cd31      1.0  0.58817  0.67015  0.18015  1.0000 0.9320028938
Cd  Cd32      1.0  0.08817  0.82985  0.31985  1.0000 0.9320028938
H   H1        1.0  0.35400  0.14100  0.20960  1.0000 0.1110884142
H   H2        1.0  0.85400  0.35900  0.29040  1.0000 0.1110884142
H   H3        1.0  0.64600  0.35900  0.70960  1.0000 0.1110884142
H   H4        1.0  0.14600  0.14100  0.79040  1.0000 0.1110884142
H   H5        1.0  0.64600  0.85900  0.79040  1.0000 0.1110884142
H   H6        1.0  0.14600  0.64100  0.70960  1.0000 0.1110884142
H   H7        1.0  0.35400  0.64100  0.29040  1.0000 0.1110884142
H   H8        1.0  0.85400  0.85900  0.20960  1.0000 0.1110884142
H   H9        1.0  0.40700  0.29420  0.43840  1.0000 0.1110884142
H   H10       1.0  0.90700  0.20580  0.06160  1.0000 0.1110884142
H   H11       1.0  0.59300  0.20580  0.93840  1.0000 0.1110884142
H   H12       1.0  0.09300  0.29420  0.56160  1.0000 0.1110884142
H   H13       1.0  0.59300  0.70580  0.56160  1.0000 0.1110884142
H   H14       1.0  0.09300  0.79420  0.93840  1.0000 0.1110884142
H   H15       1.0  0.40700  0.79420  0.06160  1.0000 0.1110884142
H   H16       1.0  0.90700  0.70580  0.43840  1.0000 0.1110884142
H   H17       1.0  0.40670  0.05050  0.30120  1.0000 0.128480951
H   H18       1.0  0.90670  0.44950  0.19880  1.0000 0.128480951
H   H19       1.0  0.59330  0.44950  0.80120  1.0000 0.128480951
H   H20       1.0  0.09330  0.05050  0.69880  1.0000 0.128480951
H   H21       1.0  0.59330  0.94950  0.69880  1.0000 0.128480951
H   H22       1.0  0.09330  0.55050  0.80120  1.0000 0.128480951
H   H23       1.0  0.40670  0.55050  0.19880  1.0000 0.128480951
H   H24       1.0  0.90670  0.94950  0.30120  1.0000 0.128480951
H   H25       1.0  0.40130  0.94780  0.27380  1.0000 0.1208738981
H   H26       1.0  0.90130  0.55220  0.22620  1.0000 0.1208738981
H   H27       1.0  0.59870  0.55220  0.77380  1.0000 0.1208738981
H   H28       1.0  0.09870  0.94780  0.72620  1.0000 0.1208738981
H   H29       1.0  0.59870  0.05220  0.72620  1.0000 0.1208738981
H   H30       1.0  0.09870  0.44780  0.77380  1.0000 0.1208738981
H   H31       1.0  0.40130  0.44780  0.22620  1.0000 0.1208738981
H   H32       1.0  0.90130  0.05220  0.27380  1.0000 0.1208738981
H   H33       1.0  0.93470  0.20180  0.30130  1.0000 0.1110884142
H   H34       1.0  0.43470  0.29820  0.19870  1.0000 0.1110884142
H   H35       1.0  0.06530  0.29820  0.80130  1.0000 0.1110884142
H   H36       1.0  0.56530  0.20180  0.69870  1.0000 0.1110884142
H   H37       1.0  0.06530  0.79820  0.69870  1.0000 0.1110884142
H   H38       1.0  0.56530  0.70180  0.80130  1.0000 0.1110884142
H   H39       1.0  0.93470  0.70180  0.19870  1.0000 0.1110884142
H   H40       1.0  0.43470  0.79820  0.30130  1.0000 0.1110884142
H   H41       1.0  0.59360  0.14610  0.43940  1.0000 0.1208738981
H   H42       1.0  0.09360  0.35390  0.06060  1.0000 0.1208738981
H   H43       1.0  0.40640  0.35390  0.93940  1.0000 0.1208738981
H   H44       1.0  0.90640  0.14610  0.56060  1.0000 0.1208738981
H   H45       1.0  0.40640  0.85390  0.56060  1.0000 0.1208738981
H   H46       1.0  0.90640  0.64610  0.93940  1.0000 0.1208738981
H   H47       1.0  0.59360  0.64610  0.06060  1.0000 0.1208738981
H   H48       1.0  0.09360  0.85390  0.43940  1.0000 0.1208738981
H   H49       1.0  0.59760  0.15060  0.50030  1.0000 0.128480951
H   H50       1.0  0.09760  0.34940  0.99970  1.0000 0.128480951
H   H51       1.0  0.40240  0.34940  0.00030  1.0000 0.128480951
H   H52       1.0  0.90240  0.15060  0.49970  1.0000 0.128480951
H   H53       1.0  0.40240  0.84940  0.49970  1.0000 0.128480951
H   H54       1.0  0.90240  0.65060  0.00030  1.0000 0.128480951
H   H55       1.0  0.59760  0.65060  0.99970  1.0000 0.128480951
H   H56       1.0  0.09760  0.84940  0.50030  1.0000 0.128480951
H   H57       1.0  0.63510  0.52020  0.28440  1.0000 0.1208738981
H   H58       1.0  0.13510  0.97980  0.21560  1.0000 0.1208738981
H   H59       1.0  0.36490  0.97980  0.78440  1.0000 0.1208738981
H   H60       1.0  0.86490  0.52020  0.71560  1.0000 0.1208738981
H   H61       1.0  0.36490  0.47980  0.71560  1.0000 0.1208738981
H   H62       1.0  0.86490  0.02020  0.78440  1.0000 0.1208738981
H   H63       1.0  0.63510  0.02020  0.21560  1.0000 0.1208738981
H   H64       1.0  0.13510  0.47980  0.28440  1.0000 0.1208738981
H   H65       1.0  0.36340  0.03830  0.18120  1.0000 0.1208738981
H   H66       1.0  0.86340  0.46170  0.31880  1.0000 0.1208738981
H   H67       1.0  0.63660  0.46170  0.68120  1.0000 0.1208738981
H   H68       1.0  0.13660  0.03830  0.81880  1.0000 0.1208738981
H   H69       1.0  0.63660  0.96170  0.81880  1.0000 0.1208738981
H   H70       1.0  0.13660  0.53830  0.68120  1.0000 0.1208738981
H   H71       1.0  0.36340  0.53830  0.31880  1.0000 0.1208738981
H   H72       1.0  0.86340  0.96170  0.18120  1.0000 0.1208738981
H   H73       1.0  0.62610  0.32650  0.21810  1.0000 0.1208738981
H   H74       1.0  0.12610  0.17350  0.28190  1.0000 0.1208738981
H   H75       1.0  0.37390  0.17350  0.71810  1.0000 0.1208738981
H   H76       1.0  0.87390  0.32650  0.78190  1.0000 0.1208738981
H   H77       1.0  0.37390  0.67350  0.78190  1.0000 0.1208738981
H   H78       1.0  0.87390  0.82650  0.71810  1.0000 0.1208738981
H   H79       1.0  0.62610  0.82650  0.28190  1.0000 0.1208738981
H   H80       1.0  0.12610  0.67350  0.21810  1.0000 0.1208738981
H   H81       1.0  0.61670  0.41860  0.31170  1.0000 0.128480951
H   H82       1.0  0.11670  0.08140  0.18830  1.0000 0.128480951
H   H83       1.0  0.38330  0.08140  0.81170  1.0000 0.128480951
H   H84       1.0  0.88330  0.41860  0.68830  1.0000 0.128480951
H   H85       1.0  0.38330  0.58140  0.68830  1.0000 0.128480951
H   H86       1.0  0.88330  0.91860  0.81170  1.0000 0.128480951
H   H87       1.0  0.61670  0.91860  0.18830  1.0000 0.128480951
H   H88       1.0  0.11670  0.58140  0.31170  1.0000 0.128480951
H   H89       1.0  0.40750  0.29450  0.49910  1.0000 0.128480951
H   H90       1.0  0.90750  0.20550  0.00090  1.0000 0.128480951
H   H91       1.0  0.59250  0.20550  0.99910  1.0000 0.128480951
H   H92       1.0  0.09250  0.29450  0.50090  1.0000 0.128480951
H   H93       1.0  0.59250  0.70550  0.50090  1.0000 0.128480951
H   H94       1.0  0.09250  0.79450  0.99910  1.0000 0.128480951
H   H95       1.0  0.40750  0.79450  0.00090  1.0000 0.128480951
H   H96       1.0  0.90750  0.70550  0.49910  1.0000 0.128480951
H   H97       1.0  0.63110  0.42880  0.19020  1.0000 0.1208738981
H   H98       1.0  0.13110  0.07120  0.30980  1.0000 0.1208738981
H   H99       1.0  0.36890  0.07120  0.69020  1.0000 0.1208738981
H   H100      1.0  0.86890  0.42880  0.80980  1.0000 0.1208738981
H   H101      1.0  0.36890  0.57120  0.80980  1.0000 0.1208738981
H   H102      1.0  0.86890  0.92880  0.69020  1.0000 0.1208738981
H   H103      1.0  0.63110  0.92880  0.30980  1.0000 0.1208738981
H   H104      1.0  0.13110  0.57120  0.19020  1.0000 0.1208738981
H   H105      1.0  0.04560  0.34270  0.28100  1.0000 0.317367687
H   H106      1.0  0.54560  0.15730  0.21900  1.0000 0.317367687
H   H107      1.0  0.95440  0.15730  0.78100  1.0000 0.317367687
H   H108      1.0  0.45440  0.34270  0.71900  1.0000 0.317367687
H   H109      1.0  0.95440  0.65730  0.71900  1.0000 0.317367687
H   H110      1.0  0.45440  0.84270  0.78100  1.0000 0.317367687
H   H111      1.0  0.04560  0.84270  0.21900  1.0000 0.317367687
H   H112      1.0  0.54560  0.65730  0.28100  1.0000 0.317367687
H   H113      1.0  0.98480  0.32280  0.31110  1.0000 0.2795689023
H   H114      1.0  0.48480  0.17720  0.18890  1.0000 0.2795689023
H   H115      1.0  0.01520  0.17720  0.81110  1.0000 0.2795689023
H   H116      1.0  0.51520  0.32280  0.68890  1.0000 0.2795689023
H   H117      1.0  0.01520  0.67720  0.68890  1.0000 0.2795689023
H   H118      1.0  0.51520  0.82280  0.81110  1.0000 0.2795689023
H   H119      1.0  0.98480  0.82280  0.18890  1.0000 0.2795689023
H   H120      1.0  0.48480  0.67720  0.31110  1.0000 0.2795689023
H   H121      1.0  0.70460  0.18270  0.39690  1.0000 0.3146020166
H   H122      1.0  0.20460  0.31730  0.10310  1.0000 0.3146020166
H   H123      1.0  0.29540  0.31730  0.89690  1.0000 0.3146020166
H   H124      1.0  0.79540  0.18270  0.60310  1.0000 0.3146020166
H   H125      1.0  0.29540  0.81730  0.60310  1.0000 0.3146020166
H   H126      1.0  0.79540  0.68270  0.89690  1.0000 0.3146020166
H   H127      1.0  0.70460  0.68270  0.10310  1.0000 0.3146020166
H   H128      1.0  0.20460  0.81730  0.39690  1.0000 0.3146020166
H   H129      1.0  0.80020  0.19750  0.41000  1.0000 0.317367687
H   H130      1.0  0.30020  0.30250  0.09000  1.0000 0.317367687
H   H131      1.0  0.19980  0.30250  0.91000  1.0000 0.317367687
H   H132      1.0  0.69980  0.19750  0.59000  1.0000 0.317367687
H   H133      1.0  0.19980  0.80250  0.59000  1.0000 0.317367687
H   H134      1.0  0.69980  0.69750  0.91000  1.0000 0.317367687
H   H135      1.0  0.80020  0.69750  0.09000  1.0000 0.317367687
H   H136      1.0  0.30020  0.80250  0.41000  1.0000 0.317367687
H   H137      1.0  0.29180  0.27020  0.39600  1.0000 0.326727043
H   H138      1.0  0.79180  0.22980  0.10400  1.0000 0.326727043
H   H139      1.0  0.70820  0.22980  0.89600  1.0000 0.326727043
H   H140      1.0  0.20820  0.27020  0.60400  1.0000 0.326727043
H   H141      1.0  0.70820  0.72980  0.60400  1.0000 0.326727043
H   H142      1.0  0.20820  0.77020  0.89600  1.0000 0.326727043
H   H143      1.0  0.29180  0.77020  0.10400  1.0000 0.326727043
H   H144      1.0  0.79180  0.72980  0.39600  1.0000 0.326727043
H   H145      1.0  0.19440  0.26120  0.40870  1.0000 0.326727043
H   H146      1.0  0.69440  0.23880  0.09130  1.0000 0.326727043
H   H147      1.0  0.80560  0.23880  0.90870  1.0000 0.326727043
H   H148      1.0  0.30560  0.26120  0.59130  1.0000 0.326727043
H   H149      1.0  0.80560  0.73880  0.59130  1.0000 0.326727043
H   H150      1.0  0.30560  0.76120  0.90870  1.0000 0.326727043
H   H151      1.0  0.19440  0.76120  0.09130  1.0000 0.326727043
H   H152      1.0  0.69440  0.73880  0.40870  1.0000 0.326727043
C   C1        1.0  0.20320  0.27890  0.36090  1.0000 0.5000590078
C   C2        1.0  0.70320  0.22110  0.13910  1.0000 0.5000590078
C   C3        1.0  0.79680  0.22110  0.86090  1.0000 0.5000590078
C   C4        1.0  0.29680  0.27890  0.63910  1.0000 0.5000590078
C   C5        1.0  0.79680  0.72110  0.63910  1.0000 0.5000590078
C   C6        1.0  0.29680  0.77890  0.86090  1.0000 0.5000590078
C   C7        1.0  0.20320  0.77890  0.13910  1.0000 0.5000590078
C   C8        1.0  0.70320  0.72110  0.36090  1.0000 0.5000590078
C   C9        1.0  0.36730  0.10230  0.22230  1.0000 -0.1242798771
C   C10       1.0  0.86730  0.39770  0.27770  1.0000 -0.1242798771
C   C11       1.0  0.63270  0.39770  0.72230  1.0000 -0.1242798771
C   C12       1.0  0.13270  0.10230  0.77770  1.0000 -0.1242798771
C   C13       1.0  0.63270  0.89770  0.77770  1.0000 -0.1242798771
C   C14       1.0  0.13270  0.60230  0.72230  1.0000 -0.1242798771
C   C15       1.0  0.36730  0.60230  0.27770  1.0000 -0.1242798771
C   C16       1.0  0.86730  0.89770  0.22230  1.0000 -0.1242798771
C   C17       1.0  0.44500  0.26440  0.45060  1.0000 -0.111047024
C   C18       1.0  0.94500  0.23560  0.04940  1.0000 -0.111047024
C   C19       1.0  0.55500  0.23560  0.95060  1.0000 -0.111047024
C   C20       1.0  0.05500  0.26440  0.54940  1.0000 -0.111047024
C   C21       1.0  0.55500  0.73560  0.54940  1.0000 -0.111047024
C   C22       1.0  0.05500  0.76440  0.95060  1.0000 -0.111047024
C   C23       1.0  0.44500  0.76440  0.04940  1.0000 -0.111047024
C   C24       1.0  0.94500  0.73560  0.45060  1.0000 -0.111047024
C   C25       1.0  0.39670  0.04830  0.27700  1.0000 -0.0931612168
C   C26       1.0  0.89670  0.45170  0.22300  1.0000 -0.0931612168
C   C27       1.0  0.60330  0.45170  0.77700  1.0000 -0.0931612168
C   C28       1.0  0.10330  0.04830  0.72300  1.0000 -0.0931612168
C   C29       1.0  0.60330  0.95170  0.72300  1.0000 -0.0931612168
C   C30       1.0  0.10330  0.54830  0.77700  1.0000 -0.0931612168
C   C31       1.0  0.39670  0.54830  0.22300  1.0000 -0.0931612168
C   C32       1.0  0.89670  0.95170  0.27700  1.0000 -0.0931612168
C   C33       1.0  0.39580  0.98690  0.26050  1.0000 -0.1017700109
C   C34       1.0  0.89580  0.51310  0.23950  1.0000 -0.1017700109
C   C35       1.0  0.60420  0.51310  0.76050  1.0000 -0.1017700109
C   C36       1.0  0.10420  0.98690  0.73950  1.0000 -0.1017700109
C   C37       1.0  0.60420  0.01310  0.73950  1.0000 -0.1017700109
C   C38       1.0  0.10420  0.48690  0.76050  1.0000 -0.1017700109
C   C39       1.0  0.39580  0.48690  0.23950  1.0000 -0.1017700109
C   C40       1.0  0.89580  0.01310  0.26050  1.0000 -0.1017700109
C   C41       1.0  0.62970  0.48470  0.23430  1.0000 -0.0191778019
C   C42       1.0  0.12970  0.01530  0.26570  1.0000 -0.0191778019
C   C43       1.0  0.37030  0.01530  0.73430  1.0000 -0.0191778019
C   C44       1.0  0.87030  0.48470  0.76570  1.0000 -0.0191778019
C   C45       1.0  0.37030  0.51530  0.76570  1.0000 -0.0191778019
C   C46       1.0  0.87030  0.98470  0.73430  1.0000 -0.0191778019
C   C47       1.0  0.62970  0.98470  0.26570  1.0000 -0.0191778019
C   C48       1.0  0.12970  0.51530  0.23430  1.0000 -0.0191778019
C   C49       1.0  0.62520  0.55230  0.21650  1.0000 0.5569046281
C   C50       1.0  0.12520  0.94770  0.28350  1.0000 0.5569046281
C   C51       1.0  0.37480  0.94770  0.71650  1.0000 0.5569046281
C   C52       1.0  0.87480  0.55230  0.78350  1.0000 0.5569046281
C   C53       1.0  0.37480  0.44770  0.78350  1.0000 0.5569046281
C   C54       1.0  0.87480  0.05230  0.71650  1.0000 0.5569046281
C   C55       1.0  0.62520  0.05230  0.28350  1.0000 0.5569046281
C   C56       1.0  0.12520  0.44770  0.21650  1.0000 0.5569046281
C   C57       1.0  0.88210  0.19540  0.31520  1.0000 0.1398443571
C   C58       1.0  0.38210  0.30460  0.18480  1.0000 0.1398443571
C   C59       1.0  0.11790  0.30460  0.81520  1.0000 0.1398443571
C   C60       1.0  0.61790  0.19540  0.68480  1.0000 0.1398443571
C   C61       1.0  0.11790  0.80460  0.68480  1.0000 0.1398443571
C   C62       1.0  0.61790  0.69540  0.81520  1.0000 0.1398443571
C   C63       1.0  0.88210  0.69540  0.18480  1.0000 0.1398443571
C   C64       1.0  0.38210  0.80460  0.31520  1.0000 0.1398443571
C   C65       1.0  0.60410  0.29610  0.28540  1.0000 0.567440658
C   C66       1.0  0.10410  0.20390  0.21460  1.0000 0.567440658
C   C67       1.0  0.39590  0.20390  0.78540  1.0000 0.567440658
C   C68       1.0  0.89590  0.29610  0.71460  1.0000 0.567440658
C   C69       1.0  0.39590  0.70390  0.71460  1.0000 0.567440658
C   C70       1.0  0.89590  0.79610  0.78540  1.0000 0.567440658
C   C71       1.0  0.60410  0.79610  0.21460  1.0000 0.567440658
C   C72       1.0  0.10410  0.70390  0.28540  1.0000 0.567440658
C   C73       1.0  0.79460  0.19170  0.35900  1.0000 0.5000590078
C   C74       1.0  0.29460  0.30830  0.14100  1.0000 0.5000590078
C   C75       1.0  0.20540  0.30830  0.85900  1.0000 0.5000590078
C   C76       1.0  0.70540  0.19170  0.64100  1.0000 0.5000590078
C   C77       1.0  0.20540  0.80830  0.64100  1.0000 0.5000590078
C   C78       1.0  0.70540  0.69170  0.85900  1.0000 0.5000590078
C   C79       1.0  0.79460  0.69170  0.14100  1.0000 0.5000590078
C   C80       1.0  0.29460  0.80830  0.35900  1.0000 0.5000590078
C   C81       1.0  0.38680  0.98290  0.22430  1.0000 -0.0143611229
C   C82       1.0  0.88680  0.51710  0.27570  1.0000 -0.0143611229
C   C83       1.0  0.61320  0.51710  0.72430  1.0000 -0.0143611229
C   C84       1.0  0.11320  0.98290  0.77570  1.0000 -0.0143611229
C   C85       1.0  0.61320  0.01710  0.77570  1.0000 -0.0143611229
C   C86       1.0  0.11320  0.48290  0.72430  1.0000 -0.0143611229
C   C87       1.0  0.38680  0.48290  0.27570  1.0000 -0.0143611229
C   C88       1.0  0.88680  0.01710  0.22430  1.0000 -0.0143611229
C   C89       1.0  0.61850  0.36170  0.26770  1.0000 -0.0191778019
C   C90       1.0  0.11850  0.13830  0.23230  1.0000 -0.0191778019
C   C91       1.0  0.38150  0.13830  0.76770  1.0000 -0.0191778019
C   C92       1.0  0.88150  0.36170  0.73230  1.0000 -0.0191778019
C   C93       1.0  0.38150  0.63830  0.73230  1.0000 -0.0191778019
C   C94       1.0  0.88150  0.86170  0.76770  1.0000 -0.0191778019
C   C95       1.0  0.61850  0.86170  0.23230  1.0000 -0.0191778019
C   C96       1.0  0.11850  0.63830  0.26770  1.0000 -0.0191778019
C   C97       1.0  0.50700  0.22810  0.54560  1.0000 0.5390073127
C   C98       1.0  0.00700  0.27190  0.95440  1.0000 0.5390073127
C   C99       1.0  0.49300  0.27190  0.04560  1.0000 0.5390073127
C   C100      1.0  0.99300  0.22810  0.45440  1.0000 0.5390073127
C   C101      1.0  0.49300  0.77190  0.45440  1.0000 0.5390073127
C   C102      1.0  0.99300  0.72810  0.04560  1.0000 0.5390073127
C   C103      1.0  0.50700  0.72810  0.95440  1.0000 0.5390073127
C   C104      1.0  0.00700  0.77190  0.54560  1.0000 0.5390073127
C   C105      1.0  0.55640  0.17690  0.45130  1.0000 -0.111047024
C   C106      1.0  0.05640  0.32310  0.04870  1.0000 -0.111047024
C   C107      1.0  0.44360  0.32310  0.95130  1.0000 -0.111047024
C   C108      1.0  0.94360  0.17690  0.54870  1.0000 -0.111047024
C   C109      1.0  0.44360  0.82310  0.54870  1.0000 -0.111047024
C   C110      1.0  0.94360  0.67690  0.95130  1.0000 -0.111047024
C   C111      1.0  0.55640  0.67690  0.04870  1.0000 -0.111047024
C   C112      1.0  0.05640  0.82310  0.45130  1.0000 -0.111047024
C   C113      1.0  0.39370  0.91660  0.20620  1.0000 0.5480148486
C   C114      1.0  0.89370  0.58340  0.29380  1.0000 0.5480148486
C   C115      1.0  0.60630  0.58340  0.70620  1.0000 0.5480148486
C   C116      1.0  0.10630  0.91660  0.79380  1.0000 0.5480148486
C   C117      1.0  0.60630  0.08340  0.79380  1.0000 0.5480148486
C   C118      1.0  0.10630  0.41660  0.70620  1.0000 0.5480148486
C   C119      1.0  0.39370  0.41660  0.29380  1.0000 0.5480148486
C   C120      1.0  0.89370  0.08340  0.20620  1.0000 0.5480148486
C   C121      1.0  0.55900  0.17980  0.48790  1.0000 -0.111047024
C   C122      1.0  0.05900  0.32020  0.01210  1.0000 -0.111047024
C   C123      1.0  0.44100  0.32020  0.98790  1.0000 -0.111047024
C   C124      1.0  0.94100  0.17980  0.51210  1.0000 -0.111047024
C   C125      1.0  0.44100  0.82020  0.51210  1.0000 -0.111047024
C   C126      1.0  0.94100  0.67980  0.98790  1.0000 -0.111047024
C   C127      1.0  0.55900  0.67980  0.01210  1.0000 -0.111047024
C   C128      1.0  0.05900  0.82020  0.48790  1.0000 -0.111047024
C   C129      1.0  0.62950  0.48120  0.27110  1.0000 -0.1017700109
C   C130      1.0  0.12950  0.01880  0.22890  1.0000 -0.1017700109
C   C131      1.0  0.37050  0.01880  0.77110  1.0000 -0.1017700109
C   C132      1.0  0.87050  0.48120  0.72890  1.0000 -0.1017700109
C   C133      1.0  0.37050  0.51880  0.72890  1.0000 -0.1017700109
C   C134      1.0  0.87050  0.98120  0.77110  1.0000 -0.1017700109
C   C135      1.0  0.62950  0.98120  0.22890  1.0000 -0.1017700109
C   C136      1.0  0.12950  0.51880  0.27110  1.0000 -0.1017700109
C   C137      1.0  0.50600  0.22450  0.50580  1.0000 -0.0143611229
C   C138      1.0  0.00600  0.27550  0.99420  1.0000 -0.0143611229
C   C139      1.0  0.49400  0.27550  0.00580  1.0000 -0.0143611229
C   C140      1.0  0.99400  0.22450  0.49420  1.0000 -0.0143611229
C   C141      1.0  0.49400  0.77550  0.49420  1.0000 -0.0143611229
C   C142      1.0  0.99400  0.72450  0.00580  1.0000 -0.0143611229
C   C143      1.0  0.50600  0.72450  0.99420  1.0000 -0.0143611229
C   C144      1.0  0.00600  0.77550  0.50580  1.0000 -0.0143611229
C   C145      1.0  0.37130  0.04060  0.20550  1.0000 -0.111047024
C   C146      1.0  0.87130  0.45940  0.29450  1.0000 -0.111047024
C   C147      1.0  0.62870  0.45940  0.70550  1.0000 -0.111047024
C   C148      1.0  0.12870  0.04060  0.79450  1.0000 -0.111047024
C   C149      1.0  0.62870  0.95940  0.79450  1.0000 -0.111047024
C   C150      1.0  0.12870  0.54060  0.70550  1.0000 -0.111047024
C   C151      1.0  0.37130  0.54060  0.29450  1.0000 -0.111047024
C   C152      1.0  0.87130  0.95940  0.20550  1.0000 -0.111047024
C   C153      1.0  0.62470  0.36580  0.23140  1.0000 -0.111047024
C   C154      1.0  0.12470  0.13420  0.26860  1.0000 -0.111047024
C   C155      1.0  0.37530  0.13420  0.73140  1.0000 -0.111047024
C   C156      1.0  0.87530  0.36580  0.76860  1.0000 -0.111047024
C   C157      1.0  0.37530  0.63420  0.76860  1.0000 -0.111047024
C   C158      1.0  0.87530  0.86580  0.73140  1.0000 -0.111047024
C   C159      1.0  0.62470  0.86580  0.26860  1.0000 -0.111047024
C   C160      1.0  0.12470  0.63420  0.23140  1.0000 -0.111047024
C   C161      1.0  0.49920  0.21920  0.43250  1.0000 -0.0492775062
C   C162      1.0  0.99920  0.28080  0.06750  1.0000 -0.0492775062
C   C163      1.0  0.50080  0.28080  0.93250  1.0000 -0.0492775062
C   C164      1.0  0.00080  0.21920  0.56750  1.0000 -0.0492775062
C   C165      1.0  0.50080  0.78080  0.56750  1.0000 -0.0492775062
C   C166      1.0  0.00080  0.71920  0.93250  1.0000 -0.0492775062
C   C167      1.0  0.49920  0.71920  0.06750  1.0000 -0.0492775062
C   C168      1.0  0.99920  0.78080  0.43250  1.0000 -0.0492775062
C   C169      1.0  0.49790  0.21800  0.39340  1.0000 0.5830431796
C   C170      1.0  0.99790  0.28200  0.10660  1.0000 0.5830431796
C   C171      1.0  0.50210  0.28200  0.89340  1.0000 0.5830431796
C   C172      1.0  0.00210  0.21800  0.60660  1.0000 0.5830431796
C   C173      1.0  0.50210  0.78200  0.60660  1.0000 0.5830431796
C   C174      1.0  0.00210  0.71800  0.89340  1.0000 0.5830431796
C   C175      1.0  0.49790  0.71800  0.10660  1.0000 0.5830431796
C   C176      1.0  0.99790  0.78200  0.39340  1.0000 0.5830431796
C   C177      1.0  0.62100  0.42060  0.28730  1.0000 -0.1017700109
C   C178      1.0  0.12100  0.07940  0.21270  1.0000 -0.1017700109
C   C179      1.0  0.37900  0.07940  0.78730  1.0000 -0.1017700109
C   C180      1.0  0.87900  0.42060  0.71270  1.0000 -0.1017700109
C   C181      1.0  0.37900  0.57940  0.71270  1.0000 -0.1017700109
C   C182      1.0  0.87900  0.92060  0.78730  1.0000 -0.1017700109
C   C183      1.0  0.62100  0.92060  0.21270  1.0000 -0.1017700109
C   C184      1.0  0.12100  0.57940  0.28730  1.0000 -0.1017700109
C   C185      1.0  0.11110  0.30720  0.31920  1.0000 0.4884318403
C   C186      1.0  0.61110  0.19280  0.18080  1.0000 0.4884318403
C   C187      1.0  0.88890  0.19280  0.81920  1.0000 0.4884318403
C   C188      1.0  0.38890  0.30720  0.68080  1.0000 0.4884318403
C   C189      1.0  0.88890  0.69280  0.68080  1.0000 0.4884318403
C   C190      1.0  0.38890  0.80720  0.81920  1.0000 0.4884318403
C   C191      1.0  0.11110  0.80720  0.18080  1.0000 0.4884318403
C   C192      1.0  0.61110  0.69280  0.31920  1.0000 0.4884318403
C   C193      1.0  0.38300  0.10620  0.25820  1.0000 -0.0355431036
C   C194      1.0  0.88300  0.39380  0.24180  1.0000 -0.0355431036
C   C195      1.0  0.61700  0.39380  0.75820  1.0000 -0.0355431036
C   C196      1.0  0.11700  0.10620  0.74180  1.0000 -0.0355431036
C   C197      1.0  0.61700  0.89380  0.74180  1.0000 -0.0355431036
C   C198      1.0  0.11700  0.60620  0.75820  1.0000 -0.0355431036
C   C199      1.0  0.38300  0.60620  0.24180  1.0000 -0.0355431036
C   C200      1.0  0.88300  0.89380  0.25820  1.0000 -0.0355431036
C   C201      1.0  0.38490  0.17330  0.27520  1.0000 0.5830431796
C   C202      1.0  0.88490  0.32670  0.22480  1.0000 0.5830431796
C   C203      1.0  0.61510  0.32670  0.77520  1.0000 0.5830431796
C   C204      1.0  0.11510  0.17330  0.72480  1.0000 0.5830431796
C   C205      1.0  0.61510  0.82670  0.72480  1.0000 0.5830431796
C   C206      1.0  0.11510  0.67330  0.77520  1.0000 0.5830431796
C   C207      1.0  0.38490  0.67330  0.22480  1.0000 0.5830431796
C   C208      1.0  0.88490  0.82670  0.27520  1.0000 0.5830431796
C   C209      1.0  0.44700  0.26550  0.48710  1.0000 -0.111047024
C   C210      1.0  0.94700  0.23450  0.01290  1.0000 -0.111047024
C   C211      1.0  0.55300  0.23450  0.98710  1.0000 -0.111047024
C   C212      1.0  0.05300  0.26550  0.51290  1.0000 -0.111047024
C   C213      1.0  0.55300  0.73450  0.51290  1.0000 -0.111047024
C   C214      1.0  0.05300  0.76550  0.98710  1.0000 -0.111047024
C   C215      1.0  0.44700  0.76550  0.01290  1.0000 -0.111047024
C   C216      1.0  0.94700  0.73450  0.48710  1.0000 -0.111047024
C   C217      1.0  0.62890  0.42670  0.21470  1.0000 -0.111047024
C   C218      1.0  0.12890  0.07330  0.28530  1.0000 -0.111047024
C   C219      1.0  0.37110  0.07330  0.71470  1.0000 -0.111047024
C   C220      1.0  0.87110  0.42670  0.78530  1.0000 -0.111047024
C   C221      1.0  0.37110  0.57330  0.78530  1.0000 -0.111047024
C   C222      1.0  0.87110  0.92670  0.71470  1.0000 -0.111047024
C   C223      1.0  0.62890  0.92670  0.28530  1.0000 -0.111047024
C   C224      1.0  0.12890  0.57330  0.21470  1.0000 -0.111047024
N   N1        1.0  0.25720  0.29100  0.33403  1.0000 -0.3488578506
N   N2        1.0  0.75720  0.20900  0.16597  1.0000 -0.3488578506
N   N3        1.0  0.74280  0.20900  0.83403  1.0000 -0.3488578506
N   N4        1.0  0.24280  0.29100  0.66597  1.0000 -0.3488578506
N   N5        1.0  0.74280  0.70900  0.66597  1.0000 -0.3488578506
N   N6        1.0  0.24280  0.79100  0.83403  1.0000 -0.3488578506
N   N7        1.0  0.25720  0.79100  0.16597  1.0000 -0.3488578506
N   N8        1.0  0.75720  0.70900  0.33403  1.0000 -0.3488578506
N   N9        1.0  0.19750  0.31070  0.30699  1.0000 -0.3565767117
N   N10       1.0  0.69750  0.18930  0.19301  1.0000 -0.3565767117
N   N11       1.0  0.80250  0.18930  0.80699  1.0000 -0.3565767117
N   N12       1.0  0.30250  0.31070  0.69301  1.0000 -0.3565767117
N   N13       1.0  0.80250  0.68930  0.69301  1.0000 -0.3565767117
N   N14       1.0  0.30250  0.81070  0.80699  1.0000 -0.3565767117
N   N15       1.0  0.19750  0.81070  0.19301  1.0000 -0.3565767117
N   N16       1.0  0.69750  0.68930  0.30699  1.0000 -0.3565767117
N   N17       1.0  0.11240  0.28680  0.35374  1.0000 -0.5430572761
N   N18       1.0  0.61240  0.21320  0.14626  1.0000 -0.5430572761
N   N19       1.0  0.88760  0.21320  0.85374  1.0000 -0.5430572761
N   N20       1.0  0.38760  0.28680  0.64626  1.0000 -0.5430572761
N   N21       1.0  0.88760  0.71320  0.64626  1.0000 -0.5430572761
N   N22       1.0  0.38760  0.78680  0.85374  1.0000 -0.5430572761
N   N23       1.0  0.11240  0.78680  0.14626  1.0000 -0.5430572761
N   N24       1.0  0.61240  0.71320  0.35374  1.0000 -0.5430572761
N   N25       1.0  0.03930  0.32630  0.30190  1.0000 -0.5698020541
N   N26       1.0  0.53930  0.17370  0.19810  1.0000 -0.5698020541
N   N27       1.0  0.96070  0.17370  0.80190  1.0000 -0.5698020541
N   N28       1.0  0.46070  0.32630  0.69810  1.0000 -0.5698020541
N   N29       1.0  0.96070  0.67370  0.69810  1.0000 -0.5698020541
N   N30       1.0  0.46070  0.82630  0.80190  1.0000 -0.5698020541
N   N31       1.0  0.03930  0.82630  0.19810  1.0000 -0.5698020541
N   N32       1.0  0.53930  0.67370  0.30190  1.0000 -0.5698020541
N   N33       1.0  0.76250  0.19050  0.39280  1.0000 -0.6175332897
N   N34       1.0  0.26250  0.30950  0.10720  1.0000 -0.6175332897
N   N35       1.0  0.23750  0.30950  0.89280  1.0000 -0.6175332897
N   N36       1.0  0.73750  0.19050  0.60720  1.0000 -0.6175332897
N   N37       1.0  0.23750  0.80950  0.60720  1.0000 -0.6175332897
N   N38       1.0  0.73750  0.69050  0.89280  1.0000 -0.6175332897
N   N39       1.0  0.76250  0.69050  0.10720  1.0000 -0.6175332897
N   N40       1.0  0.26250  0.80950  0.39280  1.0000 -0.6175332897
N   N41       1.0  0.74260  0.18150  0.33066  1.0000 -0.3351172515
N   N42       1.0  0.24260  0.31850  0.16934  1.0000 -0.3351172515
N   N43       1.0  0.25740  0.31850  0.83066  1.0000 -0.3351172515
N   N44       1.0  0.75740  0.18150  0.66934  1.0000 -0.3351172515
N   N45       1.0  0.25740  0.81850  0.66934  1.0000 -0.3351172515
N   N46       1.0  0.75740  0.68150  0.83066  1.0000 -0.3351172515
N   N47       1.0  0.74260  0.68150  0.16934  1.0000 -0.3351172515
N   N48       1.0  0.24260  0.81850  0.33066  1.0000 -0.3351172515
N   N49       1.0  0.80290  0.18230  0.30177  1.0000 -0.2293327309
N   N50       1.0  0.30290  0.31770  0.19823  1.0000 -0.2293327309
N   N51       1.0  0.19710  0.31770  0.80177  1.0000 -0.2293327309
N   N52       1.0  0.69710  0.18230  0.69823  1.0000 -0.2293327309
N   N53       1.0  0.19710  0.81770  0.69823  1.0000 -0.2293327309
N   N54       1.0  0.69710  0.68230  0.80177  1.0000 -0.2293327309
N   N55       1.0  0.80290  0.68230  0.19823  1.0000 -0.2293327309
N   N56       1.0  0.30290  0.81770  0.30177  1.0000 -0.2293327309
N   N57       1.0  0.88570  0.19950  0.35060  1.0000 -0.4619313039
N   N58       1.0  0.38570  0.30050  0.14940  1.0000 -0.4619313039
N   N59       1.0  0.11430  0.30050  0.85060  1.0000 -0.4619313039
N   N60       1.0  0.61430  0.19950  0.64940  1.0000 -0.4619313039
N   N61       1.0  0.11430  0.80050  0.64940  1.0000 -0.4619313039
N   N62       1.0  0.61430  0.69950  0.85060  1.0000 -0.4619313039
N   N63       1.0  0.88570  0.69950  0.14940  1.0000 -0.4619313039
N   N64       1.0  0.38570  0.80050  0.35060  1.0000 -0.4619313039
N   N65       1.0  0.23290  0.26910  0.39180  1.0000 -0.5192732372
N   N66       1.0  0.73290  0.23090  0.10820  1.0000 -0.5192732372
N   N67       1.0  0.76710  0.23090  0.89180  1.0000 -0.5192732372
N   N68       1.0  0.26710  0.26910  0.60820  1.0000 -0.5192732372
N   N69       1.0  0.76710  0.73090  0.60820  1.0000 -0.5192732372
N   N70       1.0  0.26710  0.76910  0.89180  1.0000 -0.5192732372
N   N71       1.0  0.23290  0.76910  0.10820  1.0000 -0.5192732372
N   N72       1.0  0.73290  0.73090  0.39180  1.0000 -0.5192732372
O   O1        1.0  0.40610  0.91400  0.17360  1.0000 -0.5110233136
O   O2        1.0  0.90610  0.58600  0.32640  1.0000 -0.5110233136
O   O3        1.0  0.59390  0.58600  0.67360  1.0000 -0.5110233136
O   O4        1.0  0.09390  0.91400  0.82640  1.0000 -0.5110233136
O   O5        1.0  0.59390  0.08600  0.82640  1.0000 -0.5110233136
O   O6        1.0  0.09390  0.41400  0.67360  1.0000 -0.5110233136
O   O7        1.0  0.40610  0.41400  0.32640  1.0000 -0.5110233136
O   O8        1.0  0.90610  0.08600  0.17360  1.0000 -0.5110233136
O   O9        1.0  0.34110  0.22060  0.26240  1.0000 -0.548538179
O   O10       1.0  0.84110  0.27940  0.23760  1.0000 -0.548538179
O   O11       1.0  0.65890  0.27940  0.76240  1.0000 -0.548538179
O   O12       1.0  0.15890  0.22060  0.73760  1.0000 -0.548538179
O   O13       1.0  0.65890  0.77940  0.73760  1.0000 -0.548538179
O   O14       1.0  0.15890  0.72060  0.76240  1.0000 -0.548538179
O   O15       1.0  0.34110  0.72060  0.23760  1.0000 -0.548538179
O   O16       1.0  0.84110  0.77940  0.26240  1.0000 -0.548538179
O   O17       1.0  0.38720  0.86350  0.22399  1.0000 -0.5698020541
O   O18       1.0  0.88720  0.63650  0.27601  1.0000 -0.5698020541
O   O19       1.0  0.61280  0.63650  0.72399  1.0000 -0.5698020541
O   O20       1.0  0.11280  0.86350  0.77601  1.0000 -0.5698020541
O   O21       1.0  0.61280  0.13650  0.77601  1.0000 -0.5698020541
O   O22       1.0  0.11280  0.36350  0.72399  1.0000 -0.5698020541
O   O23       1.0  0.38720  0.36350  0.27601  1.0000 -0.5698020541
O   O24       1.0  0.88720  0.13650  0.22399  1.0000 -0.5698020541
O   O25       1.0  0.43200  0.18050  0.30373  1.0000 -0.5698020541
O   O26       1.0  0.93200  0.31950  0.19627  1.0000 -0.5698020541
O   O27       1.0  0.56800  0.31950  0.80373  1.0000 -0.5698020541
O   O28       1.0  0.06800  0.18050  0.69627  1.0000 -0.5698020541
O   O29       1.0  0.56800  0.81950  0.69627  1.0000 -0.5698020541
O   O30       1.0  0.06800  0.68050  0.80373  1.0000 -0.5698020541
O   O31       1.0  0.43200  0.68050  0.19627  1.0000 -0.5698020541
O   O32       1.0  0.93200  0.81950  0.30373  1.0000 -0.5698020541
O   O33       1.0  0.63960  0.60460  0.23530  1.0000 -0.6139017352
O   O34       1.0  0.13960  0.89540  0.26470  1.0000 -0.6139017352
O   O35       1.0  0.36040  0.89540  0.73530  1.0000 -0.6139017352
O   O36       1.0  0.86040  0.60460  0.76470  1.0000 -0.6139017352
O   O37       1.0  0.36040  0.39540  0.76470  1.0000 -0.6139017352
O   O38       1.0  0.86040  0.10460  0.73530  1.0000 -0.6139017352
O   O39       1.0  0.63960  0.10460  0.26470  1.0000 -0.6139017352
O   O40       1.0  0.13960  0.39540  0.23530  1.0000 -0.6139017352
O   O41       1.0  0.44440  0.26130  0.56080  1.0000 -0.5698020541
O   O42       1.0  0.94440  0.23870  0.93920  1.0000 -0.5698020541
O   O43       1.0  0.55560  0.23870  0.06080  1.0000 -0.5698020541
O   O44       1.0  0.05560  0.26130  0.43920  1.0000 -0.5698020541
O   O45       1.0  0.55560  0.73870  0.43920  1.0000 -0.5698020541
O   O46       1.0  0.05560  0.76130  0.06080  1.0000 -0.5698020541
O   O47       1.0  0.44440  0.76130  0.93920  1.0000 -0.5698020541
O   O48       1.0  0.94440  0.73870  0.56080  1.0000 -0.5698020541
O   O49       1.0  0.59930  0.55630  0.18516  1.0000 -0.5110233136
O   O50       1.0  0.09930  0.94370  0.31484  1.0000 -0.5110233136
O   O51       1.0  0.40070  0.94370  0.68516  1.0000 -0.5110233136
O   O52       1.0  0.90070  0.55630  0.81484  1.0000 -0.5110233136
O   O53       1.0  0.40070  0.44370  0.81484  1.0000 -0.5110233136
O   O54       1.0  0.90070  0.05630  0.68516  1.0000 -0.5110233136
O   O55       1.0  0.59930  0.05630  0.31484  1.0000 -0.5110233136
O   O56       1.0  0.09930  0.44370  0.18516  1.0000 -0.5110233136
O   O57       1.0  0.56730  0.19660  0.56120  1.0000 -0.5430572761
O   O58       1.0  0.06730  0.30340  0.93880  1.0000 -0.5430572761
O   O59       1.0  0.43270  0.30340  0.06120  1.0000 -0.5430572761
O   O60       1.0  0.93270  0.19660  0.43880  1.0000 -0.5430572761
O   O61       1.0  0.43270  0.80340  0.43880  1.0000 -0.5430572761
O   O62       1.0  0.93270  0.69660  0.06120  1.0000 -0.5430572761
O   O63       1.0  0.56730  0.69660  0.93880  1.0000 -0.5430572761
O   O64       1.0  0.06730  0.80340  0.56120  1.0000 -0.5430572761
O   O65       1.0  0.55310  0.17990  0.37739  1.0000 -0.548538179
O   O66       1.0  0.05310  0.32010  0.12261  1.0000 -0.548538179
O   O67       1.0  0.44690  0.32010  0.87739  1.0000 -0.548538179
O   O68       1.0  0.94690  0.17990  0.62261  1.0000 -0.548538179
O   O69       1.0  0.44690  0.82010  0.62261  1.0000 -0.548538179
O   O70       1.0  0.94690  0.67990  0.87739  1.0000 -0.548538179
O   O71       1.0  0.55310  0.67990  0.12261  1.0000 -0.548538179
O   O72       1.0  0.05310  0.82010  0.37739  1.0000 -0.548538179
O   O73       1.0  0.57090  0.29430  0.31630  1.0000 -0.5430572761
O   O74       1.0  0.07090  0.20570  0.18370  1.0000 -0.5430572761
O   O75       1.0  0.42910  0.20570  0.81630  1.0000 -0.5430572761
O   O76       1.0  0.92910  0.29430  0.68370  1.0000 -0.5430572761
O   O77       1.0  0.42910  0.70570  0.68370  1.0000 -0.5430572761
O   O78       1.0  0.92910  0.79430  0.81630  1.0000 -0.5430572761
O   O79       1.0  0.57090  0.79430  0.18370  1.0000 -0.5430572761
O   O80       1.0  0.07090  0.70570  0.31630  1.0000 -0.5430572761
O   O81       1.0  0.44070  0.25720  0.37887  1.0000 -0.5584443964
O   O82       1.0  0.94070  0.24280  0.12113  1.0000 -0.5584443964
O   O83       1.0  0.55930  0.24280  0.87887  1.0000 -0.5584443964
O   O84       1.0  0.05930  0.25720  0.62113  1.0000 -0.5584443964
O   O85       1.0  0.55930  0.74280  0.62113  1.0000 -0.5584443964
O   O86       1.0  0.05930  0.75720  0.87887  1.0000 -0.5584443964
O   O87       1.0  0.44070  0.75720  0.12113  1.0000 -0.5584443964
O   O88       1.0  0.94070  0.74280  0.37887  1.0000 -0.5584443964
O   O89       1.0  0.62090  0.24290  0.26892  1.0000 -0.5584443964
O   O90       1.0  0.12090  0.25710  0.23108  1.0000 -0.5584443964
O   O91       1.0  0.37910  0.25710  0.76892  1.0000 -0.5584443964
O   O92       1.0  0.87910  0.24290  0.73108  1.0000 -0.5584443964
O   O93       1.0  0.37910  0.75710  0.73108  1.0000 -0.5584443964
O   O94       1.0  0.87910  0.74290  0.76892  1.0000 -0.5584443964
O   O95       1.0  0.62090  0.74290  0.23108  1.0000 -0.5584443964
O   O96       1.0  0.12090  0.75710  0.26892  1.0000 -0.5584443964
