# DDEC6 charges by PACMAN v1.1 (https://github.com/mtap-research/PACMAN-charge/)
data_2017[Zr][hbr]3[ASR]1
_chemical_formula_sum              "Zr54 H72 C216 S36 O216"
_cell_length_a       37.5757
_cell_length_b       37.5757
_cell_length_c       19.5245
_cell_angle_alpha    90
_cell_angle_beta     90
_cell_angle_gamma    120

_symmetry_space_group_name_H-M    "P 1"
_symmetry_Int_Tables_number       1

loop_
  _symmetry_equiv_pos_as_xyz
  'x, y, z'

loop_
  _atom_site_type_symbol
  _atom_site_label
  _atom_site_symmetry_multiplicity
  _atom_site_fract_x
  _atom_site_fract_y
  _atom_site_fract_z
  _atom_site_occupancy
  _atom_site_charge
Zr  Zr1       1.0  0.27248  0.42470  0.00000  1.0000 2.1377415544
Zr  Zr2       1.0  0.15222  0.72752  0.00000  1.0000 2.1377415544
Zr  Zr3       1.0  0.57530  0.84778  0.00000  1.0000 2.1377415544
Zr  Zr4       1.0  0.72752  0.57530  0.00000  1.0000 2.1377415544
Zr  Zr5       1.0  0.84778  0.27248  0.00000  1.0000 2.1377415544
Zr  Zr6       1.0  0.42470  0.15222  0.00000  1.0000 2.1377415544
Zr  Zr7       1.0  0.84778  0.57530  0.00000  1.0000 2.1377415544
Zr  Zr8       1.0  0.42470  0.27248  0.00000  1.0000 2.1377415544
Zr  Zr9       1.0  0.72752  0.15222  0.00000  1.0000 2.1377415544
Zr  Zr10      1.0  0.15222  0.42470  0.00000  1.0000 2.1377415544
Zr  Zr11      1.0  0.57530  0.72752  0.00000  1.0000 2.1377415544
Zr  Zr12      1.0  0.27248  0.84778  0.00000  1.0000 2.1377415544
Zr  Zr13      1.0  0.17494  0.34988  0.00000  1.0000 2.2883054501
Zr  Zr14      1.0  0.24966  0.49932  0.00000  1.0000 2.2803895062
Zr  Zr15      1.0  0.17494  0.82506  0.00000  1.0000 2.2883054501
Zr  Zr16      1.0  0.24966  0.75034  0.00000  1.0000 2.2803895062
Zr  Zr17      1.0  0.65012  0.82506  0.00000  1.0000 2.2883054501
Zr  Zr18      1.0  0.50068  0.75034  0.00000  1.0000 2.2803895062
Zr  Zr19      1.0  0.82506  0.65012  0.00000  1.0000 2.2883054501
Zr  Zr20      1.0  0.75034  0.50068  0.00000  1.0000 2.2803895062
Zr  Zr21      1.0  0.82506  0.17494  0.00000  1.0000 2.2803895062
Zr  Zr22      1.0  0.75034  0.24966  0.00000  1.0000 2.2803895062
Zr  Zr23      1.0  0.34988  0.17494  0.00000  1.0000 2.2803895062
Zr  Zr24      1.0  0.49932  0.24966  0.00000  1.0000 2.2803895062
Zr  Zr25      1.0  0.42685  0.48123  0.50000  1.0000 2.3114644891
Zr  Zr26      1.0  0.05438  0.57315  0.50000  1.0000 2.3114644891
Zr  Zr27      1.0  0.51877  0.94562  0.50000  1.0000 2.3114644891
Zr  Zr28      1.0  0.57315  0.51877  0.50000  1.0000 2.316338647
Zr  Zr29      1.0  0.94562  0.42685  0.50000  1.0000 2.3114644891
Zr  Zr30      1.0  0.48123  0.05438  0.50000  1.0000 2.3114644891
Zr  Zr31      1.0  0.94562  0.51877  0.50000  1.0000 2.316338647
Zr  Zr32      1.0  0.48123  0.42685  0.50000  1.0000 2.3114644891
Zr  Zr33      1.0  0.57315  0.05438  0.50000  1.0000 2.3114644891
Zr  Zr34      1.0  0.05438  0.48123  0.50000  1.0000 2.3114644891
Zr  Zr35      1.0  0.51877  0.57315  0.50000  1.0000 2.3114644891
Zr  Zr36      1.0  0.42685  0.94562  0.50000  1.0000 2.3114644891
Zr  Zr37      1.0  0.21277  0.42554  0.12287  1.0000 2.2181121849
Zr  Zr38      1.0  0.21277  0.78723  0.12287  1.0000 2.2181121849
Zr  Zr39      1.0  0.57446  0.78723  0.12287  1.0000 2.2181121849
Zr  Zr40      1.0  0.78723  0.57446  0.12287  1.0000 2.2181121849
Zr  Zr41      1.0  0.78723  0.21277  0.12287  1.0000 2.2135228997
Zr  Zr42      1.0  0.42554  0.21277  0.12287  1.0000 2.2135228997
Zr  Zr43      1.0  0.78723  0.57446  0.87713  1.0000 2.2181121849
Zr  Zr44      1.0  0.42554  0.21277  0.87713  1.0000 2.2135228997
Zr  Zr45      1.0  0.78723  0.21277  0.87713  1.0000 2.2135228997
Zr  Zr46      1.0  0.21277  0.42554  0.87713  1.0000 2.2181121849
Zr  Zr47      1.0  0.57446  0.78723  0.87713  1.0000 2.2181121849
Zr  Zr48      1.0  0.21277  0.78723  0.87713  1.0000 2.2181121849
Zr  Zr49      1.0  0.50000  0.50000  0.38849  1.0000 2.2181121849
Zr  Zr50      1.0  0.00000  0.50000  0.38849  1.0000 2.2181121849
Zr  Zr51      1.0  0.50000  0.00000  0.38849  1.0000 2.2181121849
Zr  Zr52      1.0  0.00000  0.50000  0.61151  1.0000 2.2181121849
Zr  Zr53      1.0  0.50000  0.50000  0.61151  1.0000 2.2181121849
Zr  Zr54      1.0  0.50000  0.00000  0.61151  1.0000 2.2181121849
H   H1        1.0  0.35905  0.41765  0.13132  1.0000 0.1286070135
H   H2        1.0  0.41652  0.44576  0.21721  1.0000 0.1082221377
H   H3        1.0  0.05860  0.64095  0.13132  1.0000 0.1286070135
H   H4        1.0  0.02924  0.58348  0.21721  1.0000 0.1082221377
H   H5        1.0  0.58235  0.94140  0.13132  1.0000 0.1286070135
H   H6        1.0  0.55424  0.97076  0.21721  1.0000 0.1082221377
H   H7        1.0  0.64095  0.58235  0.13132  1.0000 0.1286070135
H   H8        1.0  0.58348  0.55424  0.21721  1.0000 0.1082221377
H   H9        1.0  0.94140  0.35905  0.13132  1.0000 0.1286070135
H   H10       1.0  0.97076  0.41652  0.21721  1.0000 0.1082221377
H   H11       1.0  0.41765  0.05860  0.13132  1.0000 0.1286070135
H   H12       1.0  0.44576  0.02924  0.21721  1.0000 0.1082221377
H   H13       1.0  0.94140  0.58235  0.86868  1.0000 0.1286070135
H   H14       1.0  0.97076  0.55424  0.78279  1.0000 0.1082221377
H   H15       1.0  0.41765  0.35905  0.86868  1.0000 0.1286070135
H   H16       1.0  0.44576  0.41652  0.78279  1.0000 0.1082221377
H   H17       1.0  0.64095  0.05860  0.86868  1.0000 0.1286070135
H   H18       1.0  0.58348  0.02924  0.78279  1.0000 0.1082221377
H   H19       1.0  0.05860  0.41765  0.86868  1.0000 0.1286070135
H   H20       1.0  0.02924  0.44576  0.78279  1.0000 0.1082221377
H   H21       1.0  0.58235  0.64095  0.86868  1.0000 0.1286070135
H   H22       1.0  0.55424  0.58348  0.78279  1.0000 0.1082221377
H   H23       1.0  0.35905  0.94140  0.86868  1.0000 0.1286070135
H   H24       1.0  0.41652  0.97076  0.78279  1.0000 0.1082221377
H   H25       1.0  0.64095  0.58235  0.86868  1.0000 0.1286070135
H   H26       1.0  0.58348  0.55424  0.78279  1.0000 0.1082221377
H   H27       1.0  0.94140  0.35905  0.86868  1.0000 0.1286070135
H   H28       1.0  0.97076  0.41652  0.78279  1.0000 0.1082221377
H   H29       1.0  0.41765  0.05860  0.86868  1.0000 0.1286070135
H   H30       1.0  0.44576  0.02924  0.78279  1.0000 0.1082221377
H   H31       1.0  0.35905  0.41765  0.86868  1.0000 0.1286070135
H   H32       1.0  0.41652  0.44576  0.78279  1.0000 0.1082221377
H   H33       1.0  0.05860  0.64095  0.86868  1.0000 0.1286070135
H   H34       1.0  0.02924  0.58348  0.78279  1.0000 0.1082221377
H   H35       1.0  0.58235  0.94140  0.86868  1.0000 0.1286070135
H   H36       1.0  0.55424  0.97076  0.78279  1.0000 0.1082221377
H   H37       1.0  0.05860  0.41765  0.13132  1.0000 0.1286070135
H   H38       1.0  0.02924  0.44576  0.21721  1.0000 0.1082221377
H   H39       1.0  0.58235  0.64095  0.13132  1.0000 0.1286070135
H   H40       1.0  0.55424  0.58348  0.21721  1.0000 0.1082221377
H   H41       1.0  0.35905  0.94140  0.13132  1.0000 0.1286070135
H   H42       1.0  0.41652  0.97076  0.21721  1.0000 0.1082221377
H   H43       1.0  0.94140  0.58235  0.13132  1.0000 0.1286070135
H   H44       1.0  0.97076  0.55424  0.21721  1.0000 0.1082221377
H   H45       1.0  0.41765  0.35905  0.13132  1.0000 0.1286070135
H   H46       1.0  0.44576  0.41652  0.21721  1.0000 0.1082221377
H   H47       1.0  0.64095  0.05860  0.13132  1.0000 0.1286070135
H   H48       1.0  0.58348  0.02924  0.21721  1.0000 0.1082221377
H   H49       1.0  0.41772  0.51270  0.00000  1.0000 0.1082221377
H   H50       1.0  0.20446  0.24438  0.00000  1.0000 0.1082221377
H   H51       1.0  0.09498  0.58228  0.00000  1.0000 0.1082221377
H   H52       1.0  0.03992  0.79554  0.00000  1.0000 0.1082221377
H   H53       1.0  0.48730  0.90502  0.00000  1.0000 0.1082221377
H   H54       1.0  0.75562  0.96008  0.00000  1.0000 0.1082221377
H   H55       1.0  0.58228  0.48730  0.00000  1.0000 0.1082221377
H   H56       1.0  0.79554  0.75562  0.00000  1.0000 0.1082221377
H   H57       1.0  0.90502  0.41772  0.00000  1.0000 0.1082221377
H   H58       1.0  0.96008  0.20446  0.00000  1.0000 0.1082221377
H   H59       1.0  0.51270  0.09498  0.00000  1.0000 0.1082221377
H   H60       1.0  0.24438  0.03992  0.00000  1.0000 0.1082221377
H   H61       1.0  0.90502  0.48730  0.00000  1.0000 0.1082221377
H   H62       1.0  0.96008  0.75562  0.00000  1.0000 0.1082221377
H   H63       1.0  0.51270  0.41772  0.00000  1.0000 0.1082221377
H   H64       1.0  0.24438  0.20446  0.00000  1.0000 0.1082221377
H   H65       1.0  0.58228  0.09498  0.00000  1.0000 0.1082221377
H   H66       1.0  0.79554  0.03992  0.00000  1.0000 0.1082221377
H   H67       1.0  0.09498  0.51270  0.00000  1.0000 0.1082221377
H   H68       1.0  0.03992  0.24438  0.00000  1.0000 0.1082221377
H   H69       1.0  0.48730  0.58228  0.00000  1.0000 0.1082221377
H   H70       1.0  0.75562  0.79554  0.00000  1.0000 0.1082221377
H   H71       1.0  0.41772  0.90502  0.00000  1.0000 0.1082221377
H   H72       1.0  0.20446  0.96008  0.00000  1.0000 0.1082221377
C   C1        1.0  0.40679  0.46887  0.34455  1.0000 0.6700717793
C   C2        1.0  0.37433  0.45092  0.28862  1.0000 -0.1471795931
C   C3        1.0  0.31969  0.42455  0.20643  1.0000 -0.1593470662
C   C4        1.0  0.35512  0.42599  0.18204  1.0000 -0.1100171272
C   C5        1.0  0.38605  0.44125  0.22819  1.0000 -0.0941440521
C   C6        1.0  0.29127  0.42364  0.15430  1.0000 0.632916893
C   C7        1.0  0.06208  0.59321  0.34455  1.0000 0.6700717793
C   C8        1.0  0.07659  0.62567  0.28862  1.0000 -0.1471795931
C   C9        1.0  0.10486  0.68031  0.20643  1.0000 -0.1593470662
C   C10       1.0  0.07087  0.64488  0.18204  1.0000 -0.1100171272
C   C11       1.0  0.05520  0.61395  0.22819  1.0000 -0.0941440521
C   C12       1.0  0.13237  0.70873  0.15430  1.0000 0.6368381149
C   C13       1.0  0.53113  0.93792  0.34455  1.0000 0.6700717793
C   C14       1.0  0.54908  0.92341  0.28862  1.0000 -0.1471795931
C   C15       1.0  0.57545  0.89514  0.20643  1.0000 -0.1593470662
C   C16       1.0  0.57401  0.92913  0.18204  1.0000 -0.1100171272
C   C17       1.0  0.55875  0.94480  0.22819  1.0000 -0.0941440521
C   C18       1.0  0.57636  0.86763  0.15430  1.0000 0.632916893
C   C19       1.0  0.59321  0.53113  0.34455  1.0000 0.6700717793
C   C20       1.0  0.62567  0.54908  0.28862  1.0000 -0.1471795931
C   C21       1.0  0.68031  0.57545  0.20643  1.0000 -0.1593470662
C   C22       1.0  0.64488  0.57401  0.18204  1.0000 -0.1100171272
C   C23       1.0  0.61395  0.55875  0.22819  1.0000 -0.0941440521
C   C24       1.0  0.70873  0.57636  0.15430  1.0000 0.632916893
C   C25       1.0  0.93792  0.40679  0.34455  1.0000 0.6700717793
C   C26       1.0  0.92341  0.37433  0.28862  1.0000 -0.1471795931
C   C27       1.0  0.89514  0.31969  0.20643  1.0000 -0.1593470662
C   C28       1.0  0.92913  0.35512  0.18204  1.0000 -0.1100171272
C   C29       1.0  0.94480  0.38605  0.22819  1.0000 -0.0941440521
C   C30       1.0  0.86763  0.29127  0.15430  1.0000 0.632916893
C   C31       1.0  0.46887  0.06208  0.34455  1.0000 0.6700717793
C   C32       1.0  0.45092  0.07659  0.28862  1.0000 -0.1471795931
C   C33       1.0  0.42455  0.10486  0.20643  1.0000 -0.1593470662
C   C34       1.0  0.42599  0.07087  0.18204  1.0000 -0.1100171272
C   C35       1.0  0.44125  0.05520  0.22819  1.0000 -0.0950409734
C   C36       1.0  0.42364  0.13237  0.15430  1.0000 0.632916893
C   C37       1.0  0.93792  0.53113  0.65545  1.0000 0.6700717793
C   C38       1.0  0.92341  0.54908  0.71138  1.0000 -0.1471795931
C   C39       1.0  0.89514  0.57545  0.79357  1.0000 -0.1593470662
C   C40       1.0  0.92913  0.57401  0.81796  1.0000 -0.1100171272
C   C41       1.0  0.94480  0.55875  0.77181  1.0000 -0.0941440521
C   C42       1.0  0.86763  0.57636  0.84570  1.0000 0.632916893
C   C43       1.0  0.46887  0.40679  0.65545  1.0000 0.6700717793
C   C44       1.0  0.45092  0.37433  0.71138  1.0000 -0.1471795931
C   C45       1.0  0.42455  0.31969  0.79357  1.0000 -0.1593470662
C   C46       1.0  0.42599  0.35512  0.81796  1.0000 -0.1100171272
C   C47       1.0  0.44125  0.38605  0.77181  1.0000 -0.0950409734
C   C48       1.0  0.42364  0.29127  0.84570  1.0000 0.632916893
C   C49       1.0  0.59321  0.06208  0.65545  1.0000 0.6700717793
C   C50       1.0  0.62567  0.07659  0.71138  1.0000 -0.1471795931
C   C51       1.0  0.68031  0.10486  0.79357  1.0000 -0.1593470662
C   C52       1.0  0.64488  0.07087  0.81796  1.0000 -0.1100171272
C   C53       1.0  0.61395  0.05520  0.77181  1.0000 -0.0950409734
C   C54       1.0  0.70873  0.13237  0.84570  1.0000 0.632916893
C   C55       1.0  0.06208  0.46887  0.65545  1.0000 0.6700717793
C   C56       1.0  0.07659  0.45092  0.71138  1.0000 -0.1444538349
C   C57       1.0  0.10486  0.42455  0.79357  1.0000 -0.1593470662
C   C58       1.0  0.07087  0.42599  0.81796  1.0000 -0.1100171272
C   C59       1.0  0.05520  0.44125  0.77181  1.0000 -0.0950409734
C   C60       1.0  0.13237  0.42364  0.84570  1.0000 0.632916893
C   C61       1.0  0.53113  0.59321  0.65545  1.0000 0.6700717793
C   C62       1.0  0.54908  0.62567  0.71138  1.0000 -0.1444538349
C   C63       1.0  0.57545  0.68031  0.79357  1.0000 -0.1593470662
C   C64       1.0  0.57401  0.64488  0.81796  1.0000 -0.1100171272
C   C65       1.0  0.55875  0.61395  0.77181  1.0000 -0.0941440521
C   C66       1.0  0.57636  0.70873  0.84570  1.0000 0.6368381149
C   C67       1.0  0.40679  0.93792  0.65545  1.0000 0.6700717793
C   C68       1.0  0.37433  0.92341  0.71138  1.0000 -0.1444538349
C   C69       1.0  0.31969  0.89514  0.79357  1.0000 -0.1593470662
C   C70       1.0  0.35512  0.92913  0.81796  1.0000 -0.1100171272
C   C71       1.0  0.38605  0.94480  0.77181  1.0000 -0.0941440521
C   C72       1.0  0.29127  0.86763  0.84570  1.0000 0.632916893
C   C73       1.0  0.59321  0.53113  0.65545  1.0000 0.6700717793
C   C74       1.0  0.62567  0.54908  0.71138  1.0000 -0.1471795931
C   C75       1.0  0.68031  0.57545  0.79357  1.0000 -0.1593470662
C   C76       1.0  0.64488  0.57401  0.81796  1.0000 -0.1100171272
C   C77       1.0  0.61395  0.55875  0.77181  1.0000 -0.0941440521
C   C78       1.0  0.70873  0.57636  0.84570  1.0000 0.632916893
C   C79       1.0  0.93792  0.40679  0.65545  1.0000 0.6700717793
C   C80       1.0  0.92341  0.37433  0.71138  1.0000 -0.1471795931
C   C81       1.0  0.89514  0.31969  0.79357  1.0000 -0.1593470662
C   C82       1.0  0.92913  0.35512  0.81796  1.0000 -0.1100171272
C   C83       1.0  0.94480  0.38605  0.77181  1.0000 -0.0941440521
C   C84       1.0  0.86763  0.29127  0.84570  1.0000 0.6368381149
C   C85       1.0  0.46887  0.06208  0.65545  1.0000 0.6700717793
C   C86       1.0  0.45092  0.07659  0.71138  1.0000 -0.1471795931
C   C87       1.0  0.42455  0.10486  0.79357  1.0000 -0.1593470662
C   C88       1.0  0.42599  0.07087  0.81796  1.0000 -0.1100171272
C   C89       1.0  0.44125  0.05520  0.77181  1.0000 -0.0950409734
C   C90       1.0  0.42364  0.13237  0.84570  1.0000 0.632916893
C   C91       1.0  0.40679  0.46887  0.65545  1.0000 0.6700717793
C   C92       1.0  0.37433  0.45092  0.71138  1.0000 -0.1444538349
C   C93       1.0  0.31969  0.42455  0.79357  1.0000 -0.1593470662
C   C94       1.0  0.35512  0.42599  0.81796  1.0000 -0.1100171272
C   C95       1.0  0.38605  0.44125  0.77181  1.0000 -0.0941440521
C   C96       1.0  0.29127  0.42364  0.84570  1.0000 0.632916893
C   C97       1.0  0.06208  0.59321  0.65545  1.0000 0.6700717793
C   C98       1.0  0.07659  0.62567  0.71138  1.0000 -0.1444538349
C   C99       1.0  0.10486  0.68031  0.79357  1.0000 -0.1593470662
C   C100      1.0  0.07087  0.64488  0.81796  1.0000 -0.1100171272
C   C101      1.0  0.05520  0.61395  0.77181  1.0000 -0.0941440521
C   C102      1.0  0.13237  0.70873  0.84570  1.0000 0.6368381149
C   C103      1.0  0.53113  0.93792  0.65545  1.0000 0.6700717793
C   C104      1.0  0.54908  0.92341  0.71138  1.0000 -0.1444538349
C   C105      1.0  0.57545  0.89514  0.79357  1.0000 -0.1593470662
C   C106      1.0  0.57401  0.92913  0.81796  1.0000 -0.1100171272
C   C107      1.0  0.55875  0.94480  0.77181  1.0000 -0.0941440521
C   C108      1.0  0.57636  0.86763  0.84570  1.0000 0.632916893
C   C109      1.0  0.06208  0.46887  0.34455  1.0000 0.6700717793
C   C110      1.0  0.07659  0.45092  0.28862  1.0000 -0.1471795931
C   C111      1.0  0.10486  0.42455  0.20643  1.0000 -0.1593470662
C   C112      1.0  0.07087  0.42599  0.18204  1.0000 -0.1100171272
C   C113      1.0  0.05520  0.44125  0.22819  1.0000 -0.0950409734
C   C114      1.0  0.13237  0.42364  0.15430  1.0000 0.632916893
C   C115      1.0  0.53113  0.59321  0.34455  1.0000 0.6700717793
C   C116      1.0  0.54908  0.62567  0.28862  1.0000 -0.1471795931
C   C117      1.0  0.57545  0.68031  0.20643  1.0000 -0.1593470662
C   C118      1.0  0.57401  0.64488  0.18204  1.0000 -0.1100171272
C   C119      1.0  0.55875  0.61395  0.22819  1.0000 -0.0941440521
C   C120      1.0  0.57636  0.70873  0.15430  1.0000 0.6368381149
C   C121      1.0  0.40679  0.93792  0.34455  1.0000 0.6700717793
C   C122      1.0  0.37433  0.92341  0.28862  1.0000 -0.1471795931
C   C123      1.0  0.31969  0.89514  0.20643  1.0000 -0.1593470662
C   C124      1.0  0.35512  0.92913  0.18204  1.0000 -0.1100171272
C   C125      1.0  0.38605  0.94480  0.22819  1.0000 -0.0941440521
C   C126      1.0  0.29127  0.86763  0.15430  1.0000 0.632916893
C   C127      1.0  0.93792  0.53113  0.34455  1.0000 0.6700717793
C   C128      1.0  0.92341  0.54908  0.28862  1.0000 -0.1471795931
C   C129      1.0  0.89514  0.57545  0.20643  1.0000 -0.1593470662
C   C130      1.0  0.92913  0.57401  0.18204  1.0000 -0.1100171272
C   C131      1.0  0.94480  0.55875  0.22819  1.0000 -0.0941440521
C   C132      1.0  0.86763  0.57636  0.15430  1.0000 0.632916893
C   C133      1.0  0.46887  0.40679  0.34455  1.0000 0.6700717793
C   C134      1.0  0.45092  0.37433  0.28862  1.0000 -0.1471795931
C   C135      1.0  0.42455  0.31969  0.20643  1.0000 -0.1593470662
C   C136      1.0  0.42599  0.35512  0.18204  1.0000 -0.1100171272
C   C137      1.0  0.44125  0.38605  0.22819  1.0000 -0.0950409734
C   C138      1.0  0.42364  0.29127  0.15430  1.0000 0.632916893
C   C139      1.0  0.59321  0.06208  0.34455  1.0000 0.6700717793
C   C140      1.0  0.62567  0.07659  0.28862  1.0000 -0.1471795931
C   C141      1.0  0.68031  0.10486  0.20643  1.0000 -0.1593470662
C   C142      1.0  0.64488  0.07087  0.18204  1.0000 -0.1100171272
C   C143      1.0  0.61395  0.05520  0.22819  1.0000 -0.0950409734
C   C144      1.0  0.70873  0.13237  0.15430  1.0000 0.632916893
C   C145      1.0  0.25233  0.33473  0.00000  1.0000 0.632916893
C   C146      1.0  0.26442  0.30195  0.00000  1.0000 -0.1100171272
C   C147      1.0  0.34152  0.51544  0.00000  1.0000 0.6510473774
C   C148      1.0  0.38624  0.54909  0.00000  1.0000 -0.1471795931
C   C149      1.0  0.41998  0.54290  0.00000  1.0000 -0.1100171272
C   C150      1.0  0.23803  0.25940  0.00000  1.0000 -0.1181473287
C   C151      1.0  0.08240  0.74767  0.00000  1.0000 0.632916893
C   C152      1.0  0.03753  0.73558  0.00000  1.0000 -0.1100171272
C   C153      1.0  0.17392  0.65848  0.00000  1.0000 0.6510473774
C   C154      1.0  0.16285  0.61376  0.00000  1.0000 -0.1471795931
C   C155      1.0  0.12292  0.58002  0.00000  1.0000 -0.1100171272
C   C156      1.0  0.02137  0.76197  0.00000  1.0000 -0.1181473287
C   C157      1.0  0.66527  0.91760  0.00000  1.0000 0.632916893
C   C158      1.0  0.69805  0.96247  0.00000  1.0000 -0.1100171272
C   C159      1.0  0.48456  0.82608  0.00000  1.0000 0.6510473774
C   C160      1.0  0.45091  0.83715  0.00000  1.0000 -0.1471795931
C   C161      1.0  0.45710  0.87708  0.00000  1.0000 -0.1100171272
C   C162      1.0  0.74060  0.97863  0.00000  1.0000 -0.1181473287
C   C163      1.0  0.74767  0.66527  0.00000  1.0000 0.632916893
C   C164      1.0  0.73558  0.69805  0.00000  1.0000 -0.1100171272
C   C165      1.0  0.65848  0.48456  0.00000  1.0000 0.6510473774
C   C166      1.0  0.61376  0.45091  0.00000  1.0000 -0.1471795931
C   C167      1.0  0.58002  0.45710  0.00000  1.0000 -0.1100171272
C   C168      1.0  0.76197  0.74060  0.00000  1.0000 -0.1181473287
C   C169      1.0  0.91760  0.25233  0.00000  1.0000 0.632916893
C   C170      1.0  0.96247  0.26442  0.00000  1.0000 -0.1100171272
C   C171      1.0  0.82608  0.34152  0.00000  1.0000 0.6510473774
C   C172      1.0  0.83715  0.38624  0.00000  1.0000 -0.1471795931
C   C173      1.0  0.87708  0.41998  0.00000  1.0000 -0.1100171272
C   C174      1.0  0.97863  0.23803  0.00000  1.0000 -0.1181473287
C   C175      1.0  0.33473  0.08240  0.00000  1.0000 0.632916893
C   C176      1.0  0.30195  0.03753  0.00000  1.0000 -0.1100171272
C   C177      1.0  0.51544  0.17392  0.00000  1.0000 0.6510473774
C   C178      1.0  0.54909  0.16285  0.00000  1.0000 -0.1471795931
C   C179      1.0  0.54290  0.12292  0.00000  1.0000 -0.1100171272
C   C180      1.0  0.25940  0.02137  0.00000  1.0000 -0.1181473287
C   C181      1.0  0.91760  0.66527  0.00000  1.0000 0.632916893
C   C182      1.0  0.96247  0.69805  0.00000  1.0000 -0.1100171272
C   C183      1.0  0.82608  0.48456  0.00000  1.0000 0.6510473774
C   C184      1.0  0.83715  0.45091  0.00000  1.0000 -0.1471795931
C   C185      1.0  0.87708  0.45710  0.00000  1.0000 -0.1100171272
C   C186      1.0  0.97863  0.74060  0.00000  1.0000 -0.1181473287
C   C187      1.0  0.33473  0.25233  0.00000  1.0000 0.632916893
C   C188      1.0  0.30195  0.26442  0.00000  1.0000 -0.1100171272
C   C189      1.0  0.51544  0.34152  0.00000  1.0000 0.6510473774
C   C190      1.0  0.54909  0.38624  0.00000  1.0000 -0.1471795931
C   C191      1.0  0.54290  0.41998  0.00000  1.0000 -0.1100171272
C   C192      1.0  0.25940  0.23803  0.00000  1.0000 -0.1181473287
C   C193      1.0  0.74767  0.08240  0.00000  1.0000 0.632916893
C   C194      1.0  0.73558  0.03753  0.00000  1.0000 -0.1100171272
C   C195      1.0  0.65848  0.17392  0.00000  1.0000 0.6510473774
C   C196      1.0  0.61376  0.16285  0.00000  1.0000 -0.1471795931
C   C197      1.0  0.58002  0.12292  0.00000  1.0000 -0.1100171272
C   C198      1.0  0.76197  0.02137  0.00000  1.0000 -0.1181473287
C   C199      1.0  0.08240  0.33473  0.00000  1.0000 0.632916893
C   C200      1.0  0.03753  0.30195  0.00000  1.0000 -0.1100171272
C   C201      1.0  0.17392  0.51544  0.00000  1.0000 0.6510473774
C   C202      1.0  0.16285  0.54909  0.00000  1.0000 -0.1471795931
C   C203      1.0  0.12292  0.54290  0.00000  1.0000 -0.1100171272
C   C204      1.0  0.02137  0.25940  0.00000  1.0000 -0.1181473287
C   C205      1.0  0.66527  0.74767  0.00000  1.0000 0.632916893
C   C206      1.0  0.69805  0.73558  0.00000  1.0000 -0.1100171272
C   C207      1.0  0.48456  0.65848  0.00000  1.0000 0.6510473774
C   C208      1.0  0.45091  0.61376  0.00000  1.0000 -0.1471795931
C   C209      1.0  0.45710  0.58002  0.00000  1.0000 -0.1100171272
C   C210      1.0  0.74060  0.76197  0.00000  1.0000 -0.1181473287
C   C211      1.0  0.25233  0.91760  0.00000  1.0000 0.632916893
C   C212      1.0  0.26442  0.96247  0.00000  1.0000 -0.1100171272
C   C213      1.0  0.34152  0.82608  0.00000  1.0000 0.6510473774
C   C214      1.0  0.38624  0.83715  0.00000  1.0000 -0.1471795931
C   C215      1.0  0.41998  0.87708  0.00000  1.0000 -0.1100171272
C   C216      1.0  0.23803  0.97863  0.00000  1.0000 -0.1181473287
S   S1        1.0  0.32405  0.44157  0.28866  1.0000 0.2166311777
S   S2        1.0  0.11752  0.67595  0.28866  1.0000 0.2131334458
S   S3        1.0  0.55843  0.88248  0.28866  1.0000 0.2166311777
S   S4        1.0  0.67595  0.55843  0.28866  1.0000 0.2131334458
S   S5        1.0  0.88248  0.32405  0.28866  1.0000 0.2166311777
S   S6        1.0  0.44157  0.11752  0.28866  1.0000 0.2131334458
S   S7        1.0  0.88248  0.55843  0.71134  1.0000 0.2131334458
S   S8        1.0  0.44157  0.32405  0.71134  1.0000 0.2131334458
S   S9        1.0  0.67595  0.11752  0.71134  1.0000 0.2131334458
S   S10       1.0  0.11752  0.44157  0.71134  1.0000 0.2131334458
S   S11       1.0  0.55843  0.67595  0.71134  1.0000 0.2131334458
S   S12       1.0  0.32405  0.88248  0.71134  1.0000 0.2131334458
S   S13       1.0  0.67595  0.55843  0.71134  1.0000 0.2131334458
S   S14       1.0  0.88248  0.32405  0.71134  1.0000 0.2166311777
S   S15       1.0  0.44157  0.11752  0.71134  1.0000 0.2131334458
S   S16       1.0  0.32405  0.44157  0.71134  1.0000 0.2131334458
S   S17       1.0  0.11752  0.67595  0.71134  1.0000 0.2131334458
S   S18       1.0  0.55843  0.88248  0.71134  1.0000 0.2131334458
S   S19       1.0  0.11752  0.44157  0.28866  1.0000 0.2166311777
S   S20       1.0  0.55843  0.67595  0.28866  1.0000 0.2131334458
S   S21       1.0  0.32405  0.88248  0.28866  1.0000 0.2166311777
S   S22       1.0  0.88248  0.55843  0.28866  1.0000 0.2166311777
S   S23       1.0  0.44157  0.32405  0.28866  1.0000 0.2166311777
S   S24       1.0  0.67595  0.11752  0.28866  1.0000 0.2131334458
S   S25       1.0  0.39968  0.60032  0.00000  1.0000 0.1599054472
S   S26       1.0  0.20065  0.60032  0.00000  1.0000 0.1599054472
S   S27       1.0  0.39968  0.79935  0.00000  1.0000 0.1599054472
S   S28       1.0  0.60032  0.39968  0.00000  1.0000 0.1599054472
S   S29       1.0  0.79935  0.39968  0.00000  1.0000 0.1599054472
S   S30       1.0  0.60032  0.20065  0.00000  1.0000 0.1599054472
S   S31       1.0  0.31610  0.31610  0.00000  1.0000 0.0914962278
S   S32       1.0  0.00000  0.68390  0.00000  1.0000 0.0914962278
S   S33       1.0  0.68390  0.00000  0.00000  1.0000 0.0914962278
S   S34       1.0  0.68390  0.68390  0.00000  1.0000 0.0914962278
S   S35       1.0  0.00000  0.31610  0.00000  1.0000 0.0914962278
S   S36       1.0  0.31610  0.00000  0.00000  1.0000 0.0914962278
O   O1        1.0  0.39459  0.46867  0.40600  1.0000 -0.6428361238
O   O2        1.0  0.44420  0.47983  0.32752  1.0000 -0.5680515912
O   O3        1.0  0.29900  0.42129  0.09149  1.0000 -0.552044893
O   O4        1.0  0.25933  0.42508  0.17651  1.0000 -0.6428361238
O   O5        1.0  0.26389  0.46419  0.93688  1.0000 -1.0900536094
O   O6        1.0  0.22275  0.38523  0.06352  1.0000 -1.0493552897
O   O7        1.0  0.07408  0.60541  0.40600  1.0000 -0.6428361238
O   O8        1.0  0.03563  0.55580  0.32752  1.0000 -0.5680515912
O   O9        1.0  0.12229  0.70100  0.09149  1.0000 -0.552044893
O   O10       1.0  0.16575  0.74067  0.17651  1.0000 -0.6428361238
O   O11       1.0  0.20030  0.73611  0.93688  1.0000 -1.0900536094
O   O12       1.0  0.16248  0.77725  0.06352  1.0000 -1.0493552897
O   O13       1.0  0.53133  0.92592  0.40600  1.0000 -0.6428361238
O   O14       1.0  0.52017  0.96437  0.32752  1.0000 -0.5680515912
O   O15       1.0  0.57871  0.87771  0.09149  1.0000 -0.552044893
O   O16       1.0  0.57492  0.83425  0.17651  1.0000 -0.6428361238
O   O17       1.0  0.53581  0.79970  0.93688  1.0000 -1.0900536094
O   O18       1.0  0.61477  0.83752  0.06352  1.0000 -1.0493552897
O   O19       1.0  0.60541  0.53133  0.40600  1.0000 -0.6428361238
O   O20       1.0  0.55580  0.52017  0.32752  1.0000 -0.5680515912
O   O21       1.0  0.70100  0.57871  0.09149  1.0000 -0.552044893
O   O22       1.0  0.74067  0.57492  0.17651  1.0000 -0.6428361238
O   O23       1.0  0.73611  0.53581  0.93688  1.0000 -1.0900536094
O   O24       1.0  0.77725  0.61477  0.06352  1.0000 -1.0493552897
O   O25       1.0  0.92592  0.39459  0.40600  1.0000 -0.6428361238
O   O26       1.0  0.96437  0.44420  0.32752  1.0000 -0.5680515912
O   O27       1.0  0.87771  0.29900  0.09149  1.0000 -0.552044893
O   O28       1.0  0.83425  0.25933  0.17651  1.0000 -0.6428361238
O   O29       1.0  0.79970  0.26389  0.93688  1.0000 -1.0900536094
O   O30       1.0  0.83752  0.22275  0.06352  1.0000 -1.0493552897
O   O31       1.0  0.46867  0.07408  0.40600  1.0000 -0.6428361238
O   O32       1.0  0.47983  0.03563  0.32752  1.0000 -0.5680515912
O   O33       1.0  0.42129  0.12229  0.09149  1.0000 -0.552044893
O   O34       1.0  0.42508  0.16575  0.17651  1.0000 -0.6428361238
O   O35       1.0  0.46419  0.20030  0.93688  1.0000 -1.0900536094
O   O36       1.0  0.38523  0.16248  0.06352  1.0000 -1.0493552897
O   O37       1.0  0.92592  0.53133  0.59400  1.0000 -0.6428361238
O   O38       1.0  0.96437  0.52017  0.67248  1.0000 -0.5680515912
O   O39       1.0  0.87771  0.57871  0.90851  1.0000 -0.552044893
O   O40       1.0  0.83425  0.57492  0.82349  1.0000 -0.6428361238
O   O41       1.0  0.79970  0.53581  0.06312  1.0000 -1.0900536094
O   O42       1.0  0.83752  0.61477  0.93648  1.0000 -1.0493552897
O   O43       1.0  0.46867  0.39459  0.59400  1.0000 -0.6428361238
O   O44       1.0  0.47983  0.44420  0.67248  1.0000 -0.5680515912
O   O45       1.0  0.42129  0.29900  0.90851  1.0000 -0.552044893
O   O46       1.0  0.42508  0.25933  0.82349  1.0000 -0.6428361238
O   O47       1.0  0.46419  0.26389  0.06312  1.0000 -1.0950617903
O   O48       1.0  0.38523  0.22275  0.93648  1.0000 -1.0493552897
O   O49       1.0  0.60541  0.07408  0.59400  1.0000 -0.6428361238
O   O50       1.0  0.55580  0.03563  0.67248  1.0000 -0.5680515912
O   O51       1.0  0.70100  0.12229  0.90851  1.0000 -0.552044893
O   O52       1.0  0.74067  0.16575  0.82349  1.0000 -0.6428361238
O   O53       1.0  0.73611  0.20030  0.06312  1.0000 -1.0900536094
O   O54       1.0  0.77725  0.16248  0.93648  1.0000 -1.0493552897
O   O55       1.0  0.07408  0.46867  0.59400  1.0000 -0.6428361238
O   O56       1.0  0.03563  0.47983  0.67248  1.0000 -0.5680515912
O   O57       1.0  0.12229  0.42129  0.90851  1.0000 -0.552044893
O   O58       1.0  0.16575  0.42508  0.82349  1.0000 -0.6428361238
O   O59       1.0  0.20030  0.46419  0.06312  1.0000 -1.0900536094
O   O60       1.0  0.16248  0.38523  0.93648  1.0000 -1.0493552897
O   O61       1.0  0.53133  0.60541  0.59400  1.0000 -0.6428361238
O   O62       1.0  0.52017  0.55580  0.67248  1.0000 -0.5680515912
O   O63       1.0  0.57871  0.70100  0.90851  1.0000 -0.552044893
O   O64       1.0  0.57492  0.74067  0.82349  1.0000 -0.6428361238
O   O65       1.0  0.53581  0.73611  0.06312  1.0000 -1.0900536094
O   O66       1.0  0.61477  0.77725  0.93648  1.0000 -1.0493552897
O   O67       1.0  0.39459  0.92592  0.59400  1.0000 -0.6428361238
O   O68       1.0  0.44420  0.96437  0.67248  1.0000 -0.5680515912
O   O69       1.0  0.29900  0.87771  0.90851  1.0000 -0.552044893
O   O70       1.0  0.25933  0.83425  0.82349  1.0000 -0.6428361238
O   O71       1.0  0.26389  0.79970  0.06312  1.0000 -1.0900536094
O   O72       1.0  0.22275  0.83752  0.93648  1.0000 -1.0493552897
O   O73       1.0  0.60541  0.53133  0.59400  1.0000 -0.6428361238
O   O74       1.0  0.55580  0.52017  0.67248  1.0000 -0.5680515912
O   O75       1.0  0.70100  0.57871  0.90851  1.0000 -0.552044893
O   O76       1.0  0.74067  0.57492  0.82349  1.0000 -0.6428361238
O   O77       1.0  0.73611  0.53581  0.06312  1.0000 -1.0900536094
O   O78       1.0  0.77725  0.61477  0.93648  1.0000 -1.0493552897
O   O79       1.0  0.92592  0.39459  0.59400  1.0000 -0.6428361238
O   O80       1.0  0.96437  0.44420  0.67248  1.0000 -0.5680515912
O   O81       1.0  0.87771  0.29900  0.90851  1.0000 -0.552044893
O   O82       1.0  0.83425  0.25933  0.82349  1.0000 -0.6428361238
O   O83       1.0  0.79970  0.26389  0.06312  1.0000 -1.0950617903
O   O84       1.0  0.83752  0.22275  0.93648  1.0000 -1.0493552897
O   O85       1.0  0.46867  0.07408  0.59400  1.0000 -0.6428361238
O   O86       1.0  0.47983  0.03563  0.67248  1.0000 -0.5680515912
O   O87       1.0  0.42129  0.12229  0.90851  1.0000 -0.552044893
O   O88       1.0  0.42508  0.16575  0.82349  1.0000 -0.6428361238
O   O89       1.0  0.46419  0.20030  0.06312  1.0000 -1.0900536094
O   O90       1.0  0.38523  0.16248  0.93648  1.0000 -1.0493552897
O   O91       1.0  0.39459  0.46867  0.59400  1.0000 -0.6428361238
O   O92       1.0  0.44420  0.47983  0.67248  1.0000 -0.5680515912
O   O93       1.0  0.29900  0.42129  0.90851  1.0000 -0.552044893
O   O94       1.0  0.25933  0.42508  0.82349  1.0000 -0.6428361238
O   O95       1.0  0.26389  0.46419  0.06312  1.0000 -1.0900536094
O   O96       1.0  0.22275  0.38523  0.93648  1.0000 -1.0493552897
O   O97       1.0  0.07408  0.60541  0.59400  1.0000 -0.6428361238
O   O98       1.0  0.03563  0.55580  0.67248  1.0000 -0.5680515912
O   O99       1.0  0.12229  0.70100  0.90851  1.0000 -0.552044893
O   O100      1.0  0.16575  0.74067  0.82349  1.0000 -0.6428361238
O   O101      1.0  0.20030  0.73611  0.06312  1.0000 -1.0900536094
O   O102      1.0  0.16248  0.77725  0.93648  1.0000 -1.0493552897
O   O103      1.0  0.53133  0.92592  0.59400  1.0000 -0.6428361238
O   O104      1.0  0.52017  0.96437  0.67248  1.0000 -0.5680515912
O   O105      1.0  0.57871  0.87771  0.90851  1.0000 -0.552044893
O   O106      1.0  0.57492  0.83425  0.82349  1.0000 -0.6428361238
O   O107      1.0  0.53581  0.79970  0.06312  1.0000 -1.0900536094
O   O108      1.0  0.61477  0.83752  0.93648  1.0000 -1.0493552897
O   O109      1.0  0.07408  0.46867  0.40600  1.0000 -0.6428361238
O   O110      1.0  0.03563  0.47983  0.32752  1.0000 -0.5680515912
O   O111      1.0  0.12229  0.42129  0.09149  1.0000 -0.552044893
O   O112      1.0  0.16575  0.42508  0.17651  1.0000 -0.6428361238
O   O113      1.0  0.20030  0.46419  0.93688  1.0000 -1.0900536094
O   O114      1.0  0.16248  0.38523  0.06352  1.0000 -1.0493552897
O   O115      1.0  0.53133  0.60541  0.40600  1.0000 -0.6428361238
O   O116      1.0  0.52017  0.55580  0.32752  1.0000 -0.5680515912
O   O117      1.0  0.57871  0.70100  0.09149  1.0000 -0.552044893
O   O118      1.0  0.57492  0.74067  0.17651  1.0000 -0.6428361238
O   O119      1.0  0.53581  0.73611  0.93688  1.0000 -1.0900536094
O   O120      1.0  0.61477  0.77725  0.06352  1.0000 -1.0493552897
O   O121      1.0  0.39459  0.92592  0.40600  1.0000 -0.6428361238
O   O122      1.0  0.44420  0.96437  0.32752  1.0000 -0.5680515912
O   O123      1.0  0.29900  0.87771  0.09149  1.0000 -0.552044893
O   O124      1.0  0.25933  0.83425  0.17651  1.0000 -0.6428361238
O   O125      1.0  0.26389  0.79970  0.93688  1.0000 -1.0900536094
O   O126      1.0  0.22275  0.83752  0.06352  1.0000 -1.0493552897
O   O127      1.0  0.92592  0.53133  0.40600  1.0000 -0.6428361238
O   O128      1.0  0.96437  0.52017  0.32752  1.0000 -0.5680515912
O   O129      1.0  0.87771  0.57871  0.09149  1.0000 -0.552044893
O   O130      1.0  0.83425  0.57492  0.17651  1.0000 -0.6428361238
O   O131      1.0  0.79970  0.53581  0.93688  1.0000 -1.0900536094
O   O132      1.0  0.83752  0.61477  0.06352  1.0000 -1.0493552897
O   O133      1.0  0.46867  0.39459  0.40600  1.0000 -0.6428361238
O   O134      1.0  0.47983  0.44420  0.32752  1.0000 -0.5680515912
O   O135      1.0  0.42129  0.29900  0.09149  1.0000 -0.552044893
O   O136      1.0  0.42508  0.25933  0.17651  1.0000 -0.6428361238
O   O137      1.0  0.46419  0.26389  0.93688  1.0000 -1.0950617903
O   O138      1.0  0.38523  0.22275  0.06352  1.0000 -1.0493552897
O   O139      1.0  0.60541  0.07408  0.40600  1.0000 -0.6428361238
O   O140      1.0  0.55580  0.03563  0.32752  1.0000 -0.5680515912
O   O141      1.0  0.70100  0.12229  0.09149  1.0000 -0.552044893
O   O142      1.0  0.74067  0.16575  0.17651  1.0000 -0.6428361238
O   O143      1.0  0.73611  0.20030  0.93688  1.0000 -1.0900536094
O   O144      1.0  0.77725  0.16248  0.06352  1.0000 -1.0493552897
O   O145      1.0  0.28031  0.37354  0.00000  1.0000 -0.5680515912
O   O146      1.0  0.21264  0.32078  0.00000  1.0000 -0.6140362386
O   O147      1.0  0.31505  0.52827  0.00000  1.0000 -0.6193856611
O   O148      1.0  0.33185  0.47687  0.00000  1.0000 -0.552044893
O   O149      1.0  0.09323  0.71969  0.00000  1.0000 -0.5680515912
O   O150      1.0  0.10814  0.78736  0.00000  1.0000 -0.6140362386
O   O151      1.0  0.21322  0.68495  0.00000  1.0000 -0.6193856611
O   O152      1.0  0.14502  0.66815  0.00000  1.0000 -0.552044893
O   O153      1.0  0.62646  0.90677  0.00000  1.0000 -0.5680515912
O   O154      1.0  0.67922  0.89186  0.00000  1.0000 -0.6140362386
O   O155      1.0  0.47173  0.78678  0.00000  1.0000 -0.6193856611
O   O156      1.0  0.52313  0.85498  0.00000  1.0000 -0.552044893
O   O157      1.0  0.71969  0.62646  0.00000  1.0000 -0.5680515912
O   O158      1.0  0.78736  0.67922  0.00000  1.0000 -0.6140362386
O   O159      1.0  0.68495  0.47173  0.00000  1.0000 -0.6193856611
O   O160      1.0  0.66815  0.52313  0.00000  1.0000 -0.552044893
O   O161      1.0  0.90677  0.28031  0.00000  1.0000 -0.5680515912
O   O162      1.0  0.89186  0.21264  0.00000  1.0000 -0.6140362386
O   O163      1.0  0.78678  0.31505  0.00000  1.0000 -0.6193856611
O   O164      1.0  0.85498  0.33185  0.00000  1.0000 -0.552044893
O   O165      1.0  0.37354  0.09323  0.00000  1.0000 -0.5680515912
O   O166      1.0  0.32078  0.10814  0.00000  1.0000 -0.6140362386
O   O167      1.0  0.52827  0.21322  0.00000  1.0000 -0.6193856611
O   O168      1.0  0.47687  0.14502  0.00000  1.0000 -0.552044893
O   O169      1.0  0.90677  0.62646  0.00000  1.0000 -0.5680515912
O   O170      1.0  0.89186  0.67922  0.00000  1.0000 -0.6140362386
O   O171      1.0  0.78678  0.47173  0.00000  1.0000 -0.6193856611
O   O172      1.0  0.85498  0.52313  0.00000  1.0000 -0.552044893
O   O173      1.0  0.37354  0.28031  0.00000  1.0000 -0.5680515912
O   O174      1.0  0.32078  0.21264  0.00000  1.0000 -0.6140362386
O   O175      1.0  0.52827  0.31505  0.00000  1.0000 -0.6193856611
O   O176      1.0  0.47687  0.33185  0.00000  1.0000 -0.552044893
O   O177      1.0  0.71969  0.09323  0.00000  1.0000 -0.5680515912
O   O178      1.0  0.78736  0.10814  0.00000  1.0000 -0.6140362386
O   O179      1.0  0.68495  0.21322  0.00000  1.0000 -0.6193856611
O   O180      1.0  0.66815  0.14502  0.00000  1.0000 -0.552044893
O   O181      1.0  0.09323  0.37354  0.00000  1.0000 -0.5680515912
O   O182      1.0  0.10814  0.32078  0.00000  1.0000 -0.6140362386
O   O183      1.0  0.21322  0.52827  0.00000  1.0000 -0.6193856611
O   O184      1.0  0.14502  0.47687  0.00000  1.0000 -0.552044893
O   O185      1.0  0.62646  0.71969  0.00000  1.0000 -0.5680515912
O   O186      1.0  0.67922  0.78736  0.00000  1.0000 -0.6140362386
O   O187      1.0  0.47173  0.68495  0.00000  1.0000 -0.6193856611
O   O188      1.0  0.52313  0.66815  0.00000  1.0000 -0.552044893
O   O189      1.0  0.28031  0.90677  0.00000  1.0000 -0.5680515912
O   O190      1.0  0.21264  0.89186  0.00000  1.0000 -0.6140362386
O   O191      1.0  0.31505  0.78678  0.00000  1.0000 -0.6193856611
O   O192      1.0  0.33185  0.85498  0.00000  1.0000 -0.552044893
O   O193      1.0  0.45188  0.45188  0.44019  1.0000 -1.1092870746
O   O194      1.0  0.00000  0.54812  0.44019  1.0000 -1.1092870746
O   O195      1.0  0.54812  0.00000  0.44019  1.0000 -1.1092870746
O   O196      1.0  0.54812  0.54812  0.44019  1.0000 -1.1092870746
O   O197      1.0  0.00000  0.45188  0.44019  1.0000 -1.1092870746
O   O198      1.0  0.45188  0.00000  0.44019  1.0000 -1.1092870746
O   O199      1.0  0.00000  0.54812  0.55981  1.0000 -1.1092870746
O   O200      1.0  0.45188  0.45188  0.55981  1.0000 -1.1092870746
O   O201      1.0  0.54812  0.00000  0.55981  1.0000 -1.1092870746
O   O202      1.0  0.00000  0.45188  0.55981  1.0000 -1.1092870746
O   O203      1.0  0.54812  0.54812  0.55981  1.0000 -1.1092870746
O   O204      1.0  0.45188  0.00000  0.55981  1.0000 -1.1092870746
O   O205      1.0  0.47195  0.52805  0.56148  1.0000 -1.1342779709
O   O206      1.0  0.05610  0.52805  0.56148  1.0000 -1.1342779709
O   O207      1.0  0.47195  0.94390  0.56148  1.0000 -1.1342779709
O   O208      1.0  0.52805  0.47195  0.56148  1.0000 -1.1342779709
O   O209      1.0  0.94390  0.47195  0.56148  1.0000 -1.1342779709
O   O210      1.0  0.52805  0.05610  0.56148  1.0000 -1.1342779709
O   O211      1.0  0.94390  0.47195  0.43852  1.0000 -1.1342779709
O   O212      1.0  0.52805  0.47195  0.43852  1.0000 -1.1342779709
O   O213      1.0  0.52805  0.05610  0.43852  1.0000 -1.1342779709
O   O214      1.0  0.05610  0.52805  0.43852  1.0000 -1.1342779709
O   O215      1.0  0.47195  0.52805  0.43852  1.0000 -1.1342779709
O   O216      1.0  0.47195  0.94390  0.43852  1.0000 -1.1342779709
