# DDEC6 charges by PACMAN v1.1 (https://github.com/mtap-research/PACMAN-charge/)
data_2017[Cd][sqp]3[ASR]1
_chemical_formula_sum              "Cd2 H20 C27 N4 O8"
_cell_length_a       10.169
_cell_length_b       10.827
_cell_length_c       12.703
_cell_angle_alpha    66.237
_cell_angle_beta     77.645
_cell_angle_gamma    63.601

_symmetry_space_group_name_H-M    "P 1"
_symmetry_Int_Tables_number       1

loop_
  _symmetry_equiv_pos_as_xyz
  'x, y, z'

loop_
  _atom_site_type_symbol
  _atom_site_label
  _atom_site_symmetry_multiplicity
  _atom_site_fract_x
  _atom_site_fract_y
  _atom_site_fract_z
  _atom_site_occupancy
  _atom_site_charge
Cd  Cd1       1.0  0.78814  0.97425  0.25010  1.0000 0.9171601585
Cd  Cd2       1.0  0.10982  0.98649  0.03273  1.0000 1.0022081188
H   H1        1.0  0.57536  0.99313  0.01686  1.0000 0.14006683
H   H2        1.0  0.90783  0.90985  0.78550  1.0000 0.1304729692
H   H3        1.0  0.91374  0.36163  0.26873  1.0000 0.1215107306
H   H4        1.0  0.14037  0.67065  0.48614  1.0000 0.1304729692
H   H5        1.0  0.08200  0.81352  0.37752  1.0000 0.1491011002
H   H6        1.0  0.32561  0.42832  0.42875  1.0000 0.1491011002
H   H7        1.0  0.25706  0.31073  0.48043  1.0000 0.1491011002
H   H8        1.0  0.21656  0.42891  0.53660  1.0000 0.14006683
H   H9        1.0  0.32829  0.29851  0.28934  1.0000 0.1215107306
H   H10       1.0  0.25001  0.00252  0.23110  1.0000 0.1304729692
H   H11       1.0  0.52491  0.91171  0.74933  1.0000 0.1304729692
H   H12       1.0  0.77106  0.76784  0.15329  1.0000 0.1491011002
H   H13       1.0  0.76879  0.61065  0.21180  1.0000 0.1584149353
H   H14       1.0  0.88431  0.63895  0.11170  1.0000 0.1491011002
H   H15       1.0  0.58964  0.16396  0.42583  1.0000 0.1584149353
H   H16       1.0  0.55732  0.14507  0.55650  1.0000 0.14006683
H   H17       1.0  0.50574  0.06527  0.50491  1.0000 0.1491011002
H   H18       1.0  0.04345  0.55114  0.68656  1.0000 0.1304729692
H   H19       1.0  0.98507  0.62546  0.78015  1.0000 0.1491011002
H   H20       1.0  0.11428  0.64974  0.69376  1.0000 0.14006683
C   C1        1.0  0.84900  0.97550  0.97460  1.0000 0.5890422515
C   C2        1.0  0.11260  0.51280  0.38770  1.0000 0.1491011002
C   C3        1.0  0.75510  0.95700  0.90920  1.0000 -0.0278790737
C   C4        1.0  0.72260  0.96770  0.52990  1.0000 0.2316917084
C   C5        1.0  0.31430  0.13540  0.26050  1.0000 -0.0111614712
C   C6        1.0  0.06670  0.17620  0.24410  1.0000 -0.0278790737
C   C7        1.0  0.61260  0.97250  0.94950  1.0000 -0.1013873838
C   C8        1.0  0.81130  0.92270  0.81070  1.0000 -0.1403057747
C   C9        1.0  0.01440  0.30610  0.26610  1.0000 -0.1403057747
C   C10       1.0  0.47740  0.04530  0.25880  1.0000 0.5485991092
C   C11       1.0  0.11200  0.35450  0.28440  1.0000 0.0901277638
C   C12       1.0  0.05750  0.73520  0.43680  1.0000 -0.0840463363
C   C13       1.0  0.23940  0.41100  0.46540  1.0000 -0.4791452312
C   C14       1.0  0.05560  0.49060  0.31130  1.0000 -0.1560757705
C   C15       1.0  0.26150  0.26730  0.27950  1.0000 -0.1403057747
C   C16       1.0  0.93680  0.62390  0.26380  1.0000 0.2316917084
C   C17       1.0  0.21580  0.09110  0.24340  1.0000 -0.1205721595
C   C18       1.0  0.72540  0.90680  0.74830  1.0000 0.0804844923
C   C19       1.0  0.58310  0.92320  0.78900  1.0000 -0.1347904303
C   C20       1.0  0.52580  0.95690  0.88900  1.0000 -0.0111614712
C   C21       1.0  0.83060  0.66400  0.17730  1.0000 -0.4791452312
C   C22       1.0  0.37270  0.97260  0.93430  1.0000 0.5485991092
C   C23       1.0  0.95710  0.12790  0.22880  1.0000 0.5485991092
C   C24       1.0  0.78420  0.87890  0.63970  1.0000 -0.1403057747
C   C25       1.0  0.58150  0.09670  0.50180  1.0000 -0.4791452312
C   C26       1.0  0.91530  0.77030  0.62030  1.0000 0.1491011002
C   C27       1.0  0.02440  0.63710  0.70260  1.0000 -0.4650901206
N   N1        1.0  0.92620  0.72250  0.30430  1.0000 -0.2940288731
N   N2        1.0  0.81200  0.92080  0.44850  1.0000 -0.2953795441
N   N3        1.0  0.03160  0.65190  0.38310  1.0000 0.0804844923
N   N4        1.0  0.92920  0.79830  0.50440  1.0000 0.0683878786
O   O1        1.0  0.00970  0.00520  0.20860  1.0000 -0.6290084668
O   O2        1.0  0.78890  0.02110  0.05610  1.0000 -0.5610603639
O   O3        1.0  0.32140  0.01830  0.01620  1.0000 -0.5377859123
O   O4        1.0  0.82430  0.19480  0.24290  1.0000 -0.4791452312
O   O5        1.0  0.30030  0.94070  0.88780  1.0000 -0.5458162375
O   O6        1.0  0.52760  0.91410  0.27200  1.0000 -0.5081934281
O   O7        1.0  0.98230  0.94630  0.94010  1.0000 -0.5377859123
O   O8        1.0  0.55590  0.11690  0.24430  1.0000 -0.5245632478
