# DDEC6 charges by PACMAN v1.1 (https://github.com/mtap-research/PACMAN-charge/)
data_2017[Al][acs]3[ASR]1
_chemical_formula_sum              "Al18 H84 C216 S36 O186"
_cell_length_a       33.7527
_cell_length_b       33.7527
_cell_length_c       18.1458
_cell_angle_alpha    90
_cell_angle_beta     90
_cell_angle_gamma    120

_symmetry_space_group_name_H-M    "P 1"
_symmetry_Int_Tables_number       1

loop_
  _symmetry_equiv_pos_as_xyz
  'x, y, z'

loop_
  _atom_site_type_symbol
  _atom_site_label
  _atom_site_symmetry_multiplicity
  _atom_site_fract_x
  _atom_site_fract_y
  _atom_site_fract_z
  _atom_site_occupancy
  _atom_site_charge
Al  Al1       1.0  0.60812  0.94156  0.26016  1.0000 1.6187960009
Al  Al2       1.0  0.33344  0.39188  0.26016  1.0000 1.6187960009
Al  Al3       1.0  0.05844  0.66656  0.26016  1.0000 1.6187960009
Al  Al4       1.0  0.66656  0.05844  0.23984  1.0000 1.6187960009
Al  Al5       1.0  0.94156  0.60812  0.23984  1.0000 1.6187960009
Al  Al6       1.0  0.39188  0.33344  0.23984  1.0000 1.6187960009
Al  Al7       1.0  0.39188  0.05844  0.73984  1.0000 1.6187960009
Al  Al8       1.0  0.66656  0.60812  0.73984  1.0000 1.6187960009
Al  Al9       1.0  0.94156  0.33344  0.73984  1.0000 1.6187960009
Al  Al10      1.0  0.33344  0.94156  0.76016  1.0000 1.6187960009
Al  Al11      1.0  0.05844  0.39188  0.76016  1.0000 1.6187960009
Al  Al12      1.0  0.60812  0.66656  0.76016  1.0000 1.6187960009
Al  Al13      1.0  0.72516  0.00000  0.25000  1.0000 1.6064816714
Al  Al14      1.0  0.27484  0.27484  0.25000  1.0000 1.6064816714
Al  Al15      1.0  0.00000  0.72516  0.25000  1.0000 1.6064816714
Al  Al16      1.0  0.27484  0.00000  0.75000  1.0000 1.6064816714
Al  Al17      1.0  0.72516  0.72516  0.75000  1.0000 1.6064816714
Al  Al18      1.0  0.00000  0.27484  0.75000  1.0000 1.6064816714
H   H1        1.0  0.51460  0.94590  0.41380  1.0000 0.1409939898
H   H2        1.0  0.61020  0.76030  0.92440  1.0000 0.1167024896
H   H3        1.0  0.72290  0.90330  0.09000  1.0000 0.1409939898
H   H4        1.0  0.58880  0.84910  0.09560  1.0000 0.1409939898
H   H5        1.0  0.39940  0.91890  0.58080  1.0000 0.1506186895
H   H6        1.0  0.74460  0.81060  0.92500  1.0000 0.1506186895
H   H7        1.0  0.57450  0.79030  0.90080  1.0000 0.3559819162
H   H8        1.0  0.43130  0.48540  0.41380  1.0000 0.1409939898
H   H9        1.0  0.15010  0.38980  0.92440  1.0000 0.1167024896
H   H10       1.0  0.18040  0.27710  0.09000  1.0000 0.1409939898
H   H11       1.0  0.26030  0.41120  0.09560  1.0000 0.1409939898
H   H12       1.0  0.51950  0.60060  0.58080  1.0000 0.1506186895
H   H13       1.0  0.06600  0.25540  0.92500  1.0000 0.1506186895
H   H14       1.0  0.21580  0.42550  0.90080  1.0000 0.3559819162
H   H15       1.0  0.05410  0.56870  0.41380  1.0000 0.1409939898
H   H16       1.0  0.23970  0.84990  0.92440  1.0000 0.1167024896
H   H17       1.0  0.09670  0.81960  0.09000  1.0000 0.1409939898
H   H18       1.0  0.15090  0.73970  0.09560  1.0000 0.1409939898
H   H19       1.0  0.08110  0.48050  0.58080  1.0000 0.1506186895
H   H20       1.0  0.18940  0.93400  0.92500  1.0000 0.1506186895
H   H21       1.0  0.20970  0.78420  0.90080  1.0000 0.3559819162
H   H22       1.0  0.56870  0.05410  0.08620  1.0000 0.1409939898
H   H23       1.0  0.84990  0.23970  0.57560  1.0000 0.1167024896
H   H24       1.0  0.81960  0.09670  0.41000  1.0000 0.1409939898
H   H25       1.0  0.73970  0.15090  0.40440  1.0000 0.1409939898
H   H26       1.0  0.48050  0.08110  0.91920  1.0000 0.1506186895
H   H27       1.0  0.93400  0.18940  0.57500  1.0000 0.1506186895
H   H28       1.0  0.78420  0.20970  0.59920  1.0000 0.3559819162
H   H29       1.0  0.94590  0.51460  0.08620  1.0000 0.1409939898
H   H30       1.0  0.76030  0.61020  0.57560  1.0000 0.1167024896
H   H31       1.0  0.90330  0.72290  0.41000  1.0000 0.1409939898
H   H32       1.0  0.84910  0.58880  0.40440  1.0000 0.1409939898
H   H33       1.0  0.91890  0.39940  0.91920  1.0000 0.1506186895
H   H34       1.0  0.81060  0.74460  0.57500  1.0000 0.1506186895
H   H35       1.0  0.79030  0.57450  0.59920  1.0000 0.3559819162
H   H36       1.0  0.48540  0.43130  0.08620  1.0000 0.1409939898
H   H37       1.0  0.38980  0.15010  0.57560  1.0000 0.1167024896
H   H38       1.0  0.27710  0.18040  0.41000  1.0000 0.1409939898
H   H39       1.0  0.41120  0.26030  0.40440  1.0000 0.1409939898
H   H40       1.0  0.60060  0.51950  0.91920  1.0000 0.1506186895
H   H41       1.0  0.25540  0.06600  0.57500  1.0000 0.1506186895
H   H42       1.0  0.42550  0.21580  0.59920  1.0000 0.3559819162
H   H43       1.0  0.48540  0.05410  0.58620  1.0000 0.1409939898
H   H44       1.0  0.38980  0.23970  0.07560  1.0000 0.1167024896
H   H45       1.0  0.27710  0.09670  0.91000  1.0000 0.1506186895
H   H46       1.0  0.41120  0.15090  0.90440  1.0000 0.1409939898
H   H47       1.0  0.60060  0.08110  0.41920  1.0000 0.1506186895
H   H48       1.0  0.25540  0.18940  0.07500  1.0000 0.1506186895
H   H49       1.0  0.42550  0.20970  0.09920  1.0000 0.3559819162
H   H50       1.0  0.56870  0.51460  0.58620  1.0000 0.1409939898
H   H51       1.0  0.84990  0.61020  0.07560  1.0000 0.1167024896
H   H52       1.0  0.81960  0.72290  0.91000  1.0000 0.1506186895
H   H53       1.0  0.73970  0.58880  0.90440  1.0000 0.1409939898
H   H54       1.0  0.48050  0.39940  0.41920  1.0000 0.1506186895
H   H55       1.0  0.93400  0.74460  0.07500  1.0000 0.1506186895
H   H56       1.0  0.78420  0.57450  0.09920  1.0000 0.3559819162
H   H57       1.0  0.94590  0.43130  0.58620  1.0000 0.1409939898
H   H58       1.0  0.76030  0.15010  0.07560  1.0000 0.1167024896
H   H59       1.0  0.90330  0.18040  0.91000  1.0000 0.1506186895
H   H60       1.0  0.84910  0.26030  0.90440  1.0000 0.1409939898
H   H61       1.0  0.91890  0.51950  0.41920  1.0000 0.1506186895
H   H62       1.0  0.81060  0.06600  0.07500  1.0000 0.1506186895
H   H63       1.0  0.79030  0.21580  0.09920  1.0000 0.3559819162
H   H64       1.0  0.43130  0.94590  0.91380  1.0000 0.1409939898
H   H65       1.0  0.15010  0.76030  0.42440  1.0000 0.1167024896
H   H66       1.0  0.18040  0.90330  0.59000  1.0000 0.1409939898
H   H67       1.0  0.26030  0.84910  0.59560  1.0000 0.1409939898
H   H68       1.0  0.51950  0.91890  0.08080  1.0000 0.1506186895
H   H69       1.0  0.06600  0.81060  0.42500  1.0000 0.1506186895
H   H70       1.0  0.21580  0.79030  0.40080  1.0000 0.3559819162
H   H71       1.0  0.05410  0.48540  0.91380  1.0000 0.1409939898
H   H72       1.0  0.23970  0.38980  0.42440  1.0000 0.1167024896
H   H73       1.0  0.09670  0.27710  0.59000  1.0000 0.1409939898
H   H74       1.0  0.15090  0.41120  0.59560  1.0000 0.1409939898
H   H75       1.0  0.08110  0.60060  0.08080  1.0000 0.1506186895
H   H76       1.0  0.18940  0.25540  0.42500  1.0000 0.1506186895
H   H77       1.0  0.20970  0.42550  0.40080  1.0000 0.3559819162
H   H78       1.0  0.51460  0.56870  0.91380  1.0000 0.1409939898
H   H79       1.0  0.61020  0.84990  0.42440  1.0000 0.1167024896
H   H80       1.0  0.72290  0.81960  0.59000  1.0000 0.1409939898
H   H81       1.0  0.58880  0.73970  0.59560  1.0000 0.1409939898
H   H82       1.0  0.39940  0.48050  0.08080  1.0000 0.1506186895
H   H83       1.0  0.74460  0.93400  0.42500  1.0000 0.1506186895
H   H84       1.0  0.57450  0.78420  0.40080  1.0000 0.3559819162
C   C1        1.0  0.67500  0.78044  0.91590  1.0000 -0.0116299475
C   C2        1.0  0.67110  0.74461  0.86070  1.0000 0.6174123213
C   C3        1.0  0.66250  0.91534  0.15930  1.0000 0.6293717474
C   C4        1.0  0.65800  0.88093  0.10020  1.0000 -0.0291135452
C   C5        1.0  0.59135  0.00683  0.35080  1.0000 0.6174123213
C   C6        1.0  0.49372  0.97745  0.48600  1.0000 0.069316856
C   C7        1.0  0.52232  0.97451  0.43280  1.0000 -0.0703337658
C   C8        1.0  0.56114  0.01217  0.40790  1.0000 0.0159243364
C   C9        1.0  0.63920  0.78150  0.94120  1.0000 -0.0781522225
C   C10       1.0  0.69400  0.88130  0.07400  1.0000 -0.0291135452
C   C11       1.0  0.60690  0.81800  0.01790  1.0000 -0.197198001
C   C12       1.0  0.61400  0.84930  0.07450  1.0000 -0.0018384761
C   C13       1.0  0.45378  0.93993  0.51620  1.0000 -0.0890372805
C   C14       1.0  0.42633  0.94437  0.56510  1.0000 -0.0592422795
C   C15       1.0  0.64450  0.81676  0.99750  1.0000 0.069316856
C   C16       1.0  0.71960  0.81220  0.94260  1.0000 -0.018446811
C   C17       1.0  0.68930  0.84510  0.01580  1.0000 0.0767191067
C   C18       1.0  0.72630  0.84450  0.99260  1.0000 -0.1674807742
C   C19       1.0  0.10544  0.32500  0.91590  1.0000 -0.0116299475
C   C20       1.0  0.07351  0.32890  0.86070  1.0000 0.6174123213
C   C21       1.0  0.25284  0.33750  0.15930  1.0000 0.6293717474
C   C22       1.0  0.22293  0.34200  0.10020  1.0000 -0.0291135452
C   C23       1.0  0.41548  0.40865  0.35080  1.0000 0.6174123213
C   C24       1.0  0.48373  0.50628  0.48600  1.0000 0.069316856
C   C25       1.0  0.45219  0.47768  0.43280  1.0000 -0.0703337658
C   C26       1.0  0.45103  0.43886  0.40790  1.0000 0.0159243364
C   C27       1.0  0.14230  0.36080  0.94120  1.0000 -0.0781522225
C   C28       1.0  0.18730  0.30600  0.07400  1.0000 -0.0291135452
C   C29       1.0  0.21110  0.39310  0.01790  1.0000 -0.197198001
C   C30       1.0  0.23530  0.38600  0.07450  1.0000 -0.0018384761
C   C31       1.0  0.48615  0.54622  0.51620  1.0000 -0.0890372805
C   C32       1.0  0.51804  0.57367  0.56510  1.0000 -0.0592422795
C   C33       1.0  0.17226  0.35550  0.99750  1.0000 0.069316856
C   C34       1.0  0.09260  0.28040  0.94260  1.0000 -0.018446811
C   C35       1.0  0.15580  0.31070  0.01580  1.0000 0.0767191067
C   C36       1.0  0.11820  0.27370  0.99260  1.0000 -0.1674807742
C   C37       1.0  0.21956  0.89456  0.91590  1.0000 -0.0116299475
C   C38       1.0  0.25539  0.92649  0.86070  1.0000 0.6174123213
C   C39       1.0  0.08466  0.74716  0.15930  1.0000 0.6293717474
C   C40       1.0  0.11907  0.77707  0.10020  1.0000 -0.0291135452
C   C41       1.0  0.99317  0.58452  0.35080  1.0000 0.6174123213
C   C42       1.0  0.02255  0.51627  0.48600  1.0000 0.069316856
C   C43       1.0  0.02549  0.54781  0.43280  1.0000 -0.0703337658
C   C44       1.0  0.98783  0.54897  0.40790  1.0000 0.0159243364
C   C45       1.0  0.21850  0.85770  0.94120  1.0000 -0.0781522225
C   C46       1.0  0.11870  0.81270  0.07400  1.0000 -0.0291135452
C   C47       1.0  0.18200  0.78890  0.01790  1.0000 -0.197198001
C   C48       1.0  0.15070  0.76470  0.07450  1.0000 -0.0018384761
C   C49       1.0  0.06007  0.51385  0.51620  1.0000 -0.0890372805
C   C50       1.0  0.05563  0.48196  0.56510  1.0000 -0.0592422795
C   C51       1.0  0.18324  0.82774  0.99750  1.0000 0.069316856
C   C52       1.0  0.18780  0.90740  0.94260  1.0000 -0.018446811
C   C53       1.0  0.15490  0.84420  0.01580  1.0000 0.0767191067
C   C54       1.0  0.15550  0.88180  0.99260  1.0000 -0.1674807742
C   C55       1.0  0.89456  0.21956  0.58410  1.0000 -0.0116299475
C   C56       1.0  0.92649  0.25539  0.63930  1.0000 0.6174123213
C   C57       1.0  0.74716  0.08466  0.34070  1.0000 0.6293717474
C   C58       1.0  0.77707  0.11907  0.39980  1.0000 -0.0291135452
C   C59       1.0  0.58452  0.99317  0.14920  1.0000 0.6174123213
C   C60       1.0  0.51627  0.02255  0.01400  1.0000 0.069316856
C   C61       1.0  0.54781  0.02549  0.06720  1.0000 -0.0703337658
C   C62       1.0  0.54897  0.98783  0.09210  1.0000 0.0159243364
C   C63       1.0  0.85770  0.21850  0.55880  1.0000 -0.0781522225
C   C64       1.0  0.81270  0.11870  0.42600  1.0000 -0.0291135452
C   C65       1.0  0.78890  0.18200  0.48210  1.0000 -0.197198001
C   C66       1.0  0.76470  0.15070  0.42550  1.0000 -0.0018384761
C   C67       1.0  0.51385  0.06007  0.98380  1.0000 -0.0890372805
C   C68       1.0  0.48196  0.05563  0.93490  1.0000 -0.0592422795
C   C69       1.0  0.82774  0.18324  0.50250  1.0000 0.069316856
C   C70       1.0  0.90740  0.18780  0.55740  1.0000 -0.018446811
C   C71       1.0  0.84420  0.15490  0.48420  1.0000 0.0767191067
C   C72       1.0  0.88180  0.15550  0.50740  1.0000 -0.1674807742
C   C73       1.0  0.78044  0.67500  0.58410  1.0000 -0.0116299475
C   C74       1.0  0.74461  0.67110  0.63930  1.0000 0.6174123213
C   C75       1.0  0.91534  0.66250  0.34070  1.0000 0.6293717474
C   C76       1.0  0.88093  0.65800  0.39980  1.0000 -0.0291135452
C   C77       1.0  0.00683  0.59135  0.14920  1.0000 0.6174123213
C   C78       1.0  0.97745  0.49372  0.01400  1.0000 0.069316856
C   C79       1.0  0.97451  0.52232  0.06720  1.0000 -0.0703337658
C   C80       1.0  0.01217  0.56114  0.09210  1.0000 0.0159243364
C   C81       1.0  0.78150  0.63920  0.55880  1.0000 -0.0781522225
C   C82       1.0  0.88130  0.69400  0.42600  1.0000 -0.0291135452
C   C83       1.0  0.81800  0.60690  0.48210  1.0000 -0.197198001
C   C84       1.0  0.84930  0.61400  0.42550  1.0000 -0.0018384761
C   C85       1.0  0.93993  0.45378  0.98380  1.0000 -0.0890372805
C   C86       1.0  0.94437  0.42633  0.93490  1.0000 -0.0592422795
C   C87       1.0  0.81676  0.64450  0.50250  1.0000 0.069316856
C   C88       1.0  0.81220  0.71960  0.55740  1.0000 -0.018446811
C   C89       1.0  0.84510  0.68930  0.48420  1.0000 0.0767191067
C   C90       1.0  0.84450  0.72630  0.50740  1.0000 -0.1674807742
C   C91       1.0  0.32500  0.10544  0.58410  1.0000 -0.0116299475
C   C92       1.0  0.32890  0.07351  0.63930  1.0000 0.6174123213
C   C93       1.0  0.33750  0.25284  0.34070  1.0000 0.6293717474
C   C94       1.0  0.34200  0.22293  0.39980  1.0000 -0.0291135452
C   C95       1.0  0.40865  0.41548  0.14920  1.0000 0.6174123213
C   C96       1.0  0.50628  0.48373  0.01400  1.0000 0.069316856
C   C97       1.0  0.47768  0.45219  0.06720  1.0000 -0.0703337658
C   C98       1.0  0.43886  0.45103  0.09210  1.0000 0.0159243364
C   C99       1.0  0.36080  0.14230  0.55880  1.0000 -0.0781522225
C   C100      1.0  0.30600  0.18730  0.42600  1.0000 -0.0291135452
C   C101      1.0  0.39310  0.21110  0.48210  1.0000 -0.197198001
C   C102      1.0  0.38600  0.23530  0.42550  1.0000 -0.0018384761
C   C103      1.0  0.54622  0.48615  0.98380  1.0000 -0.0890372805
C   C104      1.0  0.57367  0.51804  0.93490  1.0000 -0.0592422795
C   C105      1.0  0.35550  0.17226  0.50250  1.0000 0.069316856
C   C106      1.0  0.28040  0.09260  0.55740  1.0000 -0.018446811
C   C107      1.0  0.31070  0.15580  0.48420  1.0000 0.0767191067
C   C108      1.0  0.27370  0.11820  0.50740  1.0000 -0.1674807742
C   C109      1.0  0.32500  0.21956  0.08410  1.0000 -0.0116299475
C   C110      1.0  0.32890  0.25539  0.13930  1.0000 0.6174123213
C   C111      1.0  0.33750  0.08466  0.84070  1.0000 0.6293717474
C   C112      1.0  0.34200  0.11907  0.89980  1.0000 -0.0291135452
C   C113      1.0  0.40865  0.99317  0.64920  1.0000 0.6174123213
C   C114      1.0  0.50628  0.02255  0.51400  1.0000 0.069316856
C   C115      1.0  0.47768  0.02549  0.56720  1.0000 -0.0703337658
C   C116      1.0  0.43886  0.98783  0.59210  1.0000 0.0159243364
C   C117      1.0  0.36080  0.21850  0.05880  1.0000 -0.0781522225
C   C118      1.0  0.30600  0.11870  0.92600  1.0000 -0.0291135452
C   C119      1.0  0.39310  0.18200  0.98210  1.0000 -0.197198001
C   C120      1.0  0.38600  0.15070  0.92550  1.0000 0.0020918331
C   C121      1.0  0.54622  0.06007  0.48380  1.0000 -0.0890372805
C   C122      1.0  0.57367  0.05563  0.43490  1.0000 -0.0592422795
C   C123      1.0  0.35550  0.18324  0.00250  1.0000 0.069316856
C   C124      1.0  0.28040  0.18780  0.05740  1.0000 -0.018446811
C   C125      1.0  0.31070  0.15490  0.98420  1.0000 0.0767191067
C   C126      1.0  0.27370  0.15550  0.00740  1.0000 -0.1674807742
C   C127      1.0  0.89456  0.67500  0.08410  1.0000 -0.0116299475
C   C128      1.0  0.92649  0.67110  0.13930  1.0000 0.6174123213
C   C129      1.0  0.74716  0.66250  0.84070  1.0000 0.6293717474
C   C130      1.0  0.77707  0.65800  0.89980  1.0000 -0.0291135452
C   C131      1.0  0.58452  0.59135  0.64920  1.0000 0.6174123213
C   C132      1.0  0.51627  0.49372  0.51400  1.0000 0.069316856
C   C133      1.0  0.54781  0.52232  0.56720  1.0000 -0.0703337658
C   C134      1.0  0.54897  0.56114  0.59210  1.0000 0.0159243364
C   C135      1.0  0.85770  0.63920  0.05880  1.0000 -0.0781522225
C   C136      1.0  0.81270  0.69400  0.92600  1.0000 -0.0291135452
C   C137      1.0  0.78890  0.60690  0.98210  1.0000 -0.197198001
C   C138      1.0  0.76470  0.61400  0.92550  1.0000 0.0020918331
C   C139      1.0  0.51385  0.45378  0.48380  1.0000 -0.0890372805
C   C140      1.0  0.48196  0.42633  0.43490  1.0000 -0.0592422795
C   C141      1.0  0.82774  0.64450  0.00250  1.0000 0.069316856
C   C142      1.0  0.90740  0.71960  0.05740  1.0000 -0.018446811
C   C143      1.0  0.84420  0.68930  0.98420  1.0000 0.0767191067
C   C144      1.0  0.88180  0.72630  0.00740  1.0000 -0.1674807742
C   C145      1.0  0.78044  0.10544  0.08410  1.0000 -0.0116299475
C   C146      1.0  0.74461  0.07351  0.13930  1.0000 0.6174123213
C   C147      1.0  0.91534  0.25284  0.84070  1.0000 0.6293717474
C   C148      1.0  0.88093  0.22293  0.89980  1.0000 -0.0291135452
C   C149      1.0  0.00683  0.41548  0.64920  1.0000 0.6174123213
C   C150      1.0  0.97745  0.48373  0.51400  1.0000 0.069316856
C   C151      1.0  0.97451  0.45219  0.56720  1.0000 -0.0703337658
C   C152      1.0  0.01217  0.45103  0.59210  1.0000 0.0159243364
C   C153      1.0  0.78150  0.14230  0.05880  1.0000 -0.0781522225
C   C154      1.0  0.88130  0.18730  0.92600  1.0000 -0.0291135452
C   C155      1.0  0.81800  0.21110  0.98210  1.0000 -0.197198001
C   C156      1.0  0.84930  0.23530  0.92550  1.0000 0.0020918331
C   C157      1.0  0.93993  0.48615  0.48380  1.0000 -0.0890372805
C   C158      1.0  0.94437  0.51804  0.43490  1.0000 -0.0592422795
C   C159      1.0  0.81676  0.17226  0.00250  1.0000 0.069316856
C   C160      1.0  0.81220  0.09260  0.05740  1.0000 -0.018446811
C   C161      1.0  0.84510  0.15580  0.98420  1.0000 0.069316856
C   C162      1.0  0.84450  0.11820  0.00740  1.0000 -0.1674807742
C   C163      1.0  0.10544  0.78044  0.41590  1.0000 -0.0116299475
C   C164      1.0  0.07351  0.74461  0.36070  1.0000 0.6174123213
C   C165      1.0  0.25284  0.91534  0.65930  1.0000 0.6293717474
C   C166      1.0  0.22293  0.88093  0.60020  1.0000 -0.0291135452
C   C167      1.0  0.41548  0.00683  0.85080  1.0000 0.6174123213
C   C168      1.0  0.48373  0.97745  0.98600  1.0000 0.069316856
C   C169      1.0  0.45219  0.97451  0.93280  1.0000 -0.0703337658
C   C170      1.0  0.45103  0.01217  0.90790  1.0000 0.0145600066
C   C171      1.0  0.14230  0.78150  0.44120  1.0000 -0.0781522225
C   C172      1.0  0.18730  0.88130  0.57400  1.0000 -0.0291135452
C   C173      1.0  0.21110  0.81800  0.51790  1.0000 -0.197198001
C   C174      1.0  0.23530  0.84930  0.57450  1.0000 -0.0018384761
C   C175      1.0  0.48615  0.93993  0.01620  1.0000 -0.0890372805
C   C176      1.0  0.51804  0.94437  0.06510  1.0000 -0.0592422795
C   C177      1.0  0.17226  0.81676  0.49750  1.0000 0.069316856
C   C178      1.0  0.09260  0.81220  0.44260  1.0000 -0.018446811
C   C179      1.0  0.15580  0.84510  0.51580  1.0000 0.0767191067
C   C180      1.0  0.11820  0.84450  0.49260  1.0000 -0.1674807742
C   C181      1.0  0.21956  0.32500  0.41590  1.0000 -0.0116299475
C   C182      1.0  0.25539  0.32890  0.36070  1.0000 0.6174123213
C   C183      1.0  0.08466  0.33750  0.65930  1.0000 0.6293717474
C   C184      1.0  0.11907  0.34200  0.60020  1.0000 -0.0291135452
C   C185      1.0  0.99317  0.40865  0.85080  1.0000 0.6174123213
C   C186      1.0  0.02255  0.50628  0.98600  1.0000 0.069316856
C   C187      1.0  0.02549  0.47768  0.93280  1.0000 -0.0703337658
C   C188      1.0  0.98783  0.43886  0.90790  1.0000 0.0159243364
C   C189      1.0  0.21850  0.36080  0.44120  1.0000 -0.0781522225
C   C190      1.0  0.11870  0.30600  0.57400  1.0000 -0.0291135452
C   C191      1.0  0.18200  0.39310  0.51790  1.0000 -0.197198001
C   C192      1.0  0.15070  0.38600  0.57450  1.0000 -0.0018384761
C   C193      1.0  0.06007  0.54622  0.01620  1.0000 -0.0890372805
C   C194      1.0  0.05563  0.57367  0.06510  1.0000 -0.0592422795
C   C195      1.0  0.18324  0.35550  0.49750  1.0000 0.069316856
C   C196      1.0  0.18780  0.28040  0.44260  1.0000 -0.018446811
C   C197      1.0  0.15490  0.31070  0.51580  1.0000 0.0767191067
C   C198      1.0  0.15550  0.27370  0.49260  1.0000 -0.1674807742
C   C199      1.0  0.67500  0.89456  0.41590  1.0000 -0.0116299475
C   C200      1.0  0.67110  0.92649  0.36070  1.0000 0.6174123213
C   C201      1.0  0.66250  0.74716  0.65930  1.0000 0.6293717474
C   C202      1.0  0.65800  0.77707  0.60020  1.0000 -0.0291135452
C   C203      1.0  0.59135  0.58452  0.85080  1.0000 0.6174123213
C   C204      1.0  0.49372  0.51627  0.98600  1.0000 0.069316856
C   C205      1.0  0.52232  0.54781  0.93280  1.0000 -0.0703337658
C   C206      1.0  0.56114  0.54897  0.90790  1.0000 0.0159243364
C   C207      1.0  0.63920  0.85770  0.44120  1.0000 -0.0781522225
C   C208      1.0  0.69400  0.81270  0.57400  1.0000 -0.0291135452
C   C209      1.0  0.60690  0.78890  0.51790  1.0000 -0.197198001
C   C210      1.0  0.61400  0.76470  0.57450  1.0000 -0.0018384761
C   C211      1.0  0.45378  0.51385  0.01620  1.0000 -0.0890372805
C   C212      1.0  0.42633  0.48196  0.06510  1.0000 -0.0592422795
C   C213      1.0  0.64450  0.82774  0.49750  1.0000 0.069316856
C   C214      1.0  0.71960  0.90740  0.44260  1.0000 -0.018446811
C   C215      1.0  0.68930  0.84420  0.51580  1.0000 0.0767191067
C   C216      1.0  0.72630  0.88180  0.49260  1.0000 -0.1674807742
S   S1        1.0  0.43682  0.88258  0.48491  1.0000 1.0525754474
S   S2        1.0  0.54855  0.77322  0.00419  1.0000 1.020574828
S   S3        1.0  0.78417  0.88728  0.01685  1.0000 1.0104549528
S   S4        1.0  0.44576  0.56318  0.48491  1.0000 1.0525754474
S   S5        1.0  0.22467  0.45145  0.00419  1.0000 1.020574828
S   S6        1.0  0.10311  0.21583  0.01685  1.0000 1.0104549528
S   S7        1.0  0.11742  0.55424  0.48491  1.0000 1.0525754474
S   S8        1.0  0.22678  0.77533  0.00419  1.0000 1.020574828
S   S9        1.0  0.11272  0.89689  0.01685  1.0000 1.0104549528
S   S10       1.0  0.55424  0.11742  0.01509  1.0000 1.0525754474
S   S11       1.0  0.77533  0.22678  0.49581  1.0000 1.0104549528
S   S12       1.0  0.89689  0.11272  0.48315  1.0000 1.0104549528
S   S13       1.0  0.88258  0.43682  0.01509  1.0000 1.0525754474
S   S14       1.0  0.77322  0.54855  0.49581  1.0000 1.020574828
S   S15       1.0  0.88728  0.78417  0.48315  1.0000 1.0104549528
S   S16       1.0  0.56318  0.44576  0.01509  1.0000 1.0525754474
S   S17       1.0  0.45145  0.22467  0.49581  1.0000 1.020574828
S   S18       1.0  0.21583  0.10311  0.48315  1.0000 1.0104549528
S   S19       1.0  0.56318  0.11742  0.51509  1.0000 1.020574828
S   S20       1.0  0.45145  0.22678  0.99581  1.0000 1.020574828
S   S21       1.0  0.21583  0.11272  0.98315  1.0000 0.9934104681
S   S22       1.0  0.55424  0.43682  0.51509  1.0000 1.0525754474
S   S23       1.0  0.77533  0.54855  0.99581  1.0000 1.020574828
S   S24       1.0  0.89689  0.78417  0.98315  1.0000 0.9955949784
S   S25       1.0  0.88258  0.44576  0.51509  1.0000 1.0525754474
S   S26       1.0  0.77322  0.22467  0.99581  1.0000 1.020574828
S   S27       1.0  0.88728  0.10311  0.98315  1.0000 0.9934104681
S   S28       1.0  0.44576  0.88258  0.98491  1.0000 1.0525754474
S   S29       1.0  0.22467  0.77322  0.50419  1.0000 1.020574828
S   S30       1.0  0.10311  0.88728  0.51685  1.0000 1.0104549528
S   S31       1.0  0.11742  0.56318  0.98491  1.0000 1.0525754474
S   S32       1.0  0.22678  0.45145  0.50419  1.0000 1.020574828
S   S33       1.0  0.11272  0.21583  0.51685  1.0000 1.0104549528
S   S34       1.0  0.43682  0.55424  0.98491  1.0000 1.0525754474
S   S35       1.0  0.54855  0.77533  0.50419  1.0000 1.020574828
S   S36       1.0  0.78417  0.89689  0.51685  1.0000 1.0104549528
O   O1        1.0  0.63224  0.71427  0.84352  1.0000 -0.5377471049
O   O2        1.0  0.70721  0.75127  0.83650  1.0000 -0.5170921509
O   O3        1.0  0.70194  0.94622  0.17840  1.0000 -0.5698748777
O   O4        1.0  0.62573  0.90861  0.18466  1.0000 -0.5508148198
O   O5        1.0  0.58355  0.96739  0.33840  1.0000 -0.5508148198
O   O6        1.0  0.61987  0.04332  0.32050  1.0000 -0.5786898136
O   O7        1.0  0.39520  0.85336  0.52250  1.0000 -0.4587340032
O   O8        1.0  0.42973  0.88103  0.40830  1.0000 -0.4587340032
O   O9        1.0  0.52300  0.79084  0.02970  1.0000 -0.4587340032
O   O10       1.0  0.53824  0.73234  0.00290  1.0000 -0.4199040035
O   O11       1.0  0.79355  0.92975  0.01240  1.0000 -0.4516876414
O   O12       1.0  0.78563  0.87883  0.09740  1.0000 -0.4973617991
O   O13       1.0  0.47265  0.87520  0.49880  1.0000 -0.4516876414
O   O14       1.0  0.81082  0.87302  0.98580  1.0000 -0.4421700672
O   O15       1.0  0.54930  0.78310  0.91770  1.0000 -0.5170921509
O   O16       1.0  0.08203  0.36776  0.84352  1.0000 -0.5377471049
O   O17       1.0  0.04406  0.29279  0.83650  1.0000 -0.5170921509
O   O18       1.0  0.24428  0.29806  0.17840  1.0000 -0.5698748777
O   O19       1.0  0.28288  0.37427  0.18466  1.0000 -0.5508148198
O   O20       1.0  0.38384  0.41645  0.33840  1.0000 -0.5508148198
O   O21       1.0  0.42345  0.38013  0.32050  1.0000 -0.5786898136
O   O22       1.0  0.45816  0.60480  0.52250  1.0000 -0.4587340032
O   O23       1.0  0.45130  0.57027  0.40830  1.0000 -0.4587340032
O   O24       1.0  0.26784  0.47700  0.02970  1.0000 -0.4587340032
O   O25       1.0  0.19410  0.46176  0.00290  1.0000 -0.4199040035
O   O26       1.0  0.13620  0.20645  0.01240  1.0000 -0.4516876414
O   O27       1.0  0.09320  0.21437  0.09740  1.0000 -0.4973617991
O   O28       1.0  0.40255  0.52735  0.49880  1.0000 -0.4516876414
O   O29       1.0  0.06220  0.18918  0.98580  1.0000 -0.4421700672
O   O30       1.0  0.23380  0.45070  0.91770  1.0000 -0.5170921509
O   O31       1.0  0.28573  0.91797  0.84352  1.0000 -0.5377471049
O   O32       1.0  0.24873  0.95594  0.83650  1.0000 -0.5170921509
O   O33       1.0  0.05378  0.75572  0.17840  1.0000 -0.5698748777
O   O34       1.0  0.09139  0.71712  0.18466  1.0000 -0.5508148198
O   O35       1.0  0.03261  0.61616  0.33840  1.0000 -0.5508148198
O   O36       1.0  0.95668  0.57655  0.32050  1.0000 -0.5786898136
O   O37       1.0  0.14664  0.54184  0.52250  1.0000 -0.4587340032
O   O38       1.0  0.11897  0.54870  0.40830  1.0000 -0.4587340032
O   O39       1.0  0.20916  0.73216  0.02970  1.0000 -0.4587340032
O   O40       1.0  0.26766  0.80590  0.00290  1.0000 -0.4199040035
O   O41       1.0  0.07025  0.86380  0.01240  1.0000 -0.4516876414
O   O42       1.0  0.12117  0.90680  0.09740  1.0000 -0.4973617991
O   O43       1.0  0.12480  0.59745  0.49880  1.0000 -0.4516876414
O   O44       1.0  0.12698  0.93780  0.98580  1.0000 -0.4421700672
O   O45       1.0  0.21690  0.76620  0.91770  1.0000 -0.5170921509
O   O46       1.0  0.91797  0.28573  0.65648  1.0000 -0.5377471049
O   O47       1.0  0.95594  0.24873  0.66350  1.0000 -0.5170921509
O   O48       1.0  0.75572  0.05378  0.32160  1.0000 -0.5698748777
O   O49       1.0  0.71712  0.09139  0.31534  1.0000 -0.5508148198
O   O50       1.0  0.61616  0.03261  0.16160  1.0000 -0.5508148198
O   O51       1.0  0.57655  0.95668  0.17950  1.0000 -0.5786898136
O   O52       1.0  0.54184  0.14664  0.97750  1.0000 -0.4587340032
O   O53       1.0  0.54870  0.11897  0.09170  1.0000 -0.4587340032
O   O54       1.0  0.73216  0.20916  0.47030  1.0000 -0.4516876414
O   O55       1.0  0.80590  0.26766  0.49710  1.0000 -0.4199040035
O   O56       1.0  0.86380  0.07025  0.48760  1.0000 -0.4516876414
O   O57       1.0  0.90680  0.12117  0.40260  1.0000 -0.4930519858
O   O58       1.0  0.59745  0.12480  0.00120  1.0000 -0.4516876414
O   O59       1.0  0.93780  0.12698  0.51420  1.0000 -0.4421700672
O   O60       1.0  0.76620  0.21690  0.58230  1.0000 -0.5170921509
O   O61       1.0  0.71427  0.63224  0.65648  1.0000 -0.5377471049
O   O62       1.0  0.75127  0.70721  0.66350  1.0000 -0.5170921509
O   O63       1.0  0.94622  0.70194  0.32160  1.0000 -0.5698748777
O   O64       1.0  0.90861  0.62573  0.31534  1.0000 -0.5508148198
O   O65       1.0  0.96739  0.58355  0.16160  1.0000 -0.5508148198
O   O66       1.0  0.04332  0.61987  0.17950  1.0000 -0.5786898136
O   O67       1.0  0.85336  0.39520  0.97750  1.0000 -0.4587340032
O   O68       1.0  0.88103  0.42973  0.09170  1.0000 -0.4587340032
O   O69       1.0  0.79084  0.52300  0.47030  1.0000 -0.4587340032
O   O70       1.0  0.73234  0.53824  0.49710  1.0000 -0.4199040035
O   O71       1.0  0.92975  0.79355  0.48760  1.0000 -0.4516876414
O   O72       1.0  0.87883  0.78563  0.40260  1.0000 -0.4930519858
O   O73       1.0  0.87520  0.47265  0.00120  1.0000 -0.4516876414
O   O74       1.0  0.87302  0.81082  0.51420  1.0000 -0.4421700672
O   O75       1.0  0.78310  0.54930  0.58230  1.0000 -0.5170921509
O   O76       1.0  0.36776  0.08203  0.65648  1.0000 -0.5377471049
O   O77       1.0  0.29279  0.04406  0.66350  1.0000 -0.5170921509
O   O78       1.0  0.29806  0.24428  0.32160  1.0000 -0.5698748777
O   O79       1.0  0.37427  0.28288  0.31534  1.0000 -0.5508148198
O   O80       1.0  0.41645  0.38384  0.16160  1.0000 -0.5508148198
O   O81       1.0  0.38013  0.42345  0.17950  1.0000 -0.5786898136
O   O82       1.0  0.60480  0.45816  0.97750  1.0000 -0.4587340032
O   O83       1.0  0.57027  0.45130  0.09170  1.0000 -0.4587340032
O   O84       1.0  0.47700  0.26784  0.47030  1.0000 -0.4587340032
O   O85       1.0  0.46176  0.19410  0.49710  1.0000 -0.4199040035
O   O86       1.0  0.20645  0.13620  0.48760  1.0000 -0.4516876414
O   O87       1.0  0.21437  0.09320  0.40260  1.0000 -0.4930519858
O   O88       1.0  0.52735  0.40255  0.00120  1.0000 -0.4516876414
O   O89       1.0  0.18918  0.06220  0.51420  1.0000 -0.4421700672
O   O90       1.0  0.45070  0.23380  0.58230  1.0000 -0.5170921509
O   O91       1.0  0.36776  0.28573  0.15648  1.0000 -0.5377471049
O   O92       1.0  0.29279  0.24873  0.16350  1.0000 -0.5170921509
O   O93       1.0  0.29806  0.05378  0.82160  1.0000 -0.5698748777
O   O94       1.0  0.37427  0.09139  0.81534  1.0000 -0.5508148198
O   O95       1.0  0.41645  0.03261  0.66160  1.0000 -0.5508148198
O   O96       1.0  0.38013  0.95668  0.67950  1.0000 -0.5786898136
O   O97       1.0  0.60480  0.14664  0.47750  1.0000 -0.4516876414
O   O98       1.0  0.57027  0.11897  0.59170  1.0000 -0.4587340032
O   O99       1.0  0.47700  0.20916  0.97030  1.0000 -0.4587340032
O   O100      1.0  0.46176  0.26766  0.99710  1.0000 -0.4199040035
O   O101      1.0  0.20645  0.07025  0.98760  1.0000 -0.4516876414
O   O102      1.0  0.21437  0.12117  0.90260  1.0000 -0.4973617991
O   O103      1.0  0.52735  0.12480  0.50120  1.0000 -0.4587340032
O   O104      1.0  0.18918  0.12698  0.01420  1.0000 -0.4421700672
O   O105      1.0  0.45070  0.21690  0.08230  1.0000 -0.5170921509
O   O106      1.0  0.91797  0.63224  0.15648  1.0000 -0.5377471049
O   O107      1.0  0.95594  0.70721  0.16350  1.0000 -0.5170921509
O   O108      1.0  0.75572  0.70194  0.82160  1.0000 -0.5698748777
O   O109      1.0  0.71712  0.62573  0.81534  1.0000 -0.5508148198
O   O110      1.0  0.61616  0.58355  0.66160  1.0000 -0.5508148198
O   O111      1.0  0.57655  0.61987  0.67950  1.0000 -0.5786898136
O   O112      1.0  0.54184  0.39520  0.47750  1.0000 -0.4587340032
O   O113      1.0  0.54870  0.42973  0.59170  1.0000 -0.4587340032
O   O114      1.0  0.73216  0.52300  0.97030  1.0000 -0.4587340032
O   O115      1.0  0.80590  0.53824  0.99710  1.0000 -0.4199040035
O   O116      1.0  0.86380  0.79355  0.98760  1.0000 -0.4516876414
O   O117      1.0  0.90680  0.78563  0.90260  1.0000 -0.4973617991
O   O118      1.0  0.59745  0.47265  0.50120  1.0000 -0.4587340032
O   O119      1.0  0.93780  0.81082  0.01420  1.0000 -0.4421700672
O   O120      1.0  0.76620  0.54930  0.08230  1.0000 -0.5170921509
O   O121      1.0  0.71427  0.08203  0.15648  1.0000 -0.5377471049
O   O122      1.0  0.75127  0.04406  0.16350  1.0000 -0.5170921509
O   O123      1.0  0.94622  0.24428  0.82160  1.0000 -0.5698748777
O   O124      1.0  0.90861  0.28288  0.81534  1.0000 -0.5508148198
O   O125      1.0  0.96739  0.38384  0.66160  1.0000 -0.5508148198
O   O126      1.0  0.04332  0.42345  0.67950  1.0000 -0.5786898136
O   O127      1.0  0.85336  0.45816  0.47750  1.0000 -0.4587340032
O   O128      1.0  0.88103  0.45130  0.59170  1.0000 -0.4587340032
O   O129      1.0  0.79084  0.26784  0.97030  1.0000 -0.4587340032
O   O130      1.0  0.73234  0.19410  0.99710  1.0000 -0.4199040035
O   O131      1.0  0.92975  0.13620  0.98760  1.0000 -0.4516876414
O   O132      1.0  0.87883  0.09320  0.90260  1.0000 -0.4973617991
O   O133      1.0  0.87520  0.40255  0.50120  1.0000 -0.4516876414
O   O134      1.0  0.87302  0.06220  0.01420  1.0000 -0.4421700672
O   O135      1.0  0.78310  0.23380  0.08230  1.0000 -0.5170921509
O   O136      1.0  0.08203  0.71427  0.34352  1.0000 -0.5377471049
O   O137      1.0  0.04406  0.75127  0.33650  1.0000 -0.5170921509
O   O138      1.0  0.24428  0.94622  0.67840  1.0000 -0.5698748777
O   O139      1.0  0.28288  0.90861  0.68466  1.0000 -0.5508148198
O   O140      1.0  0.38384  0.96739  0.83840  1.0000 -0.5508148198
O   O141      1.0  0.42345  0.04332  0.82050  1.0000 -0.5786898136
O   O142      1.0  0.45816  0.85336  0.02250  1.0000 -0.4587340032
O   O143      1.0  0.45130  0.88103  0.90830  1.0000 -0.4587340032
O   O144      1.0  0.26784  0.79084  0.52970  1.0000 -0.4587340032
O   O145      1.0  0.19410  0.73234  0.50290  1.0000 -0.4199040035
O   O146      1.0  0.13620  0.92975  0.51240  1.0000 -0.4516876414
O   O147      1.0  0.09320  0.87883  0.59740  1.0000 -0.4973617991
O   O148      1.0  0.40255  0.87520  0.99880  1.0000 -0.4587340032
O   O149      1.0  0.06220  0.87302  0.48580  1.0000 -0.4421700672
O   O150      1.0  0.23380  0.78310  0.41770  1.0000 -0.5170921509
O   O151      1.0  0.28573  0.36776  0.34352  1.0000 -0.5377471049
O   O152      1.0  0.24873  0.29279  0.33650  1.0000 -0.5170921509
O   O153      1.0  0.05378  0.29806  0.67840  1.0000 -0.5698748777
O   O154      1.0  0.09139  0.37427  0.68466  1.0000 -0.5508148198
O   O155      1.0  0.03261  0.41645  0.83840  1.0000 -0.5508148198
O   O156      1.0  0.95668  0.38013  0.82050  1.0000 -0.5786898136
O   O157      1.0  0.14664  0.60480  0.02250  1.0000 -0.4587340032
O   O158      1.0  0.11897  0.57027  0.90830  1.0000 -0.4587340032
O   O159      1.0  0.20916  0.47700  0.52970  1.0000 -0.4587340032
O   O160      1.0  0.26766  0.46176  0.50290  1.0000 -0.4199040035
O   O161      1.0  0.07025  0.20645  0.51240  1.0000 -0.4516876414
O   O162      1.0  0.12117  0.21437  0.59740  1.0000 -0.4973617991
O   O163      1.0  0.12480  0.52735  0.99880  1.0000 -0.4516876414
O   O164      1.0  0.12698  0.18918  0.48580  1.0000 -0.4516876414
O   O165      1.0  0.21690  0.45070  0.41770  1.0000 -0.5170921509
O   O166      1.0  0.63224  0.91797  0.34352  1.0000 -0.5377471049
O   O167      1.0  0.70721  0.95594  0.33650  1.0000 -0.5170921509
O   O168      1.0  0.70194  0.75572  0.67840  1.0000 -0.5698748777
O   O169      1.0  0.62573  0.71712  0.68466  1.0000 -0.5508148198
O   O170      1.0  0.58355  0.61616  0.83840  1.0000 -0.5508148198
O   O171      1.0  0.61987  0.57655  0.82050  1.0000 -0.5786898136
O   O172      1.0  0.39520  0.54184  0.02250  1.0000 -0.4587340032
O   O173      1.0  0.42973  0.54870  0.90830  1.0000 -0.4587340032
O   O174      1.0  0.52300  0.73216  0.52970  1.0000 -0.4587340032
O   O175      1.0  0.53824  0.80590  0.50290  1.0000 -0.4199040035
O   O176      1.0  0.79355  0.86380  0.51240  1.0000 -0.4516876414
O   O177      1.0  0.78563  0.90680  0.59740  1.0000 -0.4973617991
O   O178      1.0  0.47265  0.59745  0.99880  1.0000 -0.4516876414
O   O179      1.0  0.81082  0.93780  0.48580  1.0000 -0.4421700672
O   O180      1.0  0.54930  0.76620  0.41770  1.0000 -0.5170921509
O   O181      1.0  0.66658  0.00000  0.25000  1.0000 -1.16012005
O   O182      1.0  0.33342  0.33342  0.25000  1.0000 -1.16012005
O   O183      1.0  0.00000  0.66658  0.25000  1.0000 -1.16012005
O   O184      1.0  0.33342  0.00000  0.75000  1.0000 -1.16012005
O   O185      1.0  0.66658  0.66658  0.75000  1.0000 -1.16012005
O   O186      1.0  0.00000  0.33342  0.75000  1.0000 -1.16012005
