# DDEC6 charges by PACMAN v1.1 (https://github.com/mtap-research/PACMAN-charge/)
data_2017[Cu][scu]3[ASR]2
_chemical_formula_sum              "Cu16 H88 C192 N16 O80"
_cell_length_a       18.6841
_cell_length_b       18.6841
_cell_length_c       34.6796
_cell_angle_alpha    90
_cell_angle_beta     90
_cell_angle_gamma    90

_symmetry_space_group_name_H-M    "P 1"
_symmetry_Int_Tables_number       1

loop_
  _symmetry_equiv_pos_as_xyz
  'x, y, z'

loop_
  _atom_site_type_symbol
  _atom_site_label
  _atom_site_symmetry_multiplicity
  _atom_site_fract_x
  _atom_site_fract_y
  _atom_site_fract_z
  _atom_site_occupancy
  _atom_site_charge
Cu  Cu1       1.0  0.73801  0.30469  0.22116  1.0000 0.8759480773
Cu  Cu2       1.0  0.69531  0.73801  0.22116  1.0000 0.8759480773
Cu  Cu3       1.0  0.26199  0.69531  0.22116  1.0000 0.8759480773
Cu  Cu4       1.0  0.30469  0.26199  0.22116  1.0000 0.8759480773
Cu  Cu5       1.0  0.23801  0.19531  0.27884  1.0000 0.8759480773
Cu  Cu6       1.0  0.76199  0.80469  0.27884  1.0000 0.8759480773
Cu  Cu7       1.0  0.80469  0.23801  0.27884  1.0000 0.8759480773
Cu  Cu8       1.0  0.19531  0.76199  0.27884  1.0000 0.8759480773
Cu  Cu9       1.0  0.26199  0.69531  0.77884  1.0000 0.8759480773
Cu  Cu10      1.0  0.30469  0.26199  0.77884  1.0000 0.8759480773
Cu  Cu11      1.0  0.73801  0.30469  0.77884  1.0000 0.8759480773
Cu  Cu12      1.0  0.69531  0.73801  0.77884  1.0000 0.8759480773
Cu  Cu13      1.0  0.76199  0.80469  0.72116  1.0000 0.8759480773
Cu  Cu14      1.0  0.23801  0.19531  0.72116  1.0000 0.8759480773
Cu  Cu15      1.0  0.19531  0.76199  0.72116  1.0000 0.8759480773
Cu  Cu16      1.0  0.80469  0.23801  0.72116  1.0000 0.8759480773
H   H1        1.0  0.02140  0.24730  0.23960  1.0000 0.1384033191
H   H2        1.0  0.75270  0.02140  0.23960  1.0000 0.1384033191
H   H3        1.0  0.97860  0.75270  0.23960  1.0000 0.1384033191
H   H4        1.0  0.24730  0.97860  0.23960  1.0000 0.1384033191
H   H5        1.0  0.52140  0.25270  0.26040  1.0000 0.1384033191
H   H6        1.0  0.47860  0.74730  0.26040  1.0000 0.1384033191
H   H7        1.0  0.74730  0.52140  0.26040  1.0000 0.1384033191
H   H8        1.0  0.25270  0.47860  0.26040  1.0000 0.1384033191
H   H9        1.0  0.97860  0.75270  0.76040  1.0000 0.1384033191
H   H10       1.0  0.24730  0.97860  0.76040  1.0000 0.1384033191
H   H11       1.0  0.02140  0.24730  0.76040  1.0000 0.1384033191
H   H12       1.0  0.75270  0.02140  0.76040  1.0000 0.1384033191
H   H13       1.0  0.47860  0.74730  0.73960  1.0000 0.1384033191
H   H14       1.0  0.52140  0.25270  0.73960  1.0000 0.1384033191
H   H15       1.0  0.25270  0.47860  0.73960  1.0000 0.1384033191
H   H16       1.0  0.74730  0.52140  0.73960  1.0000 0.1384033191
H   H17       1.0  0.13240  0.29340  0.14330  1.0000 0.1460968119
H   H18       1.0  0.70660  0.13240  0.14330  1.0000 0.1460968119
H   H19       1.0  0.86760  0.70660  0.14330  1.0000 0.1460968119
H   H20       1.0  0.29340  0.86760  0.14330  1.0000 0.1460968119
H   H21       1.0  0.63240  0.20660  0.35670  1.0000 0.1460968119
H   H22       1.0  0.36760  0.79340  0.35670  1.0000 0.1460968119
H   H23       1.0  0.79340  0.63240  0.35670  1.0000 0.1460968119
H   H24       1.0  0.20660  0.36760  0.35670  1.0000 0.1460968119
H   H25       1.0  0.86760  0.70660  0.85670  1.0000 0.1460968119
H   H26       1.0  0.29340  0.86760  0.85670  1.0000 0.1460968119
H   H27       1.0  0.13240  0.29340  0.85670  1.0000 0.1460968119
H   H28       1.0  0.70660  0.13240  0.85670  1.0000 0.1460968119
H   H29       1.0  0.36760  0.79340  0.64330  1.0000 0.1460968119
H   H30       1.0  0.63240  0.20660  0.64330  1.0000 0.1460968119
H   H31       1.0  0.20660  0.36760  0.64330  1.0000 0.1460968119
H   H32       1.0  0.79340  0.63240  0.64330  1.0000 0.1460968119
H   H33       1.0  0.91980  0.32320  0.14620  1.0000 0.1384033191
H   H34       1.0  0.67680  0.91980  0.14620  1.0000 0.1384033191
H   H35       1.0  0.08020  0.67680  0.14620  1.0000 0.1384033191
H   H36       1.0  0.32320  0.08020  0.14620  1.0000 0.1384033191
H   H37       1.0  0.41980  0.17680  0.35380  1.0000 0.1384033191
H   H38       1.0  0.58020  0.82320  0.35380  1.0000 0.1384033191
H   H39       1.0  0.82320  0.41980  0.35380  1.0000 0.1384033191
H   H40       1.0  0.17680  0.58020  0.35380  1.0000 0.1384033191
H   H41       1.0  0.08020  0.67680  0.85380  1.0000 0.1384033191
H   H42       1.0  0.32320  0.08020  0.85380  1.0000 0.1384033191
H   H43       1.0  0.91980  0.32320  0.85380  1.0000 0.1384033191
H   H44       1.0  0.67680  0.91980  0.85380  1.0000 0.1384033191
H   H45       1.0  0.58020  0.82320  0.64620  1.0000 0.1384033191
H   H46       1.0  0.41980  0.17680  0.64620  1.0000 0.1384033191
H   H47       1.0  0.17680  0.58020  0.64620  1.0000 0.1384033191
H   H48       1.0  0.82320  0.41980  0.64620  1.0000 0.1384033191
H   H49       1.0  0.09540  0.28040  0.00000  1.0000 0.1342726148
H   H50       1.0  0.71960  0.09540  0.00000  1.0000 0.1342726148
H   H51       1.0  0.90460  0.71960  0.00000  1.0000 0.1342726148
H   H52       1.0  0.28040  0.90460  0.00000  1.0000 0.1342726148
H   H53       1.0  0.59540  0.21960  0.50000  1.0000 0.1342726148
H   H54       1.0  0.40460  0.78040  0.50000  1.0000 0.1342726148
H   H55       1.0  0.78040  0.59540  0.50000  1.0000 0.1342726148
H   H56       1.0  0.21960  0.40460  0.50000  1.0000 0.1342726148
H   H57       1.0  0.01980  0.44800  0.05770  1.0000 0.1114139094
H   H58       1.0  0.55200  0.01980  0.05770  1.0000 0.1114139094
H   H59       1.0  0.98020  0.55200  0.05770  1.0000 0.1114139094
H   H60       1.0  0.44800  0.98020  0.05770  1.0000 0.1114139094
H   H61       1.0  0.51980  0.05200  0.44230  1.0000 0.1114139094
H   H62       1.0  0.48020  0.94800  0.44230  1.0000 0.1114139094
H   H63       1.0  0.94800  0.51980  0.44230  1.0000 0.1114139094
H   H64       1.0  0.05200  0.48020  0.44230  1.0000 0.1114139094
H   H65       1.0  0.98020  0.55200  0.94230  1.0000 0.1114139094
H   H66       1.0  0.44800  0.98020  0.94230  1.0000 0.1114139094
H   H67       1.0  0.01980  0.44800  0.94230  1.0000 0.1114139094
H   H68       1.0  0.55200  0.01980  0.94230  1.0000 0.1114139094
H   H69       1.0  0.48020  0.94800  0.55770  1.0000 0.1114139094
H   H70       1.0  0.51980  0.05200  0.55770  1.0000 0.1114139094
H   H71       1.0  0.05200  0.48020  0.55770  1.0000 0.1114139094
H   H72       1.0  0.94800  0.51980  0.55770  1.0000 0.1114139094
H   H73       1.0  0.98830  0.36170  0.09350  1.0000 0.2731858364
H   H74       1.0  0.63830  0.98830  0.09350  1.0000 0.2731858364
H   H75       1.0  0.01170  0.63830  0.09350  1.0000 0.2731858364
H   H76       1.0  0.36170  0.01170  0.09350  1.0000 0.2731858364
H   H77       1.0  0.48830  0.13830  0.40650  1.0000 0.2731858364
H   H78       1.0  0.51170  0.86170  0.40650  1.0000 0.2731858364
H   H79       1.0  0.86170  0.48830  0.40650  1.0000 0.2731858364
H   H80       1.0  0.13830  0.51170  0.40650  1.0000 0.2731858364
H   H81       1.0  0.01170  0.63830  0.90650  1.0000 0.2731858364
H   H82       1.0  0.36170  0.01170  0.90650  1.0000 0.2731858364
H   H83       1.0  0.98830  0.36170  0.90650  1.0000 0.2731858364
H   H84       1.0  0.63830  0.98830  0.90650  1.0000 0.2731858364
H   H85       1.0  0.51170  0.86170  0.59350  1.0000 0.2731858364
H   H86       1.0  0.48830  0.13830  0.59350  1.0000 0.2731858364
H   H87       1.0  0.13830  0.51170  0.59350  1.0000 0.2731858364
H   H88       1.0  0.86170  0.48830  0.59350  1.0000 0.2731858364
C   C1        1.0  0.88940  0.28270  0.21685  1.0000 0.5863399862
C   C2        1.0  0.71730  0.88940  0.21685  1.0000 0.5863399862
C   C3        1.0  0.11060  0.71730  0.21685  1.0000 0.5863399862
C   C4        1.0  0.28270  0.11060  0.21685  1.0000 0.5863399862
C   C5        1.0  0.38940  0.21730  0.28315  1.0000 0.5863399862
C   C6        1.0  0.61060  0.78270  0.28315  1.0000 0.5863399862
C   C7        1.0  0.78270  0.38940  0.28315  1.0000 0.5863399862
C   C8        1.0  0.21730  0.61060  0.28315  1.0000 0.5863399862
C   C9        1.0  0.11060  0.71730  0.78315  1.0000 0.5863399862
C   C10       1.0  0.28270  0.11060  0.78315  1.0000 0.5863399862
C   C11       1.0  0.88940  0.28270  0.78315  1.0000 0.5863399862
C   C12       1.0  0.71730  0.88940  0.78315  1.0000 0.5863399862
C   C13       1.0  0.61060  0.78270  0.71685  1.0000 0.5863399862
C   C14       1.0  0.38940  0.21730  0.71685  1.0000 0.5863399862
C   C15       1.0  0.21730  0.61060  0.71685  1.0000 0.5863399862
C   C16       1.0  0.78270  0.38940  0.71685  1.0000 0.5863399862
C   C17       1.0  0.15560  0.25070  0.21443  1.0000 0.5863399862
C   C18       1.0  0.74930  0.15560  0.21443  1.0000 0.5863399862
C   C19       1.0  0.84440  0.74930  0.21443  1.0000 0.5863399862
C   C20       1.0  0.25070  0.84440  0.21443  1.0000 0.5863399862
C   C21       1.0  0.65560  0.24930  0.28557  1.0000 0.5863399862
C   C22       1.0  0.34440  0.75070  0.28557  1.0000 0.5863399862
C   C23       1.0  0.75070  0.65560  0.28557  1.0000 0.5863399862
C   C24       1.0  0.24930  0.34440  0.28557  1.0000 0.5863399862
C   C25       1.0  0.84440  0.74930  0.78557  1.0000 0.5863399862
C   C26       1.0  0.25070  0.84440  0.78557  1.0000 0.5863399862
C   C27       1.0  0.15560  0.25070  0.78557  1.0000 0.5863399862
C   C28       1.0  0.74930  0.15560  0.78557  1.0000 0.5863399862
C   C29       1.0  0.34440  0.75070  0.71443  1.0000 0.5863399862
C   C30       1.0  0.65560  0.24930  0.71443  1.0000 0.5863399862
C   C31       1.0  0.24930  0.34440  0.71443  1.0000 0.5863399862
C   C32       1.0  0.75070  0.65560  0.71443  1.0000 0.5863399862
C   C33       1.0  0.08760  0.26710  0.19459  1.0000 -0.0265957189
C   C34       1.0  0.73290  0.08760  0.19459  1.0000 -0.0265957189
C   C35       1.0  0.91240  0.73290  0.19459  1.0000 -0.0265957189
C   C36       1.0  0.26710  0.91240  0.19459  1.0000 -0.0265957189
C   C37       1.0  0.58760  0.23290  0.30541  1.0000 -0.0265957189
C   C38       1.0  0.41240  0.76710  0.30541  1.0000 -0.0265957189
C   C39       1.0  0.76710  0.58760  0.30541  1.0000 -0.0265957189
C   C40       1.0  0.23290  0.41240  0.30541  1.0000 -0.0265957189
C   C41       1.0  0.91240  0.73290  0.80541  1.0000 -0.0265957189
C   C42       1.0  0.26710  0.91240  0.80541  1.0000 -0.0265957189
C   C43       1.0  0.08760  0.26710  0.80541  1.0000 -0.0265957189
C   C44       1.0  0.73290  0.08760  0.80541  1.0000 -0.0265957189
C   C45       1.0  0.41240  0.76710  0.69459  1.0000 -0.0265957189
C   C46       1.0  0.58760  0.23290  0.69459  1.0000 -0.0265957189
C   C47       1.0  0.23290  0.41240  0.69459  1.0000 -0.0265957189
C   C48       1.0  0.76710  0.58760  0.69459  1.0000 -0.0265957189
C   C49       1.0  0.96010  0.28690  0.19583  1.0000 -0.0095413717
C   C50       1.0  0.71310  0.96010  0.19583  1.0000 -0.0095413717
C   C51       1.0  0.03990  0.71310  0.19583  1.0000 -0.0095413717
C   C52       1.0  0.28690  0.03990  0.19583  1.0000 -0.0095413717
C   C53       1.0  0.46010  0.21310  0.30417  1.0000 -0.0095413717
C   C54       1.0  0.53990  0.78690  0.30417  1.0000 -0.0095413717
C   C55       1.0  0.78690  0.46010  0.30417  1.0000 -0.0095413717
C   C56       1.0  0.21310  0.53990  0.30417  1.0000 -0.0095413717
C   C57       1.0  0.03990  0.71310  0.80417  1.0000 -0.0095413717
C   C58       1.0  0.28690  0.03990  0.80417  1.0000 -0.0095413717
C   C59       1.0  0.96010  0.28690  0.80417  1.0000 -0.0095413717
C   C60       1.0  0.71310  0.96010  0.80417  1.0000 -0.0095413717
C   C61       1.0  0.53990  0.78690  0.69583  1.0000 -0.0095413717
C   C62       1.0  0.46010  0.21310  0.69583  1.0000 -0.0095413717
C   C63       1.0  0.21310  0.53990  0.69583  1.0000 -0.0095413717
C   C64       1.0  0.78690  0.46010  0.69583  1.0000 -0.0095413717
C   C65       1.0  0.02300  0.26410  0.21442  1.0000 -0.0997964209
C   C66       1.0  0.73590  0.02300  0.21442  1.0000 -0.0997964209
C   C67       1.0  0.97700  0.73590  0.21442  1.0000 -0.0997964209
C   C68       1.0  0.26410  0.97700  0.21442  1.0000 -0.0997964209
C   C69       1.0  0.52300  0.23590  0.28558  1.0000 -0.0997964209
C   C70       1.0  0.47700  0.76410  0.28558  1.0000 -0.0997964209
C   C71       1.0  0.76410  0.52300  0.28558  1.0000 -0.0997964209
C   C72       1.0  0.23590  0.47700  0.28558  1.0000 -0.0997964209
C   C73       1.0  0.97700  0.73590  0.78558  1.0000 -0.0997964209
C   C74       1.0  0.26410  0.97700  0.78558  1.0000 -0.0997964209
C   C75       1.0  0.02300  0.26410  0.78558  1.0000 -0.0997964209
C   C76       1.0  0.73590  0.02300  0.78558  1.0000 -0.0997964209
C   C77       1.0  0.47700  0.76410  0.71442  1.0000 -0.0997964209
C   C78       1.0  0.52300  0.23590  0.71442  1.0000 -0.0997964209
C   C79       1.0  0.23590  0.47700  0.71442  1.0000 -0.0997964209
C   C80       1.0  0.76410  0.52300  0.71442  1.0000 -0.0997964209
C   C81       1.0  0.08910  0.29120  0.15650  1.0000 -0.1590567619
C   C82       1.0  0.70880  0.08910  0.15650  1.0000 -0.1590567619
C   C83       1.0  0.91090  0.70880  0.15650  1.0000 -0.1590567619
C   C84       1.0  0.29120  0.91090  0.15650  1.0000 -0.1590567619
C   C85       1.0  0.58910  0.20880  0.34350  1.0000 -0.1590567619
C   C86       1.0  0.41090  0.79120  0.34350  1.0000 -0.1590567619
C   C87       1.0  0.79120  0.58910  0.34350  1.0000 -0.1590567619
C   C88       1.0  0.20880  0.41090  0.34350  1.0000 -0.1590567619
C   C89       1.0  0.91090  0.70880  0.84350  1.0000 -0.1590567619
C   C90       1.0  0.29120  0.91090  0.84350  1.0000 -0.1590567619
C   C91       1.0  0.08910  0.29120  0.84350  1.0000 -0.1590567619
C   C92       1.0  0.70880  0.08910  0.84350  1.0000 -0.1590567619
C   C93       1.0  0.41090  0.79120  0.65650  1.0000 -0.1590567619
C   C94       1.0  0.58910  0.20880  0.65650  1.0000 -0.1590567619
C   C95       1.0  0.20880  0.41090  0.65650  1.0000 -0.1590567619
C   C96       1.0  0.79120  0.58910  0.65650  1.0000 -0.1590567619
C   C97       1.0  0.02620  0.31180  0.13840  1.0000 0.2174929132
C   C98       1.0  0.68820  0.02620  0.13840  1.0000 0.2174929132
C   C99       1.0  0.97380  0.68820  0.13840  1.0000 0.2174929132
C   C100      1.0  0.31180  0.97380  0.13840  1.0000 0.2174929132
C   C101      1.0  0.52620  0.18820  0.36160  1.0000 0.2174929132
C   C102      1.0  0.47380  0.81180  0.36160  1.0000 0.2174929132
C   C103      1.0  0.81180  0.52620  0.36160  1.0000 0.2174929132
C   C104      1.0  0.18820  0.47380  0.36160  1.0000 0.2174929132
C   C105      1.0  0.97380  0.68820  0.86160  1.0000 0.2174929132
C   C106      1.0  0.31180  0.97380  0.86160  1.0000 0.2174929132
C   C107      1.0  0.02620  0.31180  0.86160  1.0000 0.2174929132
C   C108      1.0  0.68820  0.02620  0.86160  1.0000 0.2174929132
C   C109      1.0  0.47380  0.81180  0.63840  1.0000 0.2174929132
C   C110      1.0  0.52620  0.18820  0.63840  1.0000 0.2174929132
C   C111      1.0  0.18820  0.47380  0.63840  1.0000 0.2174929132
C   C112      1.0  0.81180  0.52620  0.63840  1.0000 0.2174929132
C   C113      1.0  0.96200  0.30940  0.15841  1.0000 -0.180784295
C   C114      1.0  0.69060  0.96200  0.15841  1.0000 -0.180784295
C   C115      1.0  0.03800  0.69060  0.15841  1.0000 -0.180784295
C   C116      1.0  0.30940  0.03800  0.15841  1.0000 -0.180784295
C   C117      1.0  0.46200  0.19060  0.34159  1.0000 -0.180784295
C   C118      1.0  0.53800  0.80940  0.34159  1.0000 -0.180784295
C   C119      1.0  0.80940  0.46200  0.34159  1.0000 -0.180784295
C   C120      1.0  0.19060  0.53800  0.34159  1.0000 -0.180784295
C   C121      1.0  0.03800  0.69060  0.84159  1.0000 -0.180784295
C   C122      1.0  0.30940  0.03800  0.84159  1.0000 -0.180784295
C   C123      1.0  0.96200  0.30940  0.84159  1.0000 -0.180784295
C   C124      1.0  0.69060  0.96200  0.84159  1.0000 -0.180784295
C   C125      1.0  0.53800  0.80940  0.65841  1.0000 -0.180784295
C   C126      1.0  0.46200  0.19060  0.65841  1.0000 -0.180784295
C   C127      1.0  0.19060  0.53800  0.65841  1.0000 -0.180784295
C   C128      1.0  0.80940  0.46200  0.65841  1.0000 -0.180784295
C   C129      1.0  0.01280  0.46190  0.00000  1.0000 0.0798407851
C   C130      1.0  0.53810  0.01280  0.00000  1.0000 0.0798407851
C   C131      1.0  0.98720  0.53810  0.00000  1.0000 0.0798407851
C   C132      1.0  0.46190  0.98720  0.00000  1.0000 0.0798407851
C   C133      1.0  0.51280  0.03810  0.50000  1.0000 0.0798407851
C   C134      1.0  0.48720  0.96190  0.50000  1.0000 0.0798407851
C   C135      1.0  0.96190  0.51280  0.50000  1.0000 0.0798407851
C   C136      1.0  0.03810  0.48720  0.50000  1.0000 0.0798407851
C   C137      1.0  0.07260  0.32460  0.00000  1.0000 -0.0997964209
C   C138      1.0  0.67540  0.07260  0.00000  1.0000 -0.0997964209
C   C139      1.0  0.92740  0.67540  0.00000  1.0000 -0.0997964209
C   C140      1.0  0.32460  0.92740  0.00000  1.0000 -0.0997964209
C   C141      1.0  0.57260  0.17540  0.50000  1.0000 -0.0997964209
C   C142      1.0  0.42740  0.82460  0.50000  1.0000 -0.0997964209
C   C143      1.0  0.82460  0.57260  0.50000  1.0000 -0.0997964209
C   C144      1.0  0.17540  0.42740  0.50000  1.0000 -0.0997964209
C   C145      1.0  0.02840  0.42530  0.03432  1.0000 -0.180784295
C   C146      1.0  0.57470  0.02840  0.03432  1.0000 -0.180784295
C   C147      1.0  0.97160  0.57470  0.03432  1.0000 -0.180784295
C   C148      1.0  0.42530  0.97160  0.03432  1.0000 -0.180784295
C   C149      1.0  0.52840  0.07470  0.46568  1.0000 -0.180784295
C   C150      1.0  0.47160  0.92530  0.46568  1.0000 -0.180784295
C   C151      1.0  0.92530  0.52840  0.46568  1.0000 -0.180784295
C   C152      1.0  0.07470  0.47160  0.46568  1.0000 -0.180784295
C   C153      1.0  0.97160  0.57470  0.96568  1.0000 -0.180784295
C   C154      1.0  0.42530  0.97160  0.96568  1.0000 -0.180784295
C   C155      1.0  0.02840  0.42530  0.96568  1.0000 -0.180784295
C   C156      1.0  0.57470  0.02840  0.96568  1.0000 -0.180784295
C   C157      1.0  0.47160  0.92530  0.53432  1.0000 -0.180784295
C   C158      1.0  0.52840  0.07470  0.53432  1.0000 -0.180784295
C   C159      1.0  0.07470  0.47160  0.53432  1.0000 -0.180784295
C   C160      1.0  0.92530  0.52840  0.53432  1.0000 -0.180784295
C   C161      1.0  0.05570  0.35750  0.03445  1.0000 -0.0265957189
C   C162      1.0  0.64250  0.05570  0.03445  1.0000 -0.0265957189
C   C163      1.0  0.94430  0.64250  0.03445  1.0000 -0.0265957189
C   C164      1.0  0.35750  0.94430  0.03445  1.0000 -0.0265957189
C   C165      1.0  0.55570  0.14250  0.46555  1.0000 -0.0265957189
C   C166      1.0  0.44430  0.85750  0.46555  1.0000 -0.0265957189
C   C167      1.0  0.85750  0.55570  0.46555  1.0000 -0.0265957189
C   C168      1.0  0.14250  0.44430  0.46555  1.0000 -0.0265957189
C   C169      1.0  0.94430  0.64250  0.96555  1.0000 -0.0265957189
C   C170      1.0  0.35750  0.94430  0.96555  1.0000 -0.0265957189
C   C171      1.0  0.05570  0.35750  0.96555  1.0000 -0.0265957189
C   C172      1.0  0.64250  0.05570  0.96555  1.0000 -0.0265957189
C   C173      1.0  0.44430  0.85750  0.53445  1.0000 -0.0265957189
C   C174      1.0  0.55570  0.14250  0.53445  1.0000 -0.0265957189
C   C175      1.0  0.14250  0.44430  0.53445  1.0000 -0.0265957189
C   C176      1.0  0.85750  0.55570  0.53445  1.0000 -0.0265957189
C   C177      1.0  0.07040  0.32090  0.07152  1.0000 0.4639870732
C   C178      1.0  0.67910  0.07040  0.07152  1.0000 0.4639870732
C   C179      1.0  0.92960  0.67910  0.07152  1.0000 0.4639870732
C   C180      1.0  0.32090  0.92960  0.07152  1.0000 0.4639870732
C   C181      1.0  0.57040  0.17910  0.42848  1.0000 0.4639870732
C   C182      1.0  0.42960  0.82090  0.42848  1.0000 0.4639870732
C   C183      1.0  0.82090  0.57040  0.42848  1.0000 0.4639870732
C   C184      1.0  0.17910  0.42960  0.42848  1.0000 0.4639870732
C   C185      1.0  0.92960  0.67910  0.92848  1.0000 0.4639870732
C   C186      1.0  0.32090  0.92960  0.92848  1.0000 0.4639870732
C   C187      1.0  0.07040  0.32090  0.92848  1.0000 0.4639870732
C   C188      1.0  0.67910  0.07040  0.92848  1.0000 0.4639870732
C   C189      1.0  0.42960  0.82090  0.57152  1.0000 0.4639870732
C   C190      1.0  0.57040  0.17910  0.57152  1.0000 0.4639870732
C   C191      1.0  0.17910  0.42960  0.57152  1.0000 0.4639870732
C   C192      1.0  0.82090  0.57040  0.57152  1.0000 0.4639870732
N   N1        1.0  0.02400  0.33510  0.09972  1.0000 -0.3558622987
N   N2        1.0  0.66490  0.02400  0.09972  1.0000 -0.3558622987
N   N3        1.0  0.97600  0.66490  0.09972  1.0000 -0.3558622987
N   N4        1.0  0.33510  0.97600  0.09972  1.0000 -0.3558622987
N   N5        1.0  0.52400  0.16490  0.40028  1.0000 -0.3558622987
N   N6        1.0  0.47600  0.83510  0.40028  1.0000 -0.3558622987
N   N7        1.0  0.83510  0.52400  0.40028  1.0000 -0.3558622987
N   N8        1.0  0.16490  0.47600  0.40028  1.0000 -0.3558622987
N   N9        1.0  0.97600  0.66490  0.90028  1.0000 -0.3558622987
N   N10       1.0  0.33510  0.97600  0.90028  1.0000 -0.3558622987
N   N11       1.0  0.02400  0.33510  0.90028  1.0000 -0.3558622987
N   N12       1.0  0.66490  0.02400  0.90028  1.0000 -0.3558622987
N   N13       1.0  0.47600  0.83510  0.59972  1.0000 -0.3558622987
N   N14       1.0  0.52400  0.16490  0.59972  1.0000 -0.3558622987
N   N15       1.0  0.16490  0.47600  0.59972  1.0000 -0.3558622987
N   N16       1.0  0.83510  0.52400  0.59972  1.0000 -0.3558622987
O   O1        1.0  0.83700  0.31280  0.20199  1.0000 -0.5174854265
O   O2        1.0  0.68720  0.83700  0.20199  1.0000 -0.5174854265
O   O3        1.0  0.16300  0.68720  0.20199  1.0000 -0.5174854265
O   O4        1.0  0.31280  0.16300  0.20199  1.0000 -0.5174854265
O   O5        1.0  0.33700  0.18720  0.29801  1.0000 -0.5174854265
O   O6        1.0  0.66300  0.81280  0.29801  1.0000 -0.5174854265
O   O7        1.0  0.81280  0.33700  0.29801  1.0000 -0.5174854265
O   O8        1.0  0.18720  0.66300  0.29801  1.0000 -0.5174854265
O   O9        1.0  0.16300  0.68720  0.79801  1.0000 -0.5174854265
O   O10       1.0  0.31280  0.16300  0.79801  1.0000 -0.5174854265
O   O11       1.0  0.83700  0.31280  0.79801  1.0000 -0.5174854265
O   O12       1.0  0.68720  0.83700  0.79801  1.0000 -0.5174854265
O   O13       1.0  0.66300  0.81280  0.70199  1.0000 -0.5174854265
O   O14       1.0  0.33700  0.18720  0.70199  1.0000 -0.5174854265
O   O15       1.0  0.18720  0.66300  0.70199  1.0000 -0.5174854265
O   O16       1.0  0.81280  0.33700  0.70199  1.0000 -0.5174854265
O   O17       1.0  0.21240  0.26720  0.19641  1.0000 -0.5279330863
O   O18       1.0  0.73280  0.21240  0.19641  1.0000 -0.5279330863
O   O19       1.0  0.78760  0.73280  0.19641  1.0000 -0.5279330863
O   O20       1.0  0.26720  0.78760  0.19641  1.0000 -0.5279330863
O   O21       1.0  0.71240  0.23280  0.30359  1.0000 -0.5279330863
O   O22       1.0  0.28760  0.76720  0.30359  1.0000 -0.5279330863
O   O23       1.0  0.76720  0.71240  0.30359  1.0000 -0.5279330863
O   O24       1.0  0.23280  0.28760  0.30359  1.0000 -0.5279330863
O   O25       1.0  0.78760  0.73280  0.80359  1.0000 -0.5279330863
O   O26       1.0  0.26720  0.78760  0.80359  1.0000 -0.5279330863
O   O27       1.0  0.21240  0.26720  0.80359  1.0000 -0.5279330863
O   O28       1.0  0.73280  0.21240  0.80359  1.0000 -0.5279330863
O   O29       1.0  0.28760  0.76720  0.69641  1.0000 -0.5279330863
O   O30       1.0  0.71240  0.23280  0.69641  1.0000 -0.5279330863
O   O31       1.0  0.23280  0.28760  0.69641  1.0000 -0.5279330863
O   O32       1.0  0.76720  0.71240  0.69641  1.0000 -0.5279330863
O   O33       1.0  0.15380  0.22250  0.24758  1.0000 -0.5279330863
O   O34       1.0  0.77750  0.15380  0.24758  1.0000 -0.5279330863
O   O35       1.0  0.84620  0.77750  0.24758  1.0000 -0.5279330863
O   O36       1.0  0.22250  0.84620  0.24758  1.0000 -0.5279330863
O   O37       1.0  0.65380  0.27750  0.25242  1.0000 -0.5279330863
O   O38       1.0  0.34620  0.72250  0.25242  1.0000 -0.5279330863
O   O39       1.0  0.72250  0.65380  0.25242  1.0000 -0.5279330863
O   O40       1.0  0.27750  0.34620  0.25242  1.0000 -0.5279330863
O   O41       1.0  0.84620  0.77750  0.75242  1.0000 -0.5279330863
O   O42       1.0  0.22250  0.84620  0.75242  1.0000 -0.5279330863
O   O43       1.0  0.15380  0.22250  0.75242  1.0000 -0.5279330863
O   O44       1.0  0.77750  0.15380  0.75242  1.0000 -0.5279330863
O   O45       1.0  0.34620  0.72250  0.74758  1.0000 -0.5279330863
O   O46       1.0  0.65380  0.27750  0.74758  1.0000 -0.5279330863
O   O47       1.0  0.27750  0.34620  0.74758  1.0000 -0.5279330863
O   O48       1.0  0.72250  0.65380  0.74758  1.0000 -0.5279330863
O   O49       1.0  0.89063  0.24930  0.24900  1.0000 -0.5279330863
O   O50       1.0  0.75070  0.89063  0.24900  1.0000 -0.5279330863
O   O51       1.0  0.10937  0.75070  0.24900  1.0000 -0.5279330863
O   O52       1.0  0.24930  0.10937  0.24900  1.0000 -0.5279330863
O   O53       1.0  0.39063  0.25070  0.25100  1.0000 -0.5279330863
O   O54       1.0  0.60937  0.74930  0.25100  1.0000 -0.5279330863
O   O55       1.0  0.74930  0.39063  0.25100  1.0000 -0.5279330863
O   O56       1.0  0.25070  0.60937  0.25100  1.0000 -0.5279330863
O   O57       1.0  0.10937  0.75070  0.75100  1.0000 -0.5279330863
O   O58       1.0  0.24930  0.10937  0.75100  1.0000 -0.5279330863
O   O59       1.0  0.89063  0.24930  0.75100  1.0000 -0.5279330863
O   O60       1.0  0.75070  0.89063  0.75100  1.0000 -0.5279330863
O   O61       1.0  0.60937  0.74930  0.74900  1.0000 -0.5279330863
O   O62       1.0  0.39063  0.25070  0.74900  1.0000 -0.5279330863
O   O63       1.0  0.25070  0.60937  0.74900  1.0000 -0.5279330863
O   O64       1.0  0.74930  0.39063  0.74900  1.0000 -0.5279330863
O   O65       1.0  0.12210  0.28080  0.07506  1.0000 -0.4542085718
O   O66       1.0  0.71920  0.12210  0.07506  1.0000 -0.4552469046
O   O67       1.0  0.87790  0.71920  0.07506  1.0000 -0.4552469046
O   O68       1.0  0.28080  0.87790  0.07506  1.0000 -0.4542085718
O   O69       1.0  0.62210  0.21920  0.42494  1.0000 -0.4552469046
O   O70       1.0  0.37790  0.78080  0.42494  1.0000 -0.4542085718
O   O71       1.0  0.78080  0.62210  0.42494  1.0000 -0.4552469046
O   O72       1.0  0.21920  0.37790  0.42494  1.0000 -0.4542085718
O   O73       1.0  0.87790  0.71920  0.92494  1.0000 -0.4542085718
O   O74       1.0  0.28080  0.87790  0.92494  1.0000 -0.4542085718
O   O75       1.0  0.12210  0.28080  0.92494  1.0000 -0.4542085718
O   O76       1.0  0.71920  0.12210  0.92494  1.0000 -0.4542085718
O   O77       1.0  0.37790  0.78080  0.57506  1.0000 -0.4542085718
O   O78       1.0  0.62210  0.21920  0.57506  1.0000 -0.4542085718
O   O79       1.0  0.21920  0.37790  0.57506  1.0000 -0.4542085718
O   O80       1.0  0.78080  0.62210  0.57506  1.0000 -0.4542085718
