# DDEC6 charges by PACMAN v1.1 (https://github.com/mtap-research/PACMAN-charge/)
data_2017[Co][scu]3[ASR]1
_chemical_formula_sum              "Co16 H80 C148 O80"
_cell_length_a       12.233
_cell_length_b       26.126
_cell_length_c       26.126
_cell_angle_alpha    90
_cell_angle_beta     90
_cell_angle_gamma    90

_symmetry_space_group_name_H-M    "P 1"
_symmetry_Int_Tables_number       1

loop_
  _symmetry_equiv_pos_as_xyz
  'x, y, z'

loop_
  _atom_site_type_symbol
  _atom_site_label
  _atom_site_symmetry_multiplicity
  _atom_site_fract_x
  _atom_site_fract_y
  _atom_site_fract_z
  _atom_site_occupancy
  _atom_site_charge
Co  Co1       1.0  0.42417  0.49493  0.03640  1.0000 0.9070399741
Co  Co2       1.0  0.57583  0.50507  0.53640  1.0000 0.9070399741
Co  Co3       1.0  0.57583  0.99493  0.46360  1.0000 0.9070399741
Co  Co4       1.0  0.42417  0.00507  0.96360  1.0000 0.9046562226
Co  Co5       1.0  0.57583  0.50507  0.96360  1.0000 0.9070399741
Co  Co6       1.0  0.42417  0.49493  0.46360  1.0000 0.9070399741
Co  Co7       1.0  0.42417  0.00507  0.53640  1.0000 0.9070399741
Co  Co8       1.0  0.57583  0.99493  0.03640  1.0000 0.9070399741
Co  Co9       1.0  0.63617  0.22056  0.25000  1.0000 0.9330831082
Co  Co10      1.0  0.48267  0.29357  0.25000  1.0000 0.8856846204
Co  Co11      1.0  0.36383  0.77944  0.75000  1.0000 0.9330831082
Co  Co12      1.0  0.51733  0.70643  0.75000  1.0000 0.8828912289
Co  Co13      1.0  0.36383  0.72056  0.25000  1.0000 0.9330831082
Co  Co14      1.0  0.51733  0.79357  0.25000  1.0000 0.8856846204
Co  Co15      1.0  0.63617  0.27944  0.75000  1.0000 0.9330831082
Co  Co16      1.0  0.48267  0.20643  0.75000  1.0000 0.8856846204
H   H1        1.0  0.58410  0.38290  0.12930  1.0000 0.1484862568
H   H2        1.0  0.82640  0.27800  0.11910  1.0000 0.1375884702
H   H3        1.0  0.79020  0.38470  0.00780  1.0000 0.1563012958
H   H4        1.0  0.91310  0.23850  0.05320  1.0000 0.1037884929
H   H5        1.0  0.00790  0.27350  0.07400  1.0000 0.1060931285
H   H6        1.0  0.06320  0.17540  0.02270  1.0000 0.1037884929
H   H7        1.0  0.15590  0.19660  0.98670  1.0000 0.1037884929
H   H8        1.0  0.24820  0.13340  0.02450  1.0000 0.1375884702
H   H9        1.0  0.28140  0.24320  0.13150  1.0000 0.1484862568
H   H10       1.0  0.49310  0.12340  0.12890  1.0000 0.1484862568
H   H11       1.0  0.41590  0.61710  0.62930  1.0000 0.1484862568
H   H12       1.0  0.17360  0.72200  0.61910  1.0000 0.1375884702
H   H13       1.0  0.20980  0.61530  0.50780  1.0000 0.1563012958
H   H14       1.0  0.08690  0.76150  0.55320  1.0000 0.1037884929
H   H15       1.0  0.99210  0.72650  0.57400  1.0000 0.1060931285
H   H16       1.0  0.93680  0.82460  0.52270  1.0000 0.1060931285
H   H17       1.0  0.84410  0.80340  0.48670  1.0000 0.1037884929
H   H18       1.0  0.75180  0.86660  0.52450  1.0000 0.1375884702
H   H19       1.0  0.71860  0.75680  0.63150  1.0000 0.1484862568
H   H20       1.0  0.50690  0.87660  0.62890  1.0000 0.1484862568
H   H21       1.0  0.41590  0.88290  0.37070  1.0000 0.1484862568
H   H22       1.0  0.17360  0.77800  0.38090  1.0000 0.1375884702
H   H23       1.0  0.20980  0.88470  0.49220  1.0000 0.1563012958
H   H24       1.0  0.08690  0.73850  0.44680  1.0000 0.1037884929
H   H25       1.0  0.99210  0.77350  0.42600  1.0000 0.1060931285
H   H26       1.0  0.93680  0.67540  0.47730  1.0000 0.1060931285
H   H27       1.0  0.84410  0.69660  0.51330  1.0000 0.1037884929
H   H28       1.0  0.75180  0.63340  0.47550  1.0000 0.1375884702
H   H29       1.0  0.71860  0.74320  0.36850  1.0000 0.1484862568
H   H30       1.0  0.50690  0.62340  0.37110  1.0000 0.1484862568
H   H31       1.0  0.58410  0.11710  0.87070  1.0000 0.1484862568
H   H32       1.0  0.82640  0.22200  0.88090  1.0000 0.1375884702
H   H33       1.0  0.79020  0.11530  0.99220  1.0000 0.1563012958
H   H34       1.0  0.91310  0.26150  0.94680  1.0000 0.1037884929
H   H35       1.0  0.00790  0.22650  0.92600  1.0000 0.1060931285
H   H36       1.0  0.06320  0.32460  0.97730  1.0000 0.1060931285
H   H37       1.0  0.15590  0.30340  0.01330  1.0000 0.1037884929
H   H38       1.0  0.24820  0.36660  0.97550  1.0000 0.1375884702
H   H39       1.0  0.28140  0.25680  0.86850  1.0000 0.1484862568
H   H40       1.0  0.49310  0.37660  0.87110  1.0000 0.1375884702
H   H41       1.0  0.41590  0.61710  0.87070  1.0000 0.1484862568
H   H42       1.0  0.17360  0.72200  0.88090  1.0000 0.1375884702
H   H43       1.0  0.20980  0.61530  0.99220  1.0000 0.1563012958
H   H44       1.0  0.08690  0.76150  0.94680  1.0000 0.1037884929
H   H45       1.0  0.99210  0.72650  0.92600  1.0000 0.1060931285
H   H46       1.0  0.93680  0.82460  0.97730  1.0000 0.1060931285
H   H47       1.0  0.84410  0.80340  0.01330  1.0000 0.1037884929
H   H48       1.0  0.75180  0.86660  0.97550  1.0000 0.1375884702
H   H49       1.0  0.71860  0.75680  0.86850  1.0000 0.1484862568
H   H50       1.0  0.50690  0.87660  0.87110  1.0000 0.1484862568
H   H51       1.0  0.58410  0.38290  0.37070  1.0000 0.1484862568
H   H52       1.0  0.82640  0.27800  0.38090  1.0000 0.1375884702
H   H53       1.0  0.79020  0.38470  0.49220  1.0000 0.1563012958
H   H54       1.0  0.91310  0.23850  0.44680  1.0000 0.1037884929
H   H55       1.0  0.00790  0.27350  0.42600  1.0000 0.1060931285
H   H56       1.0  0.06320  0.17540  0.47730  1.0000 0.1060931285
H   H57       1.0  0.15590  0.19660  0.51330  1.0000 0.1037884929
H   H58       1.0  0.24820  0.13340  0.47550  1.0000 0.1375884702
H   H59       1.0  0.28140  0.24320  0.36850  1.0000 0.1484862568
H   H60       1.0  0.49310  0.12340  0.37110  1.0000 0.1484862568
H   H61       1.0  0.58410  0.11710  0.62930  1.0000 0.1484862568
H   H62       1.0  0.82640  0.22200  0.61910  1.0000 0.1375884702
H   H63       1.0  0.79020  0.11530  0.50780  1.0000 0.1563012958
H   H64       1.0  0.91310  0.26150  0.55320  1.0000 0.1037884929
H   H65       1.0  0.00790  0.22650  0.57400  1.0000 0.1060931285
H   H66       1.0  0.06320  0.32460  0.52270  1.0000 0.1060931285
H   H67       1.0  0.15590  0.30340  0.48670  1.0000 0.1037884929
H   H68       1.0  0.24820  0.36660  0.52450  1.0000 0.1375884702
H   H69       1.0  0.28140  0.25680  0.63150  1.0000 0.1484862568
H   H70       1.0  0.49310  0.37660  0.62890  1.0000 0.1484862568
H   H71       1.0  0.41590  0.88290  0.12930  1.0000 0.1484862568
H   H72       1.0  0.17360  0.77800  0.11910  1.0000 0.1375884702
H   H73       1.0  0.20980  0.88470  0.00780  1.0000 0.1563012958
H   H74       1.0  0.08690  0.73850  0.05320  1.0000 0.1037884929
H   H75       1.0  0.99210  0.77350  0.07400  1.0000 0.1060931285
H   H76       1.0  0.93680  0.67540  0.02270  1.0000 0.1037884929
H   H77       1.0  0.84410  0.69660  0.98670  1.0000 0.1037884929
H   H78       1.0  0.75180  0.63340  0.02450  1.0000 0.1375884702
H   H79       1.0  0.71860  0.74320  0.13150  1.0000 0.1484862568
H   H80       1.0  0.50690  0.62340  0.12890  1.0000 0.1484862568
C   C1        1.0  0.65740  0.30272  0.17970  1.0000 0.585363558
C   C2        1.0  0.70070  0.32786  0.13161  1.0000 0.0146061559
C   C3        1.0  0.64450  0.36948  0.11234  1.0000 -0.1508700435
C   C4        1.0  0.79010  0.30633  0.10569  1.0000 -0.2592151552
C   C5        1.0  0.68220  0.39103  0.06587  1.0000 0.0146061559
C   C6        1.0  0.82390  0.32833  0.05914  1.0000 0.2729661227
C   C7        1.0  0.76880  0.37061  0.03886  1.0000 -0.228805264
C   C8        1.0  0.61640  0.43443  0.04311  1.0000 0.5793073302
C   C9        1.0  0.96320  0.26590  0.04436  1.0000 -0.0822120099
C   C10       1.0  0.10730  0.20517  0.01477  1.0000 -0.0873416052
C   C11       1.0  0.25220  0.19131  0.07665  1.0000 0.25848488
C   C12       1.0  0.28450  0.14605  0.05309  1.0000 -0.2389422986
C   C13       1.0  0.30450  0.21229  0.11754  1.0000 -0.2233620169
C   C14       1.0  0.37340  0.12056  0.07411  1.0000 -0.009160356
C   C15       1.0  0.39410  0.18592  0.13789  1.0000 -0.009160356
C   C16       1.0  0.43180  0.14017  0.11608  1.0000 -0.1437414765
C   C17       1.0  0.41631  0.07410  0.04833  1.0000 0.585363558
C   C18       1.0  0.45430  0.21088  0.17991  1.0000 0.573940304
C   C19       1.0  0.34260  0.69728  0.67970  1.0000 0.5793073302
C   C20       1.0  0.29930  0.67214  0.63161  1.0000 0.0160842445
C   C21       1.0  0.35550  0.63052  0.61234  1.0000 -0.1508700435
C   C22       1.0  0.20990  0.69367  0.60569  1.0000 -0.2592151552
C   C23       1.0  0.31780  0.60897  0.56587  1.0000 0.0160842445
C   C24       1.0  0.17610  0.67167  0.55914  1.0000 0.2729661227
C   C25       1.0  0.23120  0.62939  0.53886  1.0000 -0.228805264
C   C26       1.0  0.38360  0.56557  0.54311  1.0000 0.5793073302
C   C27       1.0  0.03680  0.73410  0.54436  1.0000 -0.0822120099
C   C28       1.0  0.89270  0.79483  0.51477  1.0000 -0.0873416052
C   C29       1.0  0.74780  0.80869  0.57665  1.0000 0.25848488
C   C30       1.0  0.71550  0.85395  0.55309  1.0000 -0.2389422986
C   C31       1.0  0.69550  0.78771  0.61754  1.0000 -0.2233620169
C   C32       1.0  0.62660  0.87944  0.57411  1.0000 -0.0049696523
C   C33       1.0  0.60590  0.81408  0.63789  1.0000 -0.009160356
C   C34       1.0  0.56820  0.85983  0.61608  1.0000 -0.1508700435
C   C35       1.0  0.58369  0.92590  0.54833  1.0000 0.585363558
C   C36       1.0  0.54570  0.78912  0.67991  1.0000 0.573940304
C   C37       1.0  0.34260  0.80272  0.32030  1.0000 0.585363558
C   C38       1.0  0.29930  0.82786  0.36839  1.0000 0.0160842445
C   C39       1.0  0.35550  0.86948  0.38766  1.0000 -0.1508700435
C   C40       1.0  0.20990  0.80633  0.39431  1.0000 -0.2592151552
C   C41       1.0  0.31780  0.89103  0.43413  1.0000 0.0160842445
C   C42       1.0  0.17610  0.82833  0.44086  1.0000 0.2729661227
C   C43       1.0  0.23120  0.87061  0.46114  1.0000 -0.228805264
C   C44       1.0  0.38360  0.93443  0.45689  1.0000 0.5793073302
C   C45       1.0  0.03680  0.76590  0.45564  1.0000 -0.0822120099
C   C46       1.0  0.89270  0.70517  0.48523  1.0000 -0.0873416052
C   C47       1.0  0.74780  0.69131  0.42335  1.0000 0.25848488
C   C48       1.0  0.71550  0.64605  0.44691  1.0000 -0.2389422986
C   C49       1.0  0.69550  0.71229  0.38246  1.0000 -0.2233620169
C   C50       1.0  0.62660  0.62056  0.42589  1.0000 -0.009160356
C   C51       1.0  0.60590  0.68592  0.36211  1.0000 -0.009160356
C   C52       1.0  0.56820  0.64017  0.38392  1.0000 -0.1437414765
C   C53       1.0  0.58369  0.57410  0.45167  1.0000 0.585363558
C   C54       1.0  0.54570  0.71088  0.32009  1.0000 0.573940304
C   C55       1.0  0.65740  0.19728  0.82030  1.0000 0.585363558
C   C56       1.0  0.70070  0.17214  0.86839  1.0000 0.0160842445
C   C57       1.0  0.64450  0.13052  0.88766  1.0000 -0.1508700435
C   C58       1.0  0.79010  0.19367  0.89431  1.0000 -0.2592151552
C   C59       1.0  0.68220  0.10897  0.93413  1.0000 0.0160842445
C   C60       1.0  0.82390  0.17167  0.94086  1.0000 0.2729661227
C   C61       1.0  0.76880  0.12939  0.96114  1.0000 -0.228805264
C   C62       1.0  0.61640  0.06557  0.95689  1.0000 0.5793073302
C   C63       1.0  0.96320  0.23410  0.95564  1.0000 -0.0822120099
C   C64       1.0  0.10730  0.29483  0.98523  1.0000 -0.0873416052
C   C65       1.0  0.25220  0.30869  0.92335  1.0000 0.25848488
C   C66       1.0  0.28450  0.35395  0.94691  1.0000 -0.2389422986
C   C67       1.0  0.30450  0.28771  0.88246  1.0000 -0.2233620169
C   C68       1.0  0.37340  0.37944  0.92589  1.0000 -0.009160356
C   C69       1.0  0.39410  0.31408  0.86211  1.0000 -0.009160356
C   C70       1.0  0.43180  0.35983  0.88392  1.0000 -0.1437414765
C   C71       1.0  0.41631  0.42590  0.95167  1.0000 0.585363558
C   C72       1.0  0.45430  0.28912  0.82009  1.0000 0.5793073302
C   C73       1.0  0.34260  0.69728  0.82030  1.0000 0.5793073302
C   C74       1.0  0.29930  0.67214  0.86839  1.0000 0.0160842445
C   C75       1.0  0.35550  0.63052  0.88766  1.0000 -0.1508700435
C   C76       1.0  0.20990  0.69367  0.89431  1.0000 -0.2592151552
C   C77       1.0  0.31780  0.60897  0.93413  1.0000 0.0160842445
C   C78       1.0  0.17610  0.67167  0.94086  1.0000 0.2729661227
C   C79       1.0  0.23120  0.62939  0.96114  1.0000 -0.228805264
C   C80       1.0  0.38360  0.56557  0.95689  1.0000 0.5793073302
C   C81       1.0  0.03680  0.73410  0.95564  1.0000 -0.0822120099
C   C82       1.0  0.89270  0.79483  0.98523  1.0000 -0.0873416052
C   C83       1.0  0.74780  0.80869  0.92335  1.0000 0.25848488
C   C84       1.0  0.71550  0.85395  0.94691  1.0000 -0.2389422986
C   C85       1.0  0.69550  0.78771  0.88246  1.0000 -0.2233620169
C   C86       1.0  0.62660  0.87944  0.92589  1.0000 -0.0049696523
C   C87       1.0  0.60590  0.81408  0.86211  1.0000 -0.009160356
C   C88       1.0  0.56820  0.85983  0.88392  1.0000 -0.1508700435
C   C89       1.0  0.58369  0.92590  0.95167  1.0000 0.585363558
C   C90       1.0  0.54570  0.78912  0.82009  1.0000 0.5793073302
C   C91       1.0  0.65740  0.30272  0.32030  1.0000 0.585363558
C   C92       1.0  0.70070  0.32786  0.36839  1.0000 0.0160842445
C   C93       1.0  0.64450  0.36948  0.38766  1.0000 -0.1508700435
C   C94       1.0  0.79010  0.30633  0.39431  1.0000 -0.2592151552
C   C95       1.0  0.68220  0.39103  0.43413  1.0000 0.0160842445
C   C96       1.0  0.82390  0.32833  0.44086  1.0000 0.2729661227
C   C97       1.0  0.76880  0.37061  0.46114  1.0000 -0.228805264
C   C98       1.0  0.61640  0.43443  0.45689  1.0000 0.5793073302
C   C99       1.0  0.96320  0.26590  0.45564  1.0000 -0.0822120099
C   C100      1.0  0.10730  0.20517  0.48523  1.0000 -0.0873416052
C   C101      1.0  0.25220  0.19131  0.42335  1.0000 0.25848488
C   C102      1.0  0.28450  0.14605  0.44691  1.0000 -0.2389422986
C   C103      1.0  0.30450  0.21229  0.38246  1.0000 -0.2233620169
C   C104      1.0  0.37340  0.12056  0.42589  1.0000 -0.009160356
C   C105      1.0  0.39410  0.18592  0.36211  1.0000 -0.009160356
C   C106      1.0  0.43180  0.14017  0.38392  1.0000 -0.1437414765
C   C107      1.0  0.41631  0.07410  0.45167  1.0000 0.5793073302
C   C108      1.0  0.45430  0.21088  0.32009  1.0000 0.573940304
C   C109      1.0  0.65740  0.19728  0.67970  1.0000 0.585363558
C   C110      1.0  0.70070  0.17214  0.63161  1.0000 0.0160842445
C   C111      1.0  0.64450  0.13052  0.61234  1.0000 -0.1508700435
C   C112      1.0  0.79010  0.19367  0.60569  1.0000 -0.2592151552
C   C113      1.0  0.68220  0.10897  0.56587  1.0000 0.0160842445
C   C114      1.0  0.82390  0.17167  0.55914  1.0000 0.2729661227
C   C115      1.0  0.76880  0.12939  0.53886  1.0000 -0.228805264
C   C116      1.0  0.61640  0.06557  0.54311  1.0000 0.5793073302
C   C117      1.0  0.96320  0.23410  0.54436  1.0000 -0.0822120099
C   C118      1.0  0.10730  0.29483  0.51477  1.0000 -0.0873416052
C   C119      1.0  0.25220  0.30869  0.57665  1.0000 0.25848488
C   C120      1.0  0.28450  0.35395  0.55309  1.0000 -0.2389422986
C   C121      1.0  0.30450  0.28771  0.61754  1.0000 -0.2233620169
C   C122      1.0  0.37340  0.37944  0.57411  1.0000 -0.009160356
C   C123      1.0  0.39410  0.31408  0.63789  1.0000 -0.009160356
C   C124      1.0  0.43180  0.35983  0.61608  1.0000 -0.1437414765
C   C125      1.0  0.41631  0.42590  0.54833  1.0000 0.585363558
C   C126      1.0  0.45430  0.28912  0.67991  1.0000 0.5793073302
C   C127      1.0  0.34260  0.80272  0.17970  1.0000 0.585363558
C   C128      1.0  0.29930  0.82786  0.13161  1.0000 0.0160842445
C   C129      1.0  0.35550  0.86948  0.11234  1.0000 -0.1508700435
C   C130      1.0  0.20990  0.80633  0.10569  1.0000 -0.2592151552
C   C131      1.0  0.31780  0.89103  0.06587  1.0000 0.0146061559
C   C132      1.0  0.17610  0.82833  0.05914  1.0000 0.2729661227
C   C133      1.0  0.23120  0.87061  0.03886  1.0000 -0.228805264
C   C134      1.0  0.38360  0.93443  0.04311  1.0000 0.5793073302
C   C135      1.0  0.03680  0.76590  0.04436  1.0000 -0.0822120099
C   C136      1.0  0.89270  0.70517  0.01477  1.0000 -0.0873416052
C   C137      1.0  0.74780  0.69131  0.07665  1.0000 0.25848488
C   C138      1.0  0.71550  0.64605  0.05309  1.0000 -0.2389422986
C   C139      1.0  0.69550  0.71229  0.11754  1.0000 -0.2233620169
C   C140      1.0  0.62660  0.62056  0.07411  1.0000 -0.009160356
C   C141      1.0  0.60590  0.68592  0.13789  1.0000 -0.009160356
C   C142      1.0  0.56820  0.64017  0.11608  1.0000 -0.1508700435
C   C143      1.0  0.58369  0.57410  0.04833  1.0000 0.585363558
C   C144      1.0  0.54570  0.71088  0.17991  1.0000 0.573940304
C   C145      1.0  0.03440  0.25000  0.00000  1.0000 0.0373473154
C   C146      1.0  0.96560  0.75000  0.50000  1.0000 0.0373473154
C   C147      1.0  0.96560  0.75000  0.00000  1.0000 0.0373473154
C   C148      1.0  0.03440  0.25000  0.50000  1.0000 0.0373473154
O   O1        1.0  0.70262  0.26258  0.19551  1.0000 -0.5271850615
O   O2        1.0  0.54359  0.19019  0.19707  1.0000 -0.5476369436
O   O3        1.0  0.57248  0.32393  0.19834  1.0000 -0.5182033605
O   O4        1.0  0.41729  0.25146  0.19764  1.0000 -0.5126938933
O   O5        1.0  0.90433  0.30971  0.02947  1.0000 -0.184550324
O   O6        1.0  0.52895  0.44638  0.06444  1.0000 -0.5126938933
O   O7        1.0  0.65703  0.45491  0.00255  1.0000 -0.5476369436
O   O8        1.0  0.37055  0.05932  0.00834  1.0000 -0.5182033605
O   O9        1.0  0.49501  0.05107  0.06846  1.0000 -0.5126938933
O   O10       1.0  0.16934  0.22045  0.05881  1.0000 -0.2005536439
O   O11       1.0  0.29738  0.73742  0.69551  1.0000 -0.5271850615
O   O12       1.0  0.45641  0.80981  0.69707  1.0000 -0.5442383974
O   O13       1.0  0.42752  0.67607  0.69834  1.0000 -0.5182033605
O   O14       1.0  0.58271  0.74854  0.69764  1.0000 -0.5126938933
O   O15       1.0  0.09567  0.69029  0.52947  1.0000 -0.184550324
O   O16       1.0  0.47105  0.55362  0.56444  1.0000 -0.5126938933
O   O17       1.0  0.34297  0.54509  0.50255  1.0000 -0.5476369436
O   O18       1.0  0.62945  0.94068  0.50834  1.0000 -0.5182033605
O   O19       1.0  0.50499  0.94893  0.56846  1.0000 -0.5126938933
O   O20       1.0  0.83066  0.77955  0.55881  1.0000 -0.2005536439
O   O21       1.0  0.29738  0.76258  0.30449  1.0000 -0.5271850615
O   O22       1.0  0.45641  0.69019  0.30293  1.0000 -0.5476369436
O   O23       1.0  0.42752  0.82393  0.30166  1.0000 -0.5182033605
O   O24       1.0  0.58271  0.75146  0.30236  1.0000 -0.5126938933
O   O25       1.0  0.09567  0.80971  0.47053  1.0000 -0.1854994684
O   O26       1.0  0.47105  0.94638  0.43556  1.0000 -0.5126938933
O   O27       1.0  0.34297  0.95491  0.49745  1.0000 -0.5476369436
O   O28       1.0  0.62945  0.55932  0.49166  1.0000 -0.5182033605
O   O29       1.0  0.50499  0.55107  0.43154  1.0000 -0.5126938933
O   O30       1.0  0.83066  0.72045  0.44119  1.0000 -0.2005536439
O   O31       1.0  0.70262  0.23742  0.80449  1.0000 -0.5271850615
O   O32       1.0  0.54359  0.30981  0.80293  1.0000 -0.5476369436
O   O33       1.0  0.57248  0.17607  0.80166  1.0000 -0.5182033605
O   O34       1.0  0.41729  0.24854  0.80236  1.0000 -0.5126938933
O   O35       1.0  0.90433  0.19029  0.97053  1.0000 -0.184550324
O   O36       1.0  0.52895  0.05362  0.93556  1.0000 -0.5126938933
O   O37       1.0  0.65703  0.04509  0.99745  1.0000 -0.5476369436
O   O38       1.0  0.37055  0.44068  0.99166  1.0000 -0.5182033605
O   O39       1.0  0.49501  0.44893  0.93154  1.0000 -0.5126938933
O   O40       1.0  0.16934  0.27955  0.94119  1.0000 -0.2005536439
O   O41       1.0  0.29738  0.73742  0.80449  1.0000 -0.5271850615
O   O42       1.0  0.45641  0.80981  0.80293  1.0000 -0.5442383974
O   O43       1.0  0.42752  0.67607  0.80166  1.0000 -0.5182033605
O   O44       1.0  0.58271  0.74854  0.80236  1.0000 -0.5126938933
O   O45       1.0  0.09567  0.69029  0.97053  1.0000 -0.1854994684
O   O46       1.0  0.47105  0.55362  0.93556  1.0000 -0.5126938933
O   O47       1.0  0.34297  0.54509  0.99745  1.0000 -0.5476369436
O   O48       1.0  0.62945  0.94068  0.99166  1.0000 -0.5182033605
O   O49       1.0  0.50499  0.94893  0.93154  1.0000 -0.5126938933
O   O50       1.0  0.83066  0.77955  0.94119  1.0000 -0.2005536439
O   O51       1.0  0.70262  0.26258  0.30449  1.0000 -0.5271850615
O   O52       1.0  0.54359  0.19019  0.30293  1.0000 -0.5476369436
O   O53       1.0  0.57248  0.32393  0.30166  1.0000 -0.5182033605
O   O54       1.0  0.41729  0.25146  0.30236  1.0000 -0.5126938933
O   O55       1.0  0.90433  0.30971  0.47053  1.0000 -0.184550324
O   O56       1.0  0.52895  0.44638  0.43556  1.0000 -0.5126938933
O   O57       1.0  0.65703  0.45491  0.49745  1.0000 -0.5476369436
O   O58       1.0  0.37055  0.05932  0.49166  1.0000 -0.5182033605
O   O59       1.0  0.49501  0.05107  0.43154  1.0000 -0.5126938933
O   O60       1.0  0.16934  0.22045  0.44119  1.0000 -0.2005536439
O   O61       1.0  0.70262  0.23742  0.69551  1.0000 -0.5271850615
O   O62       1.0  0.54359  0.30981  0.69707  1.0000 -0.5476369436
O   O63       1.0  0.57248  0.17607  0.69834  1.0000 -0.5182033605
O   O64       1.0  0.41729  0.24854  0.69764  1.0000 -0.5126938933
O   O65       1.0  0.90433  0.19029  0.52947  1.0000 -0.184550324
O   O66       1.0  0.52895  0.05362  0.56444  1.0000 -0.5126938933
O   O67       1.0  0.65703  0.04509  0.50255  1.0000 -0.5476369436
O   O68       1.0  0.37055  0.44068  0.50834  1.0000 -0.5182033605
O   O69       1.0  0.49501  0.44893  0.56846  1.0000 -0.5126938933
O   O70       1.0  0.16934  0.27955  0.55881  1.0000 -0.2005536439
O   O71       1.0  0.29738  0.76258  0.19551  1.0000 -0.5271850615
O   O72       1.0  0.45641  0.69019  0.19707  1.0000 -0.5476369436
O   O73       1.0  0.42752  0.82393  0.19834  1.0000 -0.5182033605
O   O74       1.0  0.58271  0.75146  0.19764  1.0000 -0.5126938933
O   O75       1.0  0.09567  0.80971  0.02947  1.0000 -0.1854994684
O   O76       1.0  0.47105  0.94638  0.06444  1.0000 -0.5126938933
O   O77       1.0  0.34297  0.95491  0.00255  1.0000 -0.5476369436
O   O78       1.0  0.62945  0.55932  0.00834  1.0000 -0.5182033605
O   O79       1.0  0.50499  0.55107  0.06846  1.0000 -0.5126938933
O   O80       1.0  0.83066  0.72045  0.05881  1.0000 -0.2005536439
