# DDEC6 charges by PACMAN v1.1 (https://github.com/mtap-research/PACMAN-charge/)
data_2017[Eu][kgd]2[ASR]3
_chemical_formula_sum              "Eu2 H14 C30 O14"
_cell_length_a       9.2809
_cell_length_b       9.6946
_cell_length_c       11.191
_cell_angle_alpha    71.49
_cell_angle_beta     80.36
_cell_angle_gamma    64.27

_symmetry_space_group_name_H-M    "P 1"
_symmetry_Int_Tables_number       1

loop_
  _symmetry_equiv_pos_as_xyz
  'x, y, z'

loop_
  _atom_site_type_symbol
  _atom_site_label
  _atom_site_symmetry_multiplicity
  _atom_site_fract_x
  _atom_site_fract_y
  _atom_site_fract_z
  _atom_site_occupancy
  _atom_site_charge
Eu  Eu1       1.0  0.75426  0.44669  0.51588  1.0000 2.0996730952
Eu  Eu2       1.0  0.24574  0.55331  0.48412  1.0000 2.0996730952
H   H1        1.0  0.38340  0.77440  0.81080  1.0000 0.1280011191
H   H2        1.0  0.68090  0.95140  0.58460  1.0000 0.1352019041
H   H3        1.0  0.26670  0.99640  0.88720  1.0000 0.1280011191
H   H4        1.0  0.82290  0.40600  0.91830  1.0000 0.1280011191
H   H5        1.0  0.33880  0.19660  0.05540  1.0000 0.1280011191
H   H6        1.0  0.12100  0.25200  0.19690  1.0000 0.1147525935
H   H7        1.0  0.86430  0.36300  0.12610  1.0000 0.1155180066
H   H8        1.0  0.61660  0.22560  0.18920  1.0000 0.1280011191
H   H9        1.0  0.31910  0.04860  0.41540  1.0000 0.1352019041
H   H10       1.0  0.73330  0.00360  0.11280  1.0000 0.1280011191
H   H11       1.0  0.17710  0.59400  0.08170  1.0000 0.1280011191
H   H12       1.0  0.66120  0.80340  0.94460  1.0000 0.1280011191
H   H13       1.0  0.87900  0.74800  0.80310  1.0000 0.1147525935
H   H14       1.0  0.13570  0.63700  0.87390  1.0000 0.1155180066
C   C1        1.0  0.40140  0.11180  0.77650  1.0000 0.2489554911
C   C2        1.0  0.41950  0.85530  0.78010  1.0000 -0.0771867977
C   C3        1.0  0.59680  0.96170  0.64420  1.0000 -0.0999754397
C   C4        1.0  0.54340  0.84060  0.68980  1.0000 -0.0489616291
C   C5        1.0  0.61960  0.69840  0.63980  1.0000 0.5674185185
C   C6        1.0  0.58680  0.22850  0.63180  1.0000 0.6468859641
C   C7        1.0  0.34830  0.98870  0.82540  1.0000 -0.2394041987
C   C8        1.0  0.20910  0.27180  0.90170  1.0000 0.2243915229
C   C9        1.0  0.52720  0.09810  0.68580  1.0000 -0.1218956084
C   C10       1.0  0.01900  0.37940  0.72080  1.0000 0.6754013329
C   C11       1.0  0.05450  0.33650  0.85700  1.0000 -0.1441438617
C   C12       1.0  0.92670  0.36630  0.94480  1.0000 -0.0869725094
C   C13       1.0  0.23520  0.23990  0.02750  1.0000 -0.1982489051
C   C14       1.0  0.10480  0.27340  0.11190  1.0000 -0.0588194476
C   C15       1.0  0.95140  0.33820  0.06980  1.0000 -0.0999754397
C   C16       1.0  0.59860  0.88820  0.22350  1.0000 0.2489554911
C   C17       1.0  0.58050  0.14470  0.21990  1.0000 -0.0771867977
C   C18       1.0  0.40320  0.03830  0.35580  1.0000 -0.0999754397
C   C19       1.0  0.45660  0.15940  0.31020  1.0000 -0.0489616291
C   C20       1.0  0.38040  0.30160  0.36020  1.0000 0.5674185185
C   C21       1.0  0.41320  0.77150  0.36820  1.0000 0.6468859641
C   C22       1.0  0.65170  0.01130  0.17460  1.0000 -0.2394041987
C   C23       1.0  0.79090  0.72820  0.09830  1.0000 0.2243915229
C   C24       1.0  0.47280  0.90190  0.31420  1.0000 -0.1218956084
C   C25       1.0  0.98100  0.62060  0.27920  1.0000 0.6754013329
C   C26       1.0  0.94550  0.66350  0.14300  1.0000 -0.1441438617
C   C27       1.0  0.07330  0.63370  0.05520  1.0000 -0.0869725094
C   C28       1.0  0.76480  0.76010  0.97250  1.0000 -0.1982489051
C   C29       1.0  0.89520  0.72660  0.88810  1.0000 -0.0588194476
C   C30       1.0  0.04860  0.66180  0.93020  1.0000 -0.0999754397
O   O1        1.0  0.57240  0.58590  0.67860  1.0000 -0.6306179534
O   O2        1.0  0.34310  0.24490  0.81820  1.0000 -0.2111543389
O   O3        1.0  0.90310  0.35560  0.69950  1.0000 -0.6579253049
O   O4        1.0  0.09940  0.43940  0.63710  1.0000 -0.6982995839
O   O5        1.0  0.73090  0.69040  0.55580  1.0000 -0.6306179534
O   O6        1.0  0.48960  0.36930  0.58720  1.0000 -0.7053859801
O   O7        1.0  0.73500  0.19110  0.62960  1.0000 -0.6306179534
O   O8        1.0  0.42760  0.41410  0.32140  1.0000 -0.6306179534
O   O9        1.0  0.65690  0.75510  0.18180  1.0000 -0.2111543389
O   O10       1.0  0.09690  0.64440  0.30050  1.0000 -0.6579253049
O   O11       1.0  0.90060  0.56060  0.36290  1.0000 -0.6982995839
O   O12       1.0  0.26910  0.30960  0.44420  1.0000 -0.6306179534
O   O13       1.0  0.51040  0.63070  0.41280  1.0000 -0.7053859801
O   O14       1.0  0.26500  0.80890  0.37040  1.0000 -0.6306179534
