# DDEC6 charges by PACMAN v1.1 (https://github.com/mtap-research/PACMAN-charge/)
data_2017[Gd][sql]2[ASR]1
_chemical_formula_sum              "Gd4 H36 C36 O24"
_cell_length_a       9.418
_cell_length_b       14.96
_cell_length_c       11.184
_cell_angle_alpha    90
_cell_angle_beta     108.22
_cell_angle_gamma    90

_symmetry_space_group_name_H-M    "P 1"
_symmetry_Int_Tables_number       1

loop_
  _symmetry_equiv_pos_as_xyz
  'x, y, z'

loop_
  _atom_site_type_symbol
  _atom_site_label
  _atom_site_symmetry_multiplicity
  _atom_site_fract_x
  _atom_site_fract_y
  _atom_site_fract_z
  _atom_site_occupancy
  _atom_site_charge
Gd  Gd1       1.0  0.53109  0.37084  0.07926  1.0000 1.9704659255
Gd  Gd2       1.0  0.46891  0.62916  0.92074  1.0000 1.9704659255
Gd  Gd3       1.0  0.96891  0.87084  0.92074  1.0000 1.9704659255
Gd  Gd4       1.0  0.03109  0.12916  0.07926  1.0000 1.9704659255
H   H1        1.0  0.96860  0.34000  0.43530  1.0000 0.1325953482
H   H2        1.0  0.02410  0.40750  0.35280  1.0000 0.1325953482
H   H3        1.0  0.87250  0.46960  0.51850  1.0000 0.0990367653
H   H4        1.0  0.69180  0.48490  0.74280  1.0000 0.1401897331
H   H5        1.0  0.82640  0.52320  0.85190  1.0000 0.1460663499
H   H6        1.0  0.82770  0.34470  0.76730  1.0000 0.1097830804
H   H7        1.0  0.05100  0.46730  0.83340  1.0000 0.1097830804
H   H8        1.0  0.06510  0.28410  0.76830  1.0000 0.1401897331
H   H9        1.0  0.12900  0.35690  0.69780  1.0000 0.1401897331
H   H10       1.0  0.03140  0.66000  0.56470  1.0000 0.1325953482
H   H11       1.0  0.97590  0.59250  0.64720  1.0000 0.1325953482
H   H12       1.0  0.12750  0.53040  0.48150  1.0000 0.0990367653
H   H13       1.0  0.30820  0.51510  0.25720  1.0000 0.1401897331
H   H14       1.0  0.17360  0.47680  0.14810  1.0000 0.1460663499
H   H15       1.0  0.17230  0.65530  0.23270  1.0000 0.1097830804
H   H16       1.0  0.94900  0.53270  0.16660  1.0000 0.1097830804
H   H17       1.0  0.93490  0.71590  0.23170  1.0000 0.1401897331
H   H18       1.0  0.87100  0.64310  0.30220  1.0000 0.1401897331
H   H19       1.0  0.53140  0.84000  0.56470  1.0000 0.1325953482
H   H20       1.0  0.47590  0.90750  0.64720  1.0000 0.1325953482
H   H21       1.0  0.62750  0.96960  0.48150  1.0000 0.0990367653
H   H22       1.0  0.80820  0.98490  0.25720  1.0000 0.1401897331
H   H23       1.0  0.67360  0.02320  0.14810  1.0000 0.1460663499
H   H24       1.0  0.67230  0.84470  0.23270  1.0000 0.1097830804
H   H25       1.0  0.44900  0.96730  0.16660  1.0000 0.1097830804
H   H26       1.0  0.43490  0.78410  0.23170  1.0000 0.1401897331
H   H27       1.0  0.37100  0.85690  0.30220  1.0000 0.1401897331
H   H28       1.0  0.46860  0.16000  0.43530  1.0000 0.1325953482
H   H29       1.0  0.52410  0.09250  0.35280  1.0000 0.1325953482
H   H30       1.0  0.37250  0.03040  0.51850  1.0000 0.0990367653
H   H31       1.0  0.19180  0.01510  0.74280  1.0000 0.1401897331
H   H32       1.0  0.32640  0.97680  0.85190  1.0000 0.1460663499
H   H33       1.0  0.32770  0.15530  0.76730  1.0000 0.1097830804
H   H34       1.0  0.55100  0.03270  0.83340  1.0000 0.1097830804
H   H35       1.0  0.56510  0.21590  0.76830  1.0000 0.1401897331
H   H36       1.0  0.62900  0.14310  0.69780  1.0000 0.1401897331
C   C1        1.0  0.79930  0.38570  0.28500  1.0000 0.6288269134
C   C2        1.0  0.94560  0.39620  0.39010  1.0000 -0.3211360452
C   C3        1.0  0.94920  0.46880  0.48260  1.0000 -0.0861124946
C   C4        1.0  0.69510  0.43950  0.91550  1.0000 0.6864136131
C   C5        1.0  0.76860  0.46960  0.82080  1.0000 -0.3378460137
C   C6        1.0  0.86900  0.40040  0.79410  1.0000 -0.0706674903
C   C7        1.0  0.00960  0.41180  0.80540  1.0000 -0.075395341
C   C8        1.0  0.11210  0.34240  0.77680  1.0000 -0.3211360452
C   C9        1.0  0.26030  0.33980  0.88150  1.0000 0.6525379689
C   C10       1.0  0.20070  0.61430  0.71500  1.0000 0.6288269134
C   C11       1.0  0.05440  0.60380  0.60990  1.0000 -0.3211360452
C   C12       1.0  0.05080  0.53120  0.51740  1.0000 -0.0861124946
C   C13       1.0  0.30490  0.56050  0.08450  1.0000 0.6864136131
C   C14       1.0  0.23140  0.53040  0.17920  1.0000 -0.3378460137
C   C15       1.0  0.13100  0.59960  0.20590  1.0000 -0.0706674903
C   C16       1.0  0.99040  0.58820  0.19460  1.0000 -0.075395341
C   C17       1.0  0.88790  0.65760  0.22320  1.0000 -0.3211360452
C   C18       1.0  0.73970  0.66020  0.11850  1.0000 0.6525379689
C   C19       1.0  0.70070  0.88570  0.71500  1.0000 0.6288269134
C   C20       1.0  0.55440  0.89620  0.60990  1.0000 -0.3211360452
C   C21       1.0  0.55080  0.96880  0.51740  1.0000 -0.0861124946
C   C22       1.0  0.80490  0.93950  0.08450  1.0000 0.6864136131
C   C23       1.0  0.73140  0.96960  0.17920  1.0000 -0.3378460137
C   C24       1.0  0.63100  0.90040  0.20590  1.0000 -0.0706674903
C   C25       1.0  0.49040  0.91180  0.19460  1.0000 -0.075395341
C   C26       1.0  0.38790  0.84240  0.22320  1.0000 -0.3211360452
C   C27       1.0  0.23970  0.83980  0.11850  1.0000 0.6525379689
C   C28       1.0  0.29930  0.11430  0.28500  1.0000 0.6288269134
C   C29       1.0  0.44560  0.10380  0.39010  1.0000 -0.3211360452
C   C30       1.0  0.44920  0.03120  0.48260  1.0000 -0.0861124946
C   C31       1.0  0.19510  0.06050  0.91550  1.0000 0.6864136131
C   C32       1.0  0.26860  0.03040  0.82080  1.0000 -0.3378460137
C   C33       1.0  0.36900  0.09960  0.79410  1.0000 -0.0706674903
C   C34       1.0  0.50960  0.08820  0.80540  1.0000 -0.075395341
C   C35       1.0  0.61210  0.15760  0.77680  1.0000 -0.3211360452
C   C36       1.0  0.76030  0.16020  0.88150  1.0000 0.6525379689
O   O1        1.0  0.76200  0.30980  0.23680  1.0000 -0.6419671503
O   O2        1.0  0.71680  0.45250  0.24440  1.0000 -0.6419671503
O   O3        1.0  0.72880  0.36610  0.97270  1.0000 -0.5940972297
O   O4        1.0  0.59510  0.48850  0.93620  1.0000 -0.7215109197
O   O5        1.0  0.26020  0.33980  0.99540  1.0000 -0.6478733985
O   O6        1.0  0.38260  0.34080  0.85780  1.0000 -0.6274877517
O   O7        1.0  0.23800  0.69020  0.76320  1.0000 -0.6419671503
O   O8        1.0  0.28320  0.54750  0.75560  1.0000 -0.6419671503
O   O9        1.0  0.27120  0.63390  0.02730  1.0000 -0.5940972297
O   O10       1.0  0.40490  0.51150  0.06380  1.0000 -0.7215109197
O   O11       1.0  0.73980  0.66020  0.00460  1.0000 -0.6478733985
O   O12       1.0  0.61740  0.65920  0.14220  1.0000 -0.6274877517
O   O13       1.0  0.73800  0.80980  0.76320  1.0000 -0.6478733985
O   O14       1.0  0.78320  0.95250  0.75560  1.0000 -0.6419671503
O   O15       1.0  0.77120  0.86610  0.02730  1.0000 -0.5940972297
O   O16       1.0  0.90490  0.98850  0.06380  1.0000 -0.7215109197
O   O17       1.0  0.23980  0.83980  0.00460  1.0000 -0.6478733985
O   O18       1.0  0.11740  0.84080  0.14220  1.0000 -0.6274877517
O   O19       1.0  0.26200  0.19020  0.23680  1.0000 -0.6419671503
O   O20       1.0  0.21680  0.04750  0.24440  1.0000 -0.6419671503
O   O21       1.0  0.22880  0.13390  0.97270  1.0000 -0.5940972297
O   O22       1.0  0.09510  0.01150  0.93620  1.0000 -0.7215109197
O   O23       1.0  0.76020  0.16020  0.99540  1.0000 -0.6478733985
O   O24       1.0  0.88260  0.15920  0.85780  1.0000 -0.6274877517
