# DDEC6 charges by PACMAN v1.1 (https://github.com/mtap-research/PACMAN-charge/)
data_2017[Eu][nan]3[ASR]3
_chemical_formula_sum              "Eu4 H48 C52 O34"
_cell_length_a       11.888
_cell_length_b       12.475
_cell_length_c       12.542
_cell_angle_alpha    90
_cell_angle_beta     98.94
_cell_angle_gamma    90

_symmetry_space_group_name_H-M    "P 1"
_symmetry_Int_Tables_number       1

loop_
  _symmetry_equiv_pos_as_xyz
  'x, y, z'

loop_
  _atom_site_type_symbol
  _atom_site_label
  _atom_site_symmetry_multiplicity
  _atom_site_fract_x
  _atom_site_fract_y
  _atom_site_fract_z
  _atom_site_occupancy
  _atom_site_charge
Eu  Eu1       1.0  0.62736  0.55427  0.86849  1.0000 2.0736579394
Eu  Eu2       1.0  0.37264  0.05427  0.13151  1.0000 2.0736579394
Eu  Eu3       1.0  0.35882  0.77068  0.81292  1.0000 2.0976856445
Eu  Eu4       1.0  0.64118  0.27068  0.18708  1.0000 2.0976856445
H   H1        1.0  0.67400  0.59980  0.51760  1.0000 0.1556492244
H   H2        1.0  0.32600  0.09980  0.48240  1.0000 0.1556492244
H   H3        1.0  0.52020  0.66980  0.21510  1.0000 0.1398086164
H   H4        1.0  0.47980  0.16980  0.78490  1.0000 0.1398086164
H   H5        1.0  0.35590  0.71920  0.46880  1.0000 0.146957919
H   H6        1.0  0.64410  0.21920  0.53120  1.0000 0.146957919
H   H7        1.0  0.69680  0.69350  0.19570  1.0000 0.0994642099
H   H8        1.0  0.30320  0.19350  0.80430  1.0000 0.0994642099
H   H9        1.0  0.88900  0.65840  0.24890  1.0000 0.1398086164
H   H10       1.0  0.11100  0.15840  0.75110  1.0000 0.1398086164
H   H11       1.0  0.86910  0.53620  0.22360  1.0000 0.1398086164
H   H12       1.0  0.13090  0.03620  0.77640  1.0000 0.1398086164
H   H13       1.0  0.85320  0.62010  0.12940  1.0000 0.1556492244
H   H14       1.0  0.14680  0.12010  0.87060  1.0000 0.1556492244
H   H15       1.0  0.33850  0.63360  0.14480  1.0000 0.0913904404
H   H16       1.0  0.66150  0.13360  0.85520  1.0000 0.0913904404
H   H17       1.0  0.14690  0.64840  0.15670  1.0000 0.1398086164
H   H18       1.0  0.85310  0.14840  0.84330  1.0000 0.1398086164
H   H19       1.0  0.14900  0.77070  0.12840  1.0000 0.1398086164
H   H20       1.0  0.85100  0.27070  0.87160  1.0000 0.1398086164
H   H21       1.0  0.16750  0.68470  0.04160  1.0000 0.146957919
H   H22       1.0  0.83250  0.18470  0.95840  1.0000 0.1398086164
H   H23       1.0  0.99970  0.46610  0.07080  1.0000 0.1398086164
H   H24       1.0  0.00030  0.96610  0.92920  1.0000 0.1398086164
H   H25       1.0  0.28720  0.39400  0.95400  1.0000 0.146957919
H   H26       1.0  0.71280  0.89400  0.04600  1.0000 0.146957919
H   H27       1.0  0.99250  0.43410  0.75060  1.0000 0.146957919
H   H28       1.0  0.00750  0.93410  0.24940  1.0000 0.146957919
H   H29       1.0  0.36420  0.38010  0.80040  1.0000 0.0994642099
H   H30       1.0  0.63580  0.88010  0.19960  1.0000 0.0994642099
H   H31       1.0  0.32610  0.34680  0.61010  1.0000 0.1398086164
H   H32       1.0  0.67390  0.84680  0.38990  1.0000 0.1398086164
H   H33       1.0  0.29310  0.46760  0.59030  1.0000 0.146957919
H   H34       1.0  0.70690  0.96760  0.40970  1.0000 0.146957919
H   H35       1.0  0.41910  0.43620  0.63590  1.0000 0.146957919
H   H36       1.0  0.58090  0.93620  0.36410  1.0000 0.146957919
H   H37       1.0  0.36610  0.44780  0.12620  1.0000 0.0994642099
H   H38       1.0  0.63390  0.94780  0.87380  1.0000 0.0994642099
H   H39       1.0  0.33810  0.48750  0.30420  1.0000 0.1398086164
H   H40       1.0  0.66190  0.98750  0.69580  1.0000 0.1398086164
H   H41       1.0  0.29740  0.36990  0.32000  1.0000 0.1556492244
H   H42       1.0  0.70260  0.86990  0.68000  1.0000 0.1556492244
H   H43       1.0  0.42480  0.39230  0.30880  1.0000 0.1398086164
H   H44       1.0  0.57520  0.89230  0.69120  1.0000 0.1398086164
H   H45       1.0  0.22850  0.88900  0.68620  1.0000 0.3175021952
H   H46       1.0  0.77150  0.38900  0.31380  1.0000 0.3175021952
H   H47       1.0  0.19560  0.83710  0.58830  1.0000 0.3965142762
H   H48       1.0  0.80440  0.33710  0.41170  1.0000 0.3965142762
C   C1        1.0  0.51530  0.66030  0.51020  1.0000 0.0167342706
C   C2        1.0  0.48470  0.16030  0.48980  1.0000 0.0167342706
C   C3        1.0  0.61130  0.62570  0.47110  1.0000 -0.2555507029
C   C4        1.0  0.38870  0.12570  0.52890  1.0000 -0.2555507029
C   C5        1.0  0.61230  0.63050  0.35930  1.0000 0.2786126678
C   C6        1.0  0.38770  0.13050  0.64070  1.0000 0.2786126678
C   C7        1.0  0.51830  0.66620  0.28890  1.0000 -0.3637476767
C   C8        1.0  0.48170  0.16620  0.71110  1.0000 -0.3650642837
C   C9        1.0  0.42080  0.69650  0.33050  1.0000 0.2865413373
C   C10       1.0  0.57920  0.19650  0.66950  1.0000 0.2865413373
C   C11       1.0  0.41990  0.69590  0.44120  1.0000 -0.2498152385
C   C12       1.0  0.58010  0.19590  0.55880  1.0000 -0.2498152385
C   C13       1.0  0.51260  0.65860  0.62970  1.0000 0.641630957
C   C14       1.0  0.48740  0.15860  0.37030  1.0000 0.641630957
C   C15       1.0  0.72060  0.61980  0.21480  1.0000 0.0678126534
C   C16       1.0  0.27940  0.11980  0.78520  1.0000 0.0678126534
C   C17       1.0  0.64350  0.54210  0.14090  1.0000 0.6289007758
C   C18       1.0  0.35650  0.04210  0.85910  1.0000 0.6289007758
C   C19       1.0  0.84420  0.60750  0.20310  1.0000 -0.4492751444
C   C20       1.0  0.15580  0.10750  0.79690  1.0000 -0.4492751444
C   C21       1.0  0.30710  0.70470  0.15570  1.0000 0.0678126534
C   C22       1.0  0.69290  0.20470  0.84430  1.0000 0.0678126534
C   C23       1.0  0.36760  0.78720  0.09300  1.0000 0.6452046131
C   C24       1.0  0.63240  0.28720  0.90700  1.0000 0.6452046131
C   C25       1.0  0.18130  0.70190  0.11710  1.0000 -0.4492751444
C   C26       1.0  0.81870  0.20190  0.88290  1.0000 -0.4447320307
C   C27       1.0  0.97790  0.45350  0.90900  1.0000 0.0167342706
C   C28       1.0  0.02210  0.95350  0.09100  1.0000 0.0167342706
C   C29       1.0  0.03700  0.45150  0.01260  1.0000 -0.2345560024
C   C30       1.0  0.96300  0.95150  0.98740  1.0000 -0.2345560024
C   C31       1.0  0.15370  0.42750  0.02980  1.0000 0.2786126678
C   C32       1.0  0.84630  0.92750  0.97020  1.0000 0.2786126678
C   C33       1.0  0.20960  0.40880  0.94280  1.0000 -0.3637476767
C   C34       1.0  0.79040  0.90880  0.05720  1.0000 -0.3637476767
C   C35       1.0  0.14830  0.41240  0.83700  1.0000 0.2786126678
C   C36       1.0  0.85170  0.91240  0.16300  1.0000 0.2786126678
C   C37       1.0  0.03320  0.43330  0.82030  1.0000 -0.240106901
C   C38       1.0  0.96680  0.93330  0.17970  1.0000 -0.240106901
C   C39       1.0  0.85410  0.47960  0.89160  1.0000 0.5588494038
C   C40       1.0  0.14590  0.97960  0.10840  1.0000 0.5588494038
C   C41       1.0  0.31350  0.42720  0.75220  1.0000 0.079122469
C   C42       1.0  0.68650  0.92720  0.24780  1.0000 0.079122469
C   C43       1.0  0.32750  0.54140  0.79090  1.0000 0.5899559056
C   C44       1.0  0.67250  0.04140  0.20910  1.0000 0.5899559056
C   C45       1.0  0.34050  0.41860  0.63620  1.0000 -0.4492751444
C   C46       1.0  0.65950  0.91860  0.36380  1.0000 -0.4492751444
C   C47       1.0  0.31820  0.40060  0.16270  1.0000 0.079122469
C   C48       1.0  0.68180  0.90060  0.83730  1.0000 0.079122469
C   C49       1.0  0.33870  0.28390  0.13580  1.0000 0.5899559056
C   C50       1.0  0.66130  0.78390  0.86420  1.0000 0.5899559056
C   C51       1.0  0.34730  0.41380  0.28540  1.0000 -0.4563866312
C   C52       1.0  0.65270  0.91380  0.71460  1.0000 -0.4563866312
O   O1        1.0  0.43640  0.71480  0.66250  1.0000 -0.6873406971
O   O2        1.0  0.56360  0.21480  0.33750  1.0000 -0.6873406971
O   O3        1.0  0.58300  0.60250  0.68670  1.0000 -0.628866514
O   O4        1.0  0.41700  0.10250  0.31330  1.0000 -0.628866514
O   O5        1.0  0.71190  0.60210  0.32520  1.0000 -0.2179290409
O   O6        1.0  0.28810  0.10210  0.67480  1.0000 -0.2179290409
O   O7        1.0  0.62090  0.45450  0.17370  1.0000 -0.6449984814
O   O8        1.0  0.37910  0.95450  0.82630  1.0000 -0.6449984814
O   O9        1.0  0.60950  0.57890  0.04610  1.0000 -0.672389021
O   O10       1.0  0.39050  0.07890  0.95390  1.0000 -0.672389021
O   O11       1.0  0.32120  0.72540  0.26760  1.0000 -0.1993031891
O   O12       1.0  0.67880  0.22540  0.73240  1.0000 -0.1993031891
O   O13       1.0  0.37470  0.76160  0.99850  1.0000 -0.672389021
O   O14       1.0  0.62530  0.26160  0.00150  1.0000 -0.672389021
O   O15       1.0  0.40710  0.87190  0.14010  1.0000 -0.6794775034
O   O16       1.0  0.59290  0.37190  0.85990  1.0000 -0.6794775034
O   O17       1.0  0.80260  0.50310  0.79970  1.0000 -0.6097538972
O   O18       1.0  0.19740  0.00310  0.20030  1.0000 -0.6097538972
O   O19       1.0  0.80150  0.47790  0.97230  1.0000 -0.6503990198
O   O20       1.0  0.19850  0.97790  0.02770  1.0000 -0.6503990198
O   O21       1.0  0.20260  0.42960  0.13550  1.0000 -0.1938559393
O   O22       1.0  0.79740  0.92960  0.86450  1.0000 -0.1938559393
O   O23       1.0  0.25710  0.21830  0.12270  1.0000 -0.5984028334
O   O24       1.0  0.74290  0.71830  0.87730  1.0000 -0.5984028334
O   O25       1.0  0.43880  0.25480  0.12900  1.0000 -0.7268150056
O   O26       1.0  0.56120  0.75480  0.87100  1.0000 -0.7268150056
O   O27       1.0  0.19800  0.39390  0.74850  1.0000 -0.1993031891
O   O28       1.0  0.80200  0.89390  0.25150  1.0000 -0.1993031891
O   O29       1.0  0.25000  0.60880  0.76780  1.0000 -0.5984028334
O   O30       1.0  0.75000  0.10880  0.23220  1.0000 -0.5984028334
O   O31       1.0  0.42410  0.56850  0.84400  1.0000 -0.7423180247
O   O32       1.0  0.57590  0.06850  0.15600  1.0000 -0.7423180247
O   O33       1.0  0.23630  0.83230  0.65020  1.0000 -0.7506896759
O   O34       1.0  0.76370  0.33230  0.34980  1.0000 -0.7506896759
