# DDEC6 charges by PACMAN v1.1 (https://github.com/mtap-research/PACMAN-charge/)
data_2017[Cu][sql]2[ASR]9
_chemical_formula_sum              "Cu88 H288 C144 I88 N48"
_cell_length_a       14.86
_cell_length_b       15.286
_cell_length_c       51.796
_cell_angle_alpha    90
_cell_angle_beta     90
_cell_angle_gamma    90

_symmetry_space_group_name_H-M    "P 1"
_symmetry_Int_Tables_number       1

loop_
  _symmetry_equiv_pos_as_xyz
  'x, y, z'

loop_
  _atom_site_type_symbol
  _atom_site_label
  _atom_site_symmetry_multiplicity
  _atom_site_fract_x
  _atom_site_fract_y
  _atom_site_fract_z
  _atom_site_occupancy
  _atom_site_charge
Cu  Cu1       1.0  0.91520  0.36160  0.88993  1.0000 0.1507217145
Cu  Cu2       1.0  0.89280  0.35660  0.94216  1.0000 0.1507217145
Cu  Cu3       1.0  0.02710  0.44820  0.92165  1.0000 0.1274071369
Cu  Cu4       1.0  0.85520  0.50330  0.91601  1.0000 0.1606492181
Cu  Cu5       1.0  0.78070  0.08320  0.04003  1.0000 0.1606492181
Cu  Cu6       1.0  0.78050  0.09180  0.12255  1.0000 0.1606492181
Cu  Cu7       1.0  0.67650  0.07250  0.08160  1.0000 0.117178437
Cu  Cu8       1.0  0.85990  0.50740  0.25079  1.0000 0.1606492181
Cu  Cu9       1.0  0.02830  0.44550  0.24300  1.0000 0.1108984683
Cu  Cu10      1.0  0.91530  0.36940  0.27814  1.0000 0.1606492181
Cu  Cu11      1.0  0.88810  0.36650  0.22162  1.0000 0.1507217145
Cu  Cu12      1.0  0.58480  0.63840  0.88993  1.0000 0.1507217145
Cu  Cu13      1.0  0.60720  0.64340  0.94216  1.0000 0.1507217145
Cu  Cu14      1.0  0.47290  0.55180  0.92165  1.0000 0.1274071369
Cu  Cu15      1.0  0.64480  0.49670  0.91601  1.0000 0.1606492181
Cu  Cu16      1.0  0.71930  0.91680  0.04003  1.0000 0.1606492181
Cu  Cu17      1.0  0.71950  0.90820  0.12255  1.0000 0.1606492181
Cu  Cu18      1.0  0.82350  0.92750  0.08160  1.0000 0.1274071369
Cu  Cu19      1.0  0.64010  0.49260  0.25079  1.0000 0.1606492181
Cu  Cu20      1.0  0.47170  0.55450  0.24300  1.0000 0.1108984683
Cu  Cu21      1.0  0.58470  0.63060  0.27814  1.0000 0.1606492181
Cu  Cu22      1.0  0.61190  0.63350  0.22162  1.0000 0.1507217145
Cu  Cu23      1.0  0.58480  0.86160  0.38993  1.0000 0.1507217145
Cu  Cu24      1.0  0.60720  0.85660  0.44216  1.0000 0.1507217145
Cu  Cu25      1.0  0.47290  0.94820  0.42165  1.0000 0.1274071369
Cu  Cu26      1.0  0.64480  0.00330  0.41601  1.0000 0.1606492181
Cu  Cu27      1.0  0.71930  0.58320  0.54003  1.0000 0.1606492181
Cu  Cu28      1.0  0.71950  0.59180  0.62255  1.0000 0.1606492181
Cu  Cu29      1.0  0.82350  0.57250  0.58160  1.0000 0.1274071369
Cu  Cu30      1.0  0.64010  0.00740  0.75079  1.0000 0.1606492181
Cu  Cu31      1.0  0.47170  0.94550  0.74300  1.0000 0.1108984683
Cu  Cu32      1.0  0.58470  0.86940  0.77814  1.0000 0.1606492181
Cu  Cu33      1.0  0.61190  0.86650  0.72162  1.0000 0.1507217145
Cu  Cu34      1.0  0.91520  0.13840  0.38993  1.0000 0.1606492181
Cu  Cu35      1.0  0.89280  0.14340  0.44216  1.0000 0.1507217145
Cu  Cu36      1.0  0.02710  0.05180  0.42165  1.0000 0.1274071369
Cu  Cu37      1.0  0.85520  0.99670  0.41601  1.0000 0.1606492181
Cu  Cu38      1.0  0.78070  0.41680  0.54003  1.0000 0.1606492181
Cu  Cu39      1.0  0.78050  0.40820  0.62255  1.0000 0.1606492181
Cu  Cu40      1.0  0.67650  0.42750  0.58160  1.0000 0.117178437
Cu  Cu41      1.0  0.85990  0.99260  0.75079  1.0000 0.1606492181
Cu  Cu42      1.0  0.02830  0.05450  0.74300  1.0000 0.1108984683
Cu  Cu43      1.0  0.91530  0.13060  0.77814  1.0000 0.1606492181
Cu  Cu44      1.0  0.88810  0.13350  0.72162  1.0000 0.1507217145
Cu  Cu45      1.0  0.41520  0.13840  0.61007  1.0000 0.1606492181
Cu  Cu46      1.0  0.39280  0.14340  0.55784  1.0000 0.1507217145
Cu  Cu47      1.0  0.52710  0.05180  0.57835  1.0000 0.1274071369
Cu  Cu48      1.0  0.35520  0.99670  0.58399  1.0000 0.1606492181
Cu  Cu49      1.0  0.28070  0.41680  0.45997  1.0000 0.1606492181
Cu  Cu50      1.0  0.28050  0.40820  0.37745  1.0000 0.1606492181
Cu  Cu51      1.0  0.17650  0.42750  0.41840  1.0000 0.117178437
Cu  Cu52      1.0  0.35990  0.99260  0.24921  1.0000 0.1606492181
Cu  Cu53      1.0  0.52830  0.05450  0.25700  1.0000 0.1108984683
Cu  Cu54      1.0  0.41530  0.13060  0.22186  1.0000 0.1606492181
Cu  Cu55      1.0  0.38810  0.13350  0.27838  1.0000 0.1507217145
Cu  Cu56      1.0  0.08480  0.86160  0.61007  1.0000 0.1606492181
Cu  Cu57      1.0  0.10720  0.85660  0.55784  1.0000 0.1507217145
Cu  Cu58      1.0  0.97290  0.94820  0.57835  1.0000 0.1274071369
Cu  Cu59      1.0  0.14480  0.00330  0.58399  1.0000 0.1606492181
Cu  Cu60      1.0  0.21930  0.58320  0.45997  1.0000 0.1606492181
Cu  Cu61      1.0  0.21950  0.59180  0.37745  1.0000 0.1606492181
Cu  Cu62      1.0  0.32350  0.57250  0.41840  1.0000 0.1274071369
Cu  Cu63      1.0  0.14010  0.00740  0.24921  1.0000 0.1606492181
Cu  Cu64      1.0  0.97170  0.94550  0.25700  1.0000 0.1108984683
Cu  Cu65      1.0  0.08470  0.86940  0.22186  1.0000 0.1606492181
Cu  Cu66      1.0  0.11190  0.86650  0.27838  1.0000 0.1507217145
Cu  Cu67      1.0  0.08480  0.63840  0.11007  1.0000 0.1507217145
Cu  Cu68      1.0  0.10720  0.64340  0.05784  1.0000 0.1507217145
Cu  Cu69      1.0  0.97290  0.55180  0.07835  1.0000 0.1274071369
Cu  Cu70      1.0  0.14480  0.49670  0.08399  1.0000 0.1606492181
Cu  Cu71      1.0  0.21930  0.91680  0.95997  1.0000 0.1606492181
Cu  Cu72      1.0  0.21950  0.90820  0.87745  1.0000 0.1606492181
Cu  Cu73      1.0  0.32350  0.92750  0.91840  1.0000 0.1274071369
Cu  Cu74      1.0  0.14010  0.49260  0.74921  1.0000 0.1606492181
Cu  Cu75      1.0  0.97170  0.55450  0.75700  1.0000 0.1108984683
Cu  Cu76      1.0  0.08470  0.63060  0.72186  1.0000 0.1606492181
Cu  Cu77      1.0  0.11190  0.63350  0.77838  1.0000 0.1507217145
Cu  Cu78      1.0  0.41520  0.36160  0.11007  1.0000 0.1606492181
Cu  Cu79      1.0  0.39280  0.35660  0.05784  1.0000 0.1507217145
Cu  Cu80      1.0  0.52710  0.44820  0.07835  1.0000 0.1274071369
Cu  Cu81      1.0  0.35520  0.50330  0.08399  1.0000 0.1606492181
Cu  Cu82      1.0  0.28070  0.08320  0.95997  1.0000 0.1606492181
Cu  Cu83      1.0  0.28050  0.09180  0.87745  1.0000 0.1606492181
Cu  Cu84      1.0  0.17650  0.07250  0.91840  1.0000 0.117178437
Cu  Cu85      1.0  0.35990  0.50740  0.74921  1.0000 0.1606492181
Cu  Cu86      1.0  0.52830  0.44550  0.75700  1.0000 0.1108984683
Cu  Cu87      1.0  0.41530  0.36940  0.72186  1.0000 0.1606492181
Cu  Cu88      1.0  0.38810  0.36650  0.77838  1.0000 0.1507217145
H   H1        1.0  0.79920  0.14180  0.83050  1.0000 0.1108984683
H   H2        1.0  0.88800  0.08940  0.83630  1.0000 0.1108984683
H   H3        1.0  0.81590  0.19860  0.86870  1.0000 0.1108984683
H   H4        1.0  0.91550  0.16560  0.87080  1.0000 0.1108984683
H   H5        1.0  0.87840  0.39060  0.83410  1.0000 0.1108984683
H   H6        1.0  0.79250  0.33810  0.84250  1.0000 0.1108984683
H   H7        1.0  0.94520  0.14440  0.00990  1.0000 0.1108984683
H   H8        1.0  0.91880  0.22020  0.02880  1.0000 0.1108984683
H   H9        1.0  0.94620  0.32080  0.99870  1.0000 0.1108984683
H   H10       1.0  0.98680  0.24570  0.98150  1.0000 0.1108984683
H   H11       1.0  0.76030  0.27590  0.02470  1.0000 0.1108984683
H   H12       1.0  0.69390  0.22650  0.00640  1.0000 0.117178437
H   H13       1.0  0.72900  0.31490  0.97550  1.0000 0.1108984683
H   H14       1.0  0.79800  0.36250  0.99370  1.0000 0.1108984683
H   H15       1.0  0.75120  0.09620  0.98260  1.0000 0.1108984683
H   H16       1.0  0.85410  0.07620  0.98560  1.0000 0.1108984683
H   H17       1.0  0.88130  0.16170  0.95270  1.0000 0.1108984683
H   H18       1.0  0.77910  0.18730  0.95100  1.0000 0.1108984683
H   H19       1.0  0.97970  0.24240  0.18490  1.0000 0.1108984683
H   H20       1.0  0.95780  0.32150  0.16667  1.0000 0.1108984683
H   H21       1.0  0.92690  0.22990  0.13570  1.0000 0.1108984683
H   H22       1.0  0.94550  0.15070  0.15430  1.0000 0.1108984683
H   H23       1.0  0.80620  0.38200  0.16490  1.0000 0.117178437
H   H24       1.0  0.72880  0.34240  0.18200  1.0000 0.117178437
H   H25       1.0  0.69730  0.24610  0.15140  1.0000 0.1108984683
H   H26       1.0  0.77150  0.28840  0.13380  1.0000 0.117178437
H   H27       1.0  0.76810  0.21680  0.20960  1.0000 0.117178437
H   H28       1.0  0.86660  0.18100  0.20950  1.0000 0.1108984683
H   H29       1.0  0.82960  0.08770  0.17990  1.0000 0.117178437
H   H30       1.0  0.73110  0.12590  0.17940  1.0000 0.1108984683
H   H31       1.0  0.88210  0.31890  0.79730  1.0000 0.1108984683
H   H32       1.0  0.79500  0.26760  0.80540  1.0000 0.1108984683
H   H33       1.0  0.03580  0.16720  0.82590  1.0000 0.117178437
H   H34       1.0  0.03510  0.25090  0.80830  1.0000 0.117178437
H   H35       1.0  0.02070  0.33430  0.84110  1.0000 0.117178437
H   H36       1.0  0.03590  0.25240  0.85860  1.0000 0.1108984683
H   H37       1.0  0.70080  0.85820  0.83050  1.0000 0.1108984683
H   H38       1.0  0.61200  0.91060  0.83630  1.0000 0.1108984683
H   H39       1.0  0.68410  0.80140  0.86870  1.0000 0.1108984683
H   H40       1.0  0.58450  0.83440  0.87080  1.0000 0.1108984683
H   H41       1.0  0.62160  0.60940  0.83410  1.0000 0.1108984683
H   H42       1.0  0.70750  0.66190  0.84250  1.0000 0.1108984683
H   H43       1.0  0.55480  0.85560  0.00990  1.0000 0.1108984683
H   H44       1.0  0.58120  0.77980  0.02880  1.0000 0.1108984683
H   H45       1.0  0.55380  0.67920  0.99870  1.0000 0.1108984683
H   H46       1.0  0.51320  0.75430  0.98150  1.0000 0.1108984683
H   H47       1.0  0.73970  0.72410  0.02470  1.0000 0.1108984683
H   H48       1.0  0.80610  0.77350  0.00640  1.0000 0.117178437
H   H49       1.0  0.77100  0.68510  0.97550  1.0000 0.1108984683
H   H50       1.0  0.70200  0.63750  0.99370  1.0000 0.1108984683
H   H51       1.0  0.74880  0.90380  0.98260  1.0000 0.1108984683
H   H52       1.0  0.64590  0.92380  0.98560  1.0000 0.1108984683
H   H53       1.0  0.61870  0.83830  0.95270  1.0000 0.1108984683
H   H54       1.0  0.72090  0.81270  0.95100  1.0000 0.1108984683
H   H55       1.0  0.52030  0.75760  0.18490  1.0000 0.1108984683
H   H56       1.0  0.54220  0.67850  0.16667  1.0000 0.1108984683
H   H57       1.0  0.57310  0.77010  0.13570  1.0000 0.1108984683
H   H58       1.0  0.55450  0.84930  0.15430  1.0000 0.1108984683
H   H59       1.0  0.69380  0.61800  0.16490  1.0000 0.117178437
H   H60       1.0  0.77120  0.65760  0.18200  1.0000 0.117178437
H   H61       1.0  0.80270  0.75390  0.15140  1.0000 0.1108984683
H   H62       1.0  0.72850  0.71160  0.13380  1.0000 0.117178437
H   H63       1.0  0.73190  0.78320  0.20960  1.0000 0.117178437
H   H64       1.0  0.63340  0.81900  0.20950  1.0000 0.1108984683
H   H65       1.0  0.67040  0.91230  0.17990  1.0000 0.117178437
H   H66       1.0  0.76890  0.87410  0.17940  1.0000 0.1108984683
H   H67       1.0  0.61790  0.68110  0.79730  1.0000 0.1108984683
H   H68       1.0  0.70500  0.73240  0.80540  1.0000 0.1108984683
H   H69       1.0  0.46420  0.83280  0.82590  1.0000 0.117178437
H   H70       1.0  0.46490  0.74910  0.80830  1.0000 0.117178437
H   H71       1.0  0.47930  0.66570  0.84110  1.0000 0.117178437
H   H72       1.0  0.46410  0.74760  0.85860  1.0000 0.1108984683
H   H73       1.0  0.70080  0.64180  0.33050  1.0000 0.1108984683
H   H74       1.0  0.61200  0.58940  0.33630  1.0000 0.1108984683
H   H75       1.0  0.68410  0.69860  0.36870  1.0000 0.1108984683
H   H76       1.0  0.58450  0.66560  0.37080  1.0000 0.1108984683
H   H77       1.0  0.62160  0.89060  0.33410  1.0000 0.1108984683
H   H78       1.0  0.70750  0.83810  0.34250  1.0000 0.1108984683
H   H79       1.0  0.55480  0.64440  0.50990  1.0000 0.1108984683
H   H80       1.0  0.58120  0.72020  0.52880  1.0000 0.1108984683
H   H81       1.0  0.55380  0.82080  0.49870  1.0000 0.1108984683
H   H82       1.0  0.51320  0.74570  0.48150  1.0000 0.1108984683
H   H83       1.0  0.73970  0.77590  0.52470  1.0000 0.1108984683
H   H84       1.0  0.80610  0.72650  0.50640  1.0000 0.117178437
H   H85       1.0  0.77100  0.81490  0.47550  1.0000 0.1108984683
H   H86       1.0  0.70200  0.86250  0.49370  1.0000 0.1108984683
H   H87       1.0  0.74880  0.59620  0.48260  1.0000 0.1108984683
H   H88       1.0  0.64590  0.57620  0.48560  1.0000 0.1108984683
H   H89       1.0  0.61870  0.66170  0.45270  1.0000 0.1108984683
H   H90       1.0  0.72090  0.68730  0.45100  1.0000 0.1108984683
H   H91       1.0  0.52030  0.74240  0.68490  1.0000 0.1108984683
H   H92       1.0  0.54220  0.82150  0.66667  1.0000 0.1108984683
H   H93       1.0  0.57310  0.72990  0.63570  1.0000 0.1108984683
H   H94       1.0  0.55450  0.65070  0.65430  1.0000 0.1108984683
H   H95       1.0  0.69380  0.88200  0.66490  1.0000 0.117178437
H   H96       1.0  0.77120  0.84240  0.68200  1.0000 0.117178437
H   H97       1.0  0.80270  0.74610  0.65140  1.0000 0.1108984683
H   H98       1.0  0.72850  0.78840  0.63380  1.0000 0.117178437
H   H99       1.0  0.73190  0.71680  0.70960  1.0000 0.117178437
H   H100      1.0  0.63340  0.68100  0.70950  1.0000 0.1108984683
H   H101      1.0  0.67040  0.58770  0.67990  1.0000 0.117178437
H   H102      1.0  0.76890  0.62590  0.67940  1.0000 0.1108984683
H   H103      1.0  0.61790  0.81890  0.29730  1.0000 0.1108984683
H   H104      1.0  0.70500  0.76760  0.30540  1.0000 0.1108984683
H   H105      1.0  0.46420  0.66720  0.32590  1.0000 0.117178437
H   H106      1.0  0.46490  0.75090  0.30830  1.0000 0.117178437
H   H107      1.0  0.47930  0.83430  0.34110  1.0000 0.1108984683
H   H108      1.0  0.46410  0.75240  0.35860  1.0000 0.1108984683
H   H109      1.0  0.79920  0.35820  0.33050  1.0000 0.1108984683
H   H110      1.0  0.88800  0.41060  0.33630  1.0000 0.1108984683
H   H111      1.0  0.81590  0.30140  0.36870  1.0000 0.1108984683
H   H112      1.0  0.91550  0.33440  0.37080  1.0000 0.1108984683
H   H113      1.0  0.87840  0.10940  0.33410  1.0000 0.1108984683
H   H114      1.0  0.79250  0.16190  0.34250  1.0000 0.1108984683
H   H115      1.0  0.94520  0.35560  0.50990  1.0000 0.1108984683
H   H116      1.0  0.91880  0.27980  0.52880  1.0000 0.1108984683
H   H117      1.0  0.94620  0.17920  0.49870  1.0000 0.1108984683
H   H118      1.0  0.98680  0.25430  0.48150  1.0000 0.1108984683
H   H119      1.0  0.76030  0.22410  0.52470  1.0000 0.1108984683
H   H120      1.0  0.69390  0.27350  0.50640  1.0000 0.117178437
H   H121      1.0  0.72900  0.18510  0.47550  1.0000 0.1108984683
H   H122      1.0  0.79800  0.13750  0.49370  1.0000 0.1108984683
H   H123      1.0  0.75120  0.40380  0.48260  1.0000 0.1108984683
H   H124      1.0  0.85410  0.42380  0.48560  1.0000 0.1108984683
H   H125      1.0  0.88130  0.33830  0.45270  1.0000 0.1108984683
H   H126      1.0  0.77910  0.31270  0.45100  1.0000 0.1108984683
H   H127      1.0  0.97970  0.25760  0.68490  1.0000 0.1108984683
H   H128      1.0  0.95780  0.17850  0.66667  1.0000 0.1108984683
H   H129      1.0  0.92690  0.27010  0.63570  1.0000 0.1108984683
H   H130      1.0  0.94550  0.34930  0.65430  1.0000 0.1108984683
H   H131      1.0  0.80620  0.11800  0.66490  1.0000 0.117178437
H   H132      1.0  0.72880  0.15760  0.68200  1.0000 0.117178437
H   H133      1.0  0.69730  0.25390  0.65140  1.0000 0.1108984683
H   H134      1.0  0.77150  0.21160  0.63380  1.0000 0.117178437
H   H135      1.0  0.76810  0.28320  0.70960  1.0000 0.117178437
H   H136      1.0  0.86660  0.31900  0.70950  1.0000 0.1108984683
H   H137      1.0  0.82960  0.41230  0.67990  1.0000 0.117178437
H   H138      1.0  0.73110  0.37410  0.67940  1.0000 0.1108984683
H   H139      1.0  0.88210  0.18110  0.29730  1.0000 0.1108984683
H   H140      1.0  0.79500  0.23240  0.30540  1.0000 0.1108984683
H   H141      1.0  0.03580  0.33280  0.32590  1.0000 0.117178437
H   H142      1.0  0.03510  0.24910  0.30830  1.0000 0.117178437
H   H143      1.0  0.02070  0.16570  0.34110  1.0000 0.1108984683
H   H144      1.0  0.03590  0.24760  0.35860  1.0000 0.1108984683
H   H145      1.0  0.29920  0.35820  0.66950  1.0000 0.1108984683
H   H146      1.0  0.38800  0.41060  0.66370  1.0000 0.1108984683
H   H147      1.0  0.31590  0.30140  0.63130  1.0000 0.1108984683
H   H148      1.0  0.41550  0.33440  0.62920  1.0000 0.1108984683
H   H149      1.0  0.37840  0.10940  0.66590  1.0000 0.1108984683
H   H150      1.0  0.29250  0.16190  0.65750  1.0000 0.1108984683
H   H151      1.0  0.44520  0.35560  0.49010  1.0000 0.1108984683
H   H152      1.0  0.41880  0.27980  0.47120  1.0000 0.1108984683
H   H153      1.0  0.44620  0.17920  0.50130  1.0000 0.1108984683
H   H154      1.0  0.48680  0.25430  0.51850  1.0000 0.1108984683
H   H155      1.0  0.26030  0.22410  0.47530  1.0000 0.1108984683
H   H156      1.0  0.19390  0.27350  0.49360  1.0000 0.117178437
H   H157      1.0  0.22900  0.18510  0.52450  1.0000 0.1108984683
H   H158      1.0  0.29800  0.13750  0.50630  1.0000 0.1108984683
H   H159      1.0  0.25120  0.40380  0.51740  1.0000 0.1108984683
H   H160      1.0  0.35410  0.42380  0.51440  1.0000 0.1108984683
H   H161      1.0  0.38130  0.33830  0.54730  1.0000 0.1108984683
H   H162      1.0  0.27910  0.31270  0.54900  1.0000 0.1108984683
H   H163      1.0  0.47970  0.25760  0.31510  1.0000 0.1108984683
H   H164      1.0  0.45780  0.17850  0.33333  1.0000 0.1108984683
H   H165      1.0  0.42690  0.27010  0.36430  1.0000 0.1108984683
H   H166      1.0  0.44550  0.34930  0.34570  1.0000 0.1108984683
H   H167      1.0  0.30620  0.11800  0.33510  1.0000 0.117178437
H   H168      1.0  0.22880  0.15760  0.31800  1.0000 0.117178437
H   H169      1.0  0.19730  0.25390  0.34860  1.0000 0.1108984683
H   H170      1.0  0.27150  0.21160  0.36620  1.0000 0.117178437
H   H171      1.0  0.26810  0.28320  0.29040  1.0000 0.117178437
H   H172      1.0  0.36660  0.31900  0.29050  1.0000 0.1108984683
H   H173      1.0  0.32960  0.41230  0.32010  1.0000 0.117178437
H   H174      1.0  0.23110  0.37410  0.32060  1.0000 0.1108984683
H   H175      1.0  0.38210  0.18110  0.70270  1.0000 0.1108984683
H   H176      1.0  0.29500  0.23240  0.69460  1.0000 0.1108984683
H   H177      1.0  0.53580  0.33280  0.67410  1.0000 0.117178437
H   H178      1.0  0.53510  0.24910  0.69170  1.0000 0.117178437
H   H179      1.0  0.52070  0.16570  0.65890  1.0000 0.1108984683
H   H180      1.0  0.53590  0.24760  0.64140  1.0000 0.1108984683
H   H181      1.0  0.20080  0.64180  0.66950  1.0000 0.1108984683
H   H182      1.0  0.11200  0.58940  0.66370  1.0000 0.1108984683
H   H183      1.0  0.18410  0.69860  0.63130  1.0000 0.1108984683
H   H184      1.0  0.08450  0.66560  0.62920  1.0000 0.1108984683
H   H185      1.0  0.12160  0.89060  0.66590  1.0000 0.1108984683
H   H186      1.0  0.20750  0.83810  0.65750  1.0000 0.1108984683
H   H187      1.0  0.05480  0.64440  0.49010  1.0000 0.1108984683
H   H188      1.0  0.08120  0.72020  0.47120  1.0000 0.1108984683
H   H189      1.0  0.05380  0.82080  0.50130  1.0000 0.1108984683
H   H190      1.0  0.01320  0.74570  0.51850  1.0000 0.1108984683
H   H191      1.0  0.23970  0.77590  0.47530  1.0000 0.1108984683
H   H192      1.0  0.30610  0.72650  0.49360  1.0000 0.117178437
H   H193      1.0  0.27100  0.81490  0.52450  1.0000 0.1108984683
H   H194      1.0  0.20200  0.86250  0.50630  1.0000 0.1108984683
H   H195      1.0  0.24880  0.59620  0.51740  1.0000 0.1108984683
H   H196      1.0  0.14590  0.57620  0.51440  1.0000 0.1108984683
H   H197      1.0  0.11870  0.66170  0.54730  1.0000 0.1108984683
H   H198      1.0  0.22090  0.68730  0.54900  1.0000 0.1108984683
H   H199      1.0  0.02030  0.74240  0.31510  1.0000 0.1108984683
H   H200      1.0  0.04220  0.82150  0.33333  1.0000 0.1108984683
H   H201      1.0  0.07310  0.72990  0.36430  1.0000 0.1108984683
H   H202      1.0  0.05450  0.65070  0.34570  1.0000 0.1108984683
H   H203      1.0  0.19380  0.88200  0.33510  1.0000 0.117178437
H   H204      1.0  0.27120  0.84240  0.31800  1.0000 0.117178437
H   H205      1.0  0.30270  0.74610  0.34860  1.0000 0.1108984683
H   H206      1.0  0.22850  0.78840  0.36620  1.0000 0.117178437
H   H207      1.0  0.23190  0.71680  0.29040  1.0000 0.117178437
H   H208      1.0  0.13340  0.68100  0.29050  1.0000 0.1108984683
H   H209      1.0  0.17040  0.58770  0.32010  1.0000 0.117178437
H   H210      1.0  0.26890  0.62590  0.32060  1.0000 0.1108984683
H   H211      1.0  0.11790  0.81890  0.70270  1.0000 0.1108984683
H   H212      1.0  0.20500  0.76760  0.69460  1.0000 0.1108984683
H   H213      1.0  0.96420  0.66720  0.67410  1.0000 0.117178437
H   H214      1.0  0.96490  0.75090  0.69170  1.0000 0.117178437
H   H215      1.0  0.97930  0.83430  0.65890  1.0000 0.1108984683
H   H216      1.0  0.96410  0.75240  0.64140  1.0000 0.1108984683
H   H217      1.0  0.20080  0.85820  0.16950  1.0000 0.1108984683
H   H218      1.0  0.11200  0.91060  0.16370  1.0000 0.1108984683
H   H219      1.0  0.18410  0.80140  0.13130  1.0000 0.1108984683
H   H220      1.0  0.08450  0.83440  0.12920  1.0000 0.1108984683
H   H221      1.0  0.12160  0.60940  0.16590  1.0000 0.1108984683
H   H222      1.0  0.20750  0.66190  0.15750  1.0000 0.1108984683
H   H223      1.0  0.05480  0.85560  0.99010  1.0000 0.1108984683
H   H224      1.0  0.08120  0.77980  0.97120  1.0000 0.1108984683
H   H225      1.0  0.05380  0.67920  0.00130  1.0000 0.1108984683
H   H226      1.0  0.01320  0.75430  0.01850  1.0000 0.1108984683
H   H227      1.0  0.23970  0.72410  0.97530  1.0000 0.1108984683
H   H228      1.0  0.30610  0.77350  0.99360  1.0000 0.117178437
H   H229      1.0  0.27100  0.68510  0.02450  1.0000 0.1108984683
H   H230      1.0  0.20200  0.63750  0.00630  1.0000 0.1108984683
H   H231      1.0  0.24880  0.90380  0.01740  1.0000 0.1108984683
H   H232      1.0  0.14590  0.92380  0.01440  1.0000 0.1108984683
H   H233      1.0  0.11870  0.83830  0.04730  1.0000 0.1108984683
H   H234      1.0  0.22090  0.81270  0.04900  1.0000 0.1108984683
H   H235      1.0  0.02030  0.75760  0.81510  1.0000 0.1108984683
H   H236      1.0  0.04220  0.67850  0.83333  1.0000 0.1108984683
H   H237      1.0  0.07310  0.77010  0.86430  1.0000 0.1108984683
H   H238      1.0  0.05450  0.84930  0.84570  1.0000 0.1108984683
H   H239      1.0  0.19380  0.61800  0.83510  1.0000 0.117178437
H   H240      1.0  0.27120  0.65760  0.81800  1.0000 0.117178437
H   H241      1.0  0.30270  0.75390  0.84860  1.0000 0.1108984683
H   H242      1.0  0.22850  0.71160  0.86620  1.0000 0.117178437
H   H243      1.0  0.23190  0.78320  0.79040  1.0000 0.117178437
H   H244      1.0  0.13340  0.81900  0.79050  1.0000 0.1108984683
H   H245      1.0  0.17040  0.91230  0.82010  1.0000 0.117178437
H   H246      1.0  0.26890  0.87410  0.82060  1.0000 0.1108984683
H   H247      1.0  0.11790  0.68110  0.20270  1.0000 0.1108984683
H   H248      1.0  0.20500  0.73240  0.19460  1.0000 0.1108984683
H   H249      1.0  0.96420  0.83280  0.17410  1.0000 0.117178437
H   H250      1.0  0.96490  0.74910  0.19170  1.0000 0.117178437
H   H251      1.0  0.97930  0.66570  0.15890  1.0000 0.1108984683
H   H252      1.0  0.96410  0.74760  0.14140  1.0000 0.1108984683
H   H253      1.0  0.29920  0.14180  0.16950  1.0000 0.1108984683
H   H254      1.0  0.38800  0.08940  0.16370  1.0000 0.1108984683
H   H255      1.0  0.31590  0.19860  0.13130  1.0000 0.1108984683
H   H256      1.0  0.41550  0.16560  0.12920  1.0000 0.1108984683
H   H257      1.0  0.37840  0.39060  0.16590  1.0000 0.1108984683
H   H258      1.0  0.29250  0.33810  0.15750  1.0000 0.1108984683
H   H259      1.0  0.44520  0.14440  0.99010  1.0000 0.1108984683
H   H260      1.0  0.41880  0.22020  0.97120  1.0000 0.1108984683
H   H261      1.0  0.44620  0.32080  0.00130  1.0000 0.1108984683
H   H262      1.0  0.48680  0.24570  0.01850  1.0000 0.1108984683
H   H263      1.0  0.26030  0.27590  0.97530  1.0000 0.1108984683
H   H264      1.0  0.19390  0.22650  0.99360  1.0000 0.117178437
H   H265      1.0  0.22900  0.31490  0.02450  1.0000 0.1108984683
H   H266      1.0  0.29800  0.36250  0.00630  1.0000 0.1108984683
H   H267      1.0  0.25120  0.09620  0.01740  1.0000 0.1108984683
H   H268      1.0  0.35410  0.07620  0.01440  1.0000 0.1108984683
H   H269      1.0  0.38130  0.16170  0.04730  1.0000 0.1108984683
H   H270      1.0  0.27910  0.18730  0.04900  1.0000 0.1108984683
H   H271      1.0  0.47970  0.24240  0.81510  1.0000 0.1108984683
H   H272      1.0  0.45780  0.32150  0.83333  1.0000 0.1108984683
H   H273      1.0  0.42690  0.22990  0.86430  1.0000 0.1108984683
H   H274      1.0  0.44550  0.15070  0.84570  1.0000 0.1108984683
H   H275      1.0  0.30620  0.38200  0.83510  1.0000 0.117178437
H   H276      1.0  0.22880  0.34240  0.81800  1.0000 0.117178437
H   H277      1.0  0.19730  0.24610  0.84860  1.0000 0.1108984683
H   H278      1.0  0.27150  0.28840  0.86620  1.0000 0.117178437
H   H279      1.0  0.26810  0.21680  0.79040  1.0000 0.117178437
H   H280      1.0  0.36660  0.18100  0.79050  1.0000 0.1108984683
H   H281      1.0  0.32960  0.08770  0.82010  1.0000 0.117178437
H   H282      1.0  0.23110  0.12590  0.82060  1.0000 0.1108984683
H   H283      1.0  0.38210  0.31890  0.20270  1.0000 0.1108984683
H   H284      1.0  0.29500  0.26760  0.19460  1.0000 0.1108984683
H   H285      1.0  0.53580  0.16720  0.17410  1.0000 0.117178437
H   H286      1.0  0.53510  0.25090  0.19170  1.0000 0.117178437
H   H287      1.0  0.52070  0.33430  0.15890  1.0000 0.1108984683
H   H288      1.0  0.53590  0.25240  0.14140  1.0000 0.1108984683
C   C1        1.0  0.86300  0.14800  0.83460  1.0000 -0.1182442674
C   C2        1.0  0.87340  0.19700  0.85990  1.0000 -0.1182442674
C   C3        1.0  0.85400  0.33230  0.83670  1.0000 -0.1115522104
C   C4        1.0  0.90700  0.19600  0.01180  1.0000 -0.1309069643
C   C5        1.0  0.93300  0.26500  0.99070  1.0000 -0.1182442674
C   C6        1.0  0.75600  0.24410  0.00850  1.0000 -0.1182442674
C   C7        1.0  0.78100  0.30620  0.98650  1.0000 -0.1115522104
C   C8        1.0  0.81000  0.12300  0.98530  1.0000 -0.1371655427
C   C9        1.0  0.83100  0.18470  0.96240  1.0000 -0.1182442674
C   C10       1.0  0.93400  0.26790  0.17390  1.0000 -0.1309069643
C   C11       1.0  0.91100  0.20400  0.15220  1.0000 -0.1115522104
C   C12       1.0  0.78290  0.32800  0.17240  1.0000 -0.1115522104
C   C13       1.0  0.76100  0.26130  0.15050  1.0000 -0.1115522104
C   C14       1.0  0.82000  0.20690  0.19870  1.0000 -0.1115522104
C   C15       1.0  0.79400  0.14080  0.17810  1.0000 -0.1115522104
C   C16       1.0  0.85600  0.28200  0.81050  1.0000 -0.1115522104
C   C17       1.0  0.00300  0.22030  0.82190  1.0000 -0.1182442674
C   C18       1.0  0.99720  0.27700  0.84540  1.0000 -0.1371655427
C   C19       1.0  0.63700  0.85200  0.83460  1.0000 -0.1182442674
C   C20       1.0  0.62660  0.80300  0.85990  1.0000 -0.1182442674
C   C21       1.0  0.64600  0.66770  0.83670  1.0000 -0.1182442674
C   C22       1.0  0.59300  0.80400  0.01180  1.0000 -0.1309069643
C   C23       1.0  0.56700  0.73500  0.99070  1.0000 -0.1182442674
C   C24       1.0  0.74400  0.75590  0.00850  1.0000 -0.1182442674
C   C25       1.0  0.71900  0.69380  0.98650  1.0000 -0.1115522104
C   C26       1.0  0.69000  0.87700  0.98530  1.0000 -0.1371655427
C   C27       1.0  0.66900  0.81530  0.96240  1.0000 -0.1182442674
C   C28       1.0  0.56600  0.73210  0.17390  1.0000 -0.1309069643
C   C29       1.0  0.58900  0.79600  0.15220  1.0000 -0.1115522104
C   C30       1.0  0.71710  0.67200  0.17240  1.0000 -0.1115522104
C   C31       1.0  0.73900  0.73870  0.15050  1.0000 -0.1115522104
C   C32       1.0  0.68000  0.79310  0.19870  1.0000 -0.1115522104
C   C33       1.0  0.70600  0.85920  0.17810  1.0000 -0.1115522104
C   C34       1.0  0.64400  0.71800  0.81050  1.0000 -0.1115522104
C   C35       1.0  0.49700  0.77970  0.82190  1.0000 -0.1182442674
C   C36       1.0  0.50280  0.72300  0.84540  1.0000 -0.1371655427
C   C37       1.0  0.63700  0.64800  0.33460  1.0000 -0.1182442674
C   C38       1.0  0.62660  0.69700  0.35990  1.0000 -0.1182442674
C   C39       1.0  0.64600  0.83230  0.33670  1.0000 -0.1182442674
C   C40       1.0  0.59300  0.69600  0.51180  1.0000 -0.1309069643
C   C41       1.0  0.56700  0.76500  0.49070  1.0000 -0.1182442674
C   C42       1.0  0.74400  0.74410  0.50850  1.0000 -0.1182442674
C   C43       1.0  0.71900  0.80620  0.48650  1.0000 -0.1115522104
C   C44       1.0  0.69000  0.62300  0.48530  1.0000 -0.1371655427
C   C45       1.0  0.66900  0.68470  0.46240  1.0000 -0.1182442674
C   C46       1.0  0.56600  0.76790  0.67390  1.0000 -0.1309069643
C   C47       1.0  0.58900  0.70400  0.65220  1.0000 -0.1115522104
C   C48       1.0  0.71710  0.82800  0.67240  1.0000 -0.1115522104
C   C49       1.0  0.73900  0.76130  0.65050  1.0000 -0.1115522104
C   C50       1.0  0.68000  0.70690  0.69870  1.0000 -0.1115522104
C   C51       1.0  0.70600  0.64080  0.67810  1.0000 -0.1115522104
C   C52       1.0  0.64400  0.78200  0.31050  1.0000 -0.1115522104
C   C53       1.0  0.49700  0.72030  0.32190  1.0000 -0.1182442674
C   C54       1.0  0.50280  0.77700  0.34540  1.0000 -0.1371655427
C   C55       1.0  0.86300  0.35200  0.33460  1.0000 -0.1182442674
C   C56       1.0  0.87340  0.30300  0.35990  1.0000 -0.1182442674
C   C57       1.0  0.85400  0.16770  0.33670  1.0000 -0.1182442674
C   C58       1.0  0.90700  0.30400  0.51180  1.0000 -0.1309069643
C   C59       1.0  0.93300  0.23500  0.49070  1.0000 -0.1182442674
C   C60       1.0  0.75600  0.25590  0.50850  1.0000 -0.1182442674
C   C61       1.0  0.78100  0.19380  0.48650  1.0000 -0.1115522104
C   C62       1.0  0.81000  0.37700  0.48530  1.0000 -0.1371655427
C   C63       1.0  0.83100  0.31530  0.46240  1.0000 -0.1182442674
C   C64       1.0  0.93400  0.23210  0.67390  1.0000 -0.1309069643
C   C65       1.0  0.91100  0.29600  0.65220  1.0000 -0.1115522104
C   C66       1.0  0.78290  0.17200  0.67240  1.0000 -0.1115522104
C   C67       1.0  0.76100  0.23870  0.65050  1.0000 -0.1115522104
C   C68       1.0  0.82000  0.29310  0.69870  1.0000 -0.1115522104
C   C69       1.0  0.79400  0.35920  0.67810  1.0000 -0.1115522104
C   C70       1.0  0.85600  0.21800  0.31050  1.0000 -0.1115522104
C   C71       1.0  0.00300  0.27970  0.32190  1.0000 -0.1182442674
C   C72       1.0  0.99720  0.22300  0.34540  1.0000 -0.1309069643
C   C73       1.0  0.36300  0.35200  0.66540  1.0000 -0.1182442674
C   C74       1.0  0.37340  0.30300  0.64010  1.0000 -0.1182442674
C   C75       1.0  0.35400  0.16770  0.66330  1.0000 -0.1182442674
C   C76       1.0  0.40700  0.30400  0.48820  1.0000 -0.1309069643
C   C77       1.0  0.43300  0.23500  0.50930  1.0000 -0.1182442674
C   C78       1.0  0.25600  0.25590  0.49150  1.0000 -0.1182442674
C   C79       1.0  0.28100  0.19380  0.51350  1.0000 -0.1115522104
C   C80       1.0  0.31000  0.37700  0.51470  1.0000 -0.1371655427
C   C81       1.0  0.33100  0.31530  0.53760  1.0000 -0.1182442674
C   C82       1.0  0.43400  0.23210  0.32610  1.0000 -0.1309069643
C   C83       1.0  0.41100  0.29600  0.34780  1.0000 -0.1115522104
C   C84       1.0  0.28290  0.17200  0.32760  1.0000 -0.1115522104
C   C85       1.0  0.26100  0.23870  0.34950  1.0000 -0.1115522104
C   C86       1.0  0.32000  0.29310  0.30130  1.0000 -0.1115522104
C   C87       1.0  0.29400  0.35920  0.32190  1.0000 -0.1115522104
C   C88       1.0  0.35600  0.21800  0.68950  1.0000 -0.1115522104
C   C89       1.0  0.50300  0.27970  0.67810  1.0000 -0.1182442674
C   C90       1.0  0.49720  0.22300  0.65460  1.0000 -0.1371655427
C   C91       1.0  0.13700  0.64800  0.66540  1.0000 -0.1182442674
C   C92       1.0  0.12660  0.69700  0.64010  1.0000 -0.1182442674
C   C93       1.0  0.14600  0.83230  0.66330  1.0000 -0.1182442674
C   C94       1.0  0.09300  0.69600  0.48820  1.0000 -0.1309069643
C   C95       1.0  0.06700  0.76500  0.50930  1.0000 -0.1182442674
C   C96       1.0  0.24400  0.74410  0.49150  1.0000 -0.1182442674
C   C97       1.0  0.21900  0.80620  0.51350  1.0000 -0.1115522104
C   C98       1.0  0.19000  0.62300  0.51470  1.0000 -0.1371655427
C   C99       1.0  0.16900  0.68470  0.53760  1.0000 -0.1182442674
C   C100      1.0  0.06600  0.76790  0.32610  1.0000 -0.1309069643
C   C101      1.0  0.08900  0.70400  0.34780  1.0000 -0.1115522104
C   C102      1.0  0.21710  0.82800  0.32760  1.0000 -0.1115522104
C   C103      1.0  0.23900  0.76130  0.34950  1.0000 -0.1115522104
C   C104      1.0  0.18000  0.70690  0.30130  1.0000 -0.1115522104
C   C105      1.0  0.20600  0.64080  0.32190  1.0000 -0.1115522104
C   C106      1.0  0.14400  0.78200  0.68950  1.0000 -0.1115522104
C   C107      1.0  0.99700  0.72030  0.67810  1.0000 -0.1182442674
C   C108      1.0  0.00280  0.77700  0.65460  1.0000 -0.1371655427
C   C109      1.0  0.13700  0.85200  0.16540  1.0000 -0.1182442674
C   C110      1.0  0.12660  0.80300  0.14010  1.0000 -0.1182442674
C   C111      1.0  0.14600  0.66770  0.16330  1.0000 -0.1182442674
C   C112      1.0  0.09300  0.80400  0.98820  1.0000 -0.1309069643
C   C113      1.0  0.06700  0.73500  0.00930  1.0000 -0.1182442674
C   C114      1.0  0.24400  0.75590  0.99150  1.0000 -0.1182442674
C   C115      1.0  0.21900  0.69380  0.01350  1.0000 -0.1115522104
C   C116      1.0  0.19000  0.87700  0.01470  1.0000 -0.1371655427
C   C117      1.0  0.16900  0.81530  0.03760  1.0000 -0.1182442674
C   C118      1.0  0.06600  0.73210  0.82610  1.0000 -0.1309069643
C   C119      1.0  0.08900  0.79600  0.84780  1.0000 -0.1115522104
C   C120      1.0  0.21710  0.67200  0.82760  1.0000 -0.1115522104
C   C121      1.0  0.23900  0.73870  0.84950  1.0000 -0.1115522104
C   C122      1.0  0.18000  0.79310  0.80130  1.0000 -0.1115522104
C   C123      1.0  0.20600  0.85920  0.82190  1.0000 -0.1115522104
C   C124      1.0  0.14400  0.71800  0.18950  1.0000 -0.1115522104
C   C125      1.0  0.99700  0.77970  0.17810  1.0000 -0.1182442674
C   C126      1.0  0.00280  0.72300  0.15460  1.0000 -0.1371655427
C   C127      1.0  0.36300  0.14800  0.16540  1.0000 -0.1182442674
C   C128      1.0  0.37340  0.19700  0.14010  1.0000 -0.1182442674
C   C129      1.0  0.35400  0.33230  0.16330  1.0000 -0.1115522104
C   C130      1.0  0.40700  0.19600  0.98820  1.0000 -0.1309069643
C   C131      1.0  0.43300  0.26500  0.00930  1.0000 -0.1182442674
C   C132      1.0  0.25600  0.24410  0.99150  1.0000 -0.1182442674
C   C133      1.0  0.28100  0.30620  0.01350  1.0000 -0.1115522104
C   C134      1.0  0.31000  0.12300  0.01470  1.0000 -0.1371655427
C   C135      1.0  0.33100  0.18470  0.03760  1.0000 -0.1182442674
C   C136      1.0  0.43400  0.26790  0.82610  1.0000 -0.1309069643
C   C137      1.0  0.41100  0.20400  0.84780  1.0000 -0.1115522104
C   C138      1.0  0.28290  0.32800  0.82760  1.0000 -0.1115522104
C   C139      1.0  0.26100  0.26130  0.84950  1.0000 -0.1115522104
C   C140      1.0  0.32000  0.20690  0.80130  1.0000 -0.1115522104
C   C141      1.0  0.29400  0.14080  0.82190  1.0000 -0.1115522104
C   C142      1.0  0.35600  0.28200  0.18950  1.0000 -0.1115522104
C   C143      1.0  0.50300  0.22030  0.17810  1.0000 -0.1182442674
C   C144      1.0  0.49720  0.27700  0.15460  1.0000 -0.1309069643
I   I1        1.0  0.02871  0.27080  0.91962  1.0000 -0.3223523104
I   I2        1.0  0.74799  0.35624  0.91031  1.0000 -0.2606951648
I   I3        1.0  0.96732  0.52094  0.87584  1.0000 -0.2988560757
I   I4        1.0  0.93574  0.51235  0.96195  1.0000 -0.2903741534
I   I5        1.0  0.60386  0.04838  0.03739  1.0000 -0.3120318854
I   I6        1.0  0.81556  0.18304  0.08094  1.0000 -0.2903741534
I   I7        1.0  0.60857  0.04411  0.12638  1.0000 -0.2988560757
I   I8        1.0  0.75108  0.35989  0.25562  1.0000 -0.2462628984
I   I9        1.0  0.93679  0.52141  0.20424  1.0000 -0.2903741534
I   I10       1.0  0.01665  0.27289  0.24640  1.0000 -0.2903741534
I   I11       1.0  0.97313  0.52485  0.29053  1.0000 -0.3223523104
I   I12       1.0  0.47129  0.72920  0.91962  1.0000 -0.3223523104
I   I13       1.0  0.75201  0.64376  0.91031  1.0000 -0.2606951648
I   I14       1.0  0.53268  0.47906  0.87584  1.0000 -0.2988560757
I   I15       1.0  0.56426  0.48765  0.96195  1.0000 -0.2903741534
I   I16       1.0  0.89614  0.95162  0.03739  1.0000 -0.3120318854
I   I17       1.0  0.68444  0.81696  0.08094  1.0000 -0.2903741534
I   I18       1.0  0.89143  0.95589  0.12638  1.0000 -0.2988560757
I   I19       1.0  0.74892  0.64011  0.25562  1.0000 -0.2462628984
I   I20       1.0  0.56321  0.47859  0.20424  1.0000 -0.2988560757
I   I21       1.0  0.48335  0.72711  0.24640  1.0000 -0.2903741534
I   I22       1.0  0.52687  0.47515  0.29053  1.0000 -0.3223523104
I   I23       1.0  0.47129  0.77080  0.41962  1.0000 -0.3223523104
I   I24       1.0  0.75201  0.85624  0.41031  1.0000 -0.2606951648
I   I25       1.0  0.53268  0.02094  0.37584  1.0000 -0.2988560757
I   I26       1.0  0.56426  0.01235  0.46195  1.0000 -0.2903741534
I   I27       1.0  0.89614  0.54838  0.53739  1.0000 -0.3120318854
I   I28       1.0  0.68444  0.68304  0.58094  1.0000 -0.2903741534
I   I29       1.0  0.89143  0.54411  0.62638  1.0000 -0.2988560757
I   I30       1.0  0.74892  0.85989  0.75562  1.0000 -0.2462628984
I   I31       1.0  0.56321  0.02141  0.70424  1.0000 -0.2988560757
I   I32       1.0  0.48335  0.77289  0.74640  1.0000 -0.2903741534
I   I33       1.0  0.52687  0.02485  0.79053  1.0000 -0.3223523104
I   I34       1.0  0.02871  0.22920  0.41962  1.0000 -0.3223523104
I   I35       1.0  0.74799  0.14376  0.41031  1.0000 -0.2606951648
I   I36       1.0  0.96732  0.97906  0.37584  1.0000 -0.2988560757
I   I37       1.0  0.93574  0.98765  0.46195  1.0000 -0.2903741534
I   I38       1.0  0.60386  0.45162  0.53739  1.0000 -0.3120318854
I   I39       1.0  0.81556  0.31696  0.58094  1.0000 -0.2903741534
I   I40       1.0  0.60857  0.45589  0.62638  1.0000 -0.2988560757
I   I41       1.0  0.75108  0.14011  0.75562  1.0000 -0.2462628984
I   I42       1.0  0.93679  0.97859  0.70424  1.0000 -0.2903741534
I   I43       1.0  0.01665  0.22711  0.74640  1.0000 -0.2903741534
I   I44       1.0  0.97313  0.97515  0.79053  1.0000 -0.3223523104
I   I45       1.0  0.52871  0.22920  0.58038  1.0000 -0.3223523104
I   I46       1.0  0.24799  0.14376  0.58969  1.0000 -0.2606951648
I   I47       1.0  0.46732  0.97906  0.62416  1.0000 -0.2988560757
I   I48       1.0  0.43574  0.98765  0.53805  1.0000 -0.2903741534
I   I49       1.0  0.10386  0.45162  0.46261  1.0000 -0.3120318854
I   I50       1.0  0.31556  0.31696  0.41906  1.0000 -0.2903741534
I   I51       1.0  0.10857  0.45589  0.37362  1.0000 -0.2988560757
I   I52       1.0  0.25108  0.14011  0.24438  1.0000 -0.2462628984
I   I53       1.0  0.43679  0.97859  0.29576  1.0000 -0.2988560757
I   I54       1.0  0.51665  0.22711  0.25360  1.0000 -0.2903741534
I   I55       1.0  0.47313  0.97515  0.20947  1.0000 -0.3223523104
I   I56       1.0  0.97129  0.77080  0.58038  1.0000 -0.3223523104
I   I57       1.0  0.25201  0.85624  0.58969  1.0000 -0.2606951648
I   I58       1.0  0.03268  0.02094  0.62416  1.0000 -0.2988560757
I   I59       1.0  0.06426  0.01235  0.53805  1.0000 -0.2903741534
I   I60       1.0  0.39614  0.54838  0.46261  1.0000 -0.3120318854
I   I61       1.0  0.18444  0.68304  0.41906  1.0000 -0.2903741534
I   I62       1.0  0.39143  0.54411  0.37362  1.0000 -0.2988560757
I   I63       1.0  0.24892  0.85989  0.24438  1.0000 -0.2462628984
I   I64       1.0  0.06321  0.02141  0.29576  1.0000 -0.2988560757
I   I65       1.0  0.98335  0.77289  0.25360  1.0000 -0.2903741534
I   I66       1.0  0.02687  0.02485  0.20947  1.0000 -0.3223523104
I   I67       1.0  0.97129  0.72920  0.08038  1.0000 -0.3223523104
I   I68       1.0  0.25201  0.64376  0.08969  1.0000 -0.2606951648
I   I69       1.0  0.03268  0.47906  0.12416  1.0000 -0.2988560757
I   I70       1.0  0.06426  0.48765  0.03805  1.0000 -0.2903741534
I   I71       1.0  0.39614  0.95162  0.96261  1.0000 -0.3120318854
I   I72       1.0  0.18444  0.81696  0.91906  1.0000 -0.2903741534
I   I73       1.0  0.39143  0.95589  0.87362  1.0000 -0.2988560757
I   I74       1.0  0.24892  0.64011  0.74438  1.0000 -0.2462628984
I   I75       1.0  0.06321  0.47859  0.79576  1.0000 -0.2988560757
I   I76       1.0  0.98335  0.72711  0.75360  1.0000 -0.2903741534
I   I77       1.0  0.02687  0.47515  0.70947  1.0000 -0.3223523104
I   I78       1.0  0.52871  0.27080  0.08038  1.0000 -0.3223523104
I   I79       1.0  0.24799  0.35624  0.08969  1.0000 -0.2606951648
I   I80       1.0  0.46732  0.52094  0.12416  1.0000 -0.2988560757
I   I81       1.0  0.43574  0.51235  0.03805  1.0000 -0.2903741534
I   I82       1.0  0.10386  0.04838  0.96261  1.0000 -0.3120318854
I   I83       1.0  0.31556  0.18304  0.91906  1.0000 -0.2903741534
I   I84       1.0  0.10857  0.04411  0.87362  1.0000 -0.2988560757
I   I85       1.0  0.25108  0.35989  0.74438  1.0000 -0.2462628984
I   I86       1.0  0.43679  0.52141  0.79576  1.0000 -0.2988560757
I   I87       1.0  0.51665  0.27289  0.75360  1.0000 -0.2903741534
I   I88       1.0  0.47313  0.52485  0.70947  1.0000 -0.3223523104
N   N1        1.0  0.90630  0.28800  0.85640  1.0000 -0.0475734379
N   N2        1.0  0.85240  0.27340  0.97170  1.0000 -0.0475734379
N   N3        1.0  0.81000  0.16750  0.01050  1.0000 -0.0475734379
N   N4        1.0  0.81350  0.18340  0.15250  1.0000 -0.058774363
N   N5        1.0  0.85150  0.28870  0.18990  1.0000 -0.0475734379
N   N6        1.0  0.91110  0.19800  0.81300  1.0000 -0.0445587055
N   N7        1.0  0.59370  0.71200  0.85640  1.0000 -0.0475734379
N   N8        1.0  0.64760  0.72660  0.97170  1.0000 -0.0475734379
N   N9        1.0  0.69000  0.83250  0.01050  1.0000 -0.0475734379
N   N10       1.0  0.68650  0.81660  0.15250  1.0000 -0.058774363
N   N11       1.0  0.64850  0.71130  0.18990  1.0000 -0.0475734379
N   N12       1.0  0.58890  0.80200  0.81300  1.0000 -0.0445587055
N   N13       1.0  0.59370  0.78800  0.35640  1.0000 -0.0475734379
N   N14       1.0  0.64760  0.77340  0.47170  1.0000 -0.0475734379
N   N15       1.0  0.69000  0.66750  0.51050  1.0000 -0.0475734379
N   N16       1.0  0.68650  0.68340  0.65250  1.0000 -0.058774363
N   N17       1.0  0.64850  0.78870  0.68990  1.0000 -0.0475734379
N   N18       1.0  0.58890  0.69800  0.31300  1.0000 -0.0445587055
N   N19       1.0  0.90630  0.21200  0.35640  1.0000 -0.0475734379
N   N20       1.0  0.85240  0.22660  0.47170  1.0000 -0.0475734379
N   N21       1.0  0.81000  0.33250  0.51050  1.0000 -0.0475734379
N   N22       1.0  0.81350  0.31660  0.65250  1.0000 -0.058774363
N   N23       1.0  0.85150  0.21130  0.68990  1.0000 -0.0475734379
N   N24       1.0  0.91110  0.30200  0.31300  1.0000 -0.0445587055
N   N25       1.0  0.40630  0.21200  0.64360  1.0000 -0.0475734379
N   N26       1.0  0.35240  0.22660  0.52830  1.0000 -0.0475734379
N   N27       1.0  0.31000  0.33250  0.48950  1.0000 -0.0475734379
N   N28       1.0  0.31350  0.31660  0.34750  1.0000 -0.058774363
N   N29       1.0  0.35150  0.21130  0.31010  1.0000 -0.0475734379
N   N30       1.0  0.41110  0.30200  0.68700  1.0000 -0.0445587055
N   N31       1.0  0.09370  0.78800  0.64360  1.0000 -0.0475734379
N   N32       1.0  0.14760  0.77340  0.52830  1.0000 -0.0475734379
N   N33       1.0  0.19000  0.66750  0.48950  1.0000 -0.0475734379
N   N34       1.0  0.18650  0.68340  0.34750  1.0000 -0.058774363
N   N35       1.0  0.14850  0.78870  0.31010  1.0000 -0.0475734379
N   N36       1.0  0.08890  0.69800  0.68700  1.0000 -0.0475734379
N   N37       1.0  0.09370  0.71200  0.14360  1.0000 -0.0475734379
N   N38       1.0  0.14760  0.72660  0.02830  1.0000 -0.0475734379
N   N39       1.0  0.19000  0.83250  0.98950  1.0000 -0.0475734379
N   N40       1.0  0.18650  0.81660  0.84750  1.0000 -0.058774363
N   N41       1.0  0.14850  0.71130  0.81010  1.0000 -0.0475734379
N   N42       1.0  0.08890  0.80200  0.18700  1.0000 -0.0475734379
N   N43       1.0  0.40630  0.28800  0.14360  1.0000 -0.0475734379
N   N44       1.0  0.35240  0.27340  0.02830  1.0000 -0.0475734379
N   N45       1.0  0.31000  0.16750  0.98950  1.0000 -0.0475734379
N   N46       1.0  0.31350  0.18340  0.84750  1.0000 -0.058774363
N   N47       1.0  0.35150  0.28870  0.81010  1.0000 -0.0475734379
N   N48       1.0  0.41110  0.19800  0.18700  1.0000 -0.0445587055
