# DDEC6 charges by PACMAN v1.1 (https://github.com/mtap-research/PACMAN-charge/)
data_2017[Zr][scu]3[ASR]3
_chemical_formula_sum              "Zr6 H48 C80 O28"
_cell_length_a       19.9807
_cell_length_b       19.9807
_cell_length_c       16.0212
_cell_angle_alpha    90
_cell_angle_beta     90
_cell_angle_gamma    123.943

_symmetry_space_group_name_H-M    "P 1"
_symmetry_Int_Tables_number       1

loop_
  _symmetry_equiv_pos_as_xyz
  'x, y, z'

loop_
  _atom_site_type_symbol
  _atom_site_label
  _atom_site_symmetry_multiplicity
  _atom_site_fract_x
  _atom_site_fract_y
  _atom_site_fract_z
  _atom_site_occupancy
  _atom_site_charge
Zr  Zr1       1.0  0.93117  0.06883  0.00000  1.0000 2.3387307962
Zr  Zr2       1.0  0.06883  0.93117  0.00000  1.0000 2.3342418512
Zr  Zr3       1.0  0.09419  0.09419  0.11063  1.0000 2.4689230164
Zr  Zr4       1.0  0.90581  0.90581  0.11063  1.0000 2.4689230164
Zr  Zr5       1.0  0.90581  0.90581  0.88937  1.0000 2.4689230164
Zr  Zr6       1.0  0.09419  0.09419  0.88937  1.0000 2.4689230164
H   H1        1.0  0.91570  0.24210  0.13600  1.0000 0.1211107662
H   H2        1.0  0.90890  0.33710  0.21000  1.0000 0.1026988984
H   H3        1.0  0.11400  0.40260  0.33240  1.0000 0.1211107662
H   H4        1.0  0.11590  0.30190  0.26250  1.0000 0.1026988984
H   H5        1.0  0.01530  0.40930  0.43750  1.0000 0.1100028502
H   H6        1.0  0.00570  0.46390  0.17710  1.0000 0.3037194749
H   H7        1.0  0.08430  0.75790  0.13600  1.0000 0.1211107662
H   H8        1.0  0.09110  0.66290  0.21000  1.0000 0.1026988984
H   H9        1.0  0.88600  0.59740  0.33240  1.0000 0.1211107662
H   H10       1.0  0.88410  0.69810  0.26250  1.0000 0.1026988984
H   H11       1.0  0.98470  0.59070  0.43750  1.0000 0.1100028502
H   H12       1.0  0.99430  0.53610  0.17710  1.0000 0.306082881
H   H13       1.0  0.75790  0.08430  0.86400  1.0000 0.1211107662
H   H14       1.0  0.66290  0.09110  0.79000  1.0000 0.1026988984
H   H15       1.0  0.59740  0.88600  0.66760  1.0000 0.1211107662
H   H16       1.0  0.69810  0.88410  0.73750  1.0000 0.1026988984
H   H17       1.0  0.59070  0.98470  0.56250  1.0000 0.1100028502
H   H18       1.0  0.53610  0.99430  0.82290  1.0000 0.3037194749
H   H19       1.0  0.24210  0.91570  0.86400  1.0000 0.1211107662
H   H20       1.0  0.33710  0.90890  0.79000  1.0000 0.1026988984
H   H21       1.0  0.40260  0.11400  0.66760  1.0000 0.1211107662
H   H22       1.0  0.30190  0.11590  0.73750  1.0000 0.1026988984
H   H23       1.0  0.40930  0.01530  0.56250  1.0000 0.1100028502
H   H24       1.0  0.46390  0.00570  0.82290  1.0000 0.306082881
H   H25       1.0  0.08430  0.75790  0.86400  1.0000 0.1211107662
H   H26       1.0  0.09110  0.66290  0.79000  1.0000 0.1026988984
H   H27       1.0  0.88600  0.59740  0.66760  1.0000 0.1211107662
H   H28       1.0  0.88410  0.69810  0.73750  1.0000 0.1026988984
H   H29       1.0  0.98470  0.59070  0.56250  1.0000 0.1100028502
H   H30       1.0  0.99430  0.53610  0.82290  1.0000 0.306082881
H   H31       1.0  0.91570  0.24210  0.86400  1.0000 0.1211107662
H   H32       1.0  0.90890  0.33710  0.79000  1.0000 0.1026988984
H   H33       1.0  0.11400  0.40260  0.66760  1.0000 0.1211107662
H   H34       1.0  0.11590  0.30190  0.73750  1.0000 0.1026988984
H   H35       1.0  0.01530  0.40930  0.56250  1.0000 0.1100028502
H   H36       1.0  0.00570  0.46390  0.82290  1.0000 0.3037194749
H   H37       1.0  0.24210  0.91570  0.13600  1.0000 0.1211107662
H   H38       1.0  0.33710  0.90890  0.21000  1.0000 0.1026988984
H   H39       1.0  0.40260  0.11400  0.33240  1.0000 0.1211107662
H   H40       1.0  0.30190  0.11590  0.26250  1.0000 0.1026988984
H   H41       1.0  0.40930  0.01530  0.43750  1.0000 0.1100028502
H   H42       1.0  0.46390  0.00570  0.17710  1.0000 0.306082881
H   H43       1.0  0.75790  0.08430  0.13600  1.0000 0.1211107662
H   H44       1.0  0.66290  0.09110  0.21000  1.0000 0.1026988984
H   H45       1.0  0.59740  0.88600  0.33240  1.0000 0.1211107662
H   H46       1.0  0.69810  0.88410  0.26250  1.0000 0.1026988984
H   H47       1.0  0.59070  0.98470  0.43750  1.0000 0.1100028502
H   H48       1.0  0.53610  0.99430  0.17710  1.0000 0.3037194749
C   C1        1.0  0.02083  0.20397  0.13920  1.0000 0.6207673763
C   C2        1.0  0.02018  0.26682  0.18860  1.0000 -0.0575635173
C   C3        1.0  0.95663  0.27557  0.17540  1.0000 -0.1012646715
C   C4        1.0  0.95279  0.33181  0.21870  1.0000 -0.2005087408
C   C5        1.0  0.01324  0.38216  0.27620  1.0000 0.0686455434
C   C6        1.0  0.07371  0.37029  0.29210  1.0000 -0.1631272482
C   C7        1.0  0.07562  0.31158  0.24950  1.0000 -0.0939706881
C   C8        1.0  0.00882  0.44578  0.32260  1.0000 -0.0675129705
C   C9        1.0  0.00890  0.44670  0.40810  1.0000 -0.1858406095
C   C10       1.0  0.97917  0.79603  0.13920  1.0000 0.6207673763
C   C11       1.0  0.97982  0.73318  0.18860  1.0000 -0.0575635173
C   C12       1.0  0.04337  0.72443  0.17540  1.0000 -0.1012646715
C   C13       1.0  0.04721  0.66819  0.21870  1.0000 -0.2005087408
C   C14       1.0  0.98676  0.61784  0.27620  1.0000 0.0686455434
C   C15       1.0  0.92629  0.62971  0.29210  1.0000 -0.1631272482
C   C16       1.0  0.92438  0.68842  0.24950  1.0000 -0.0939706881
C   C17       1.0  0.99118  0.55422  0.32260  1.0000 -0.0675129705
C   C18       1.0  0.99110  0.55330  0.40810  1.0000 -0.1858406095
C   C19       1.0  0.79603  0.97917  0.86080  1.0000 0.6207673763
C   C20       1.0  0.73318  0.97982  0.81140  1.0000 -0.0575635173
C   C21       1.0  0.72443  0.04337  0.82460  1.0000 -0.1012646715
C   C22       1.0  0.66819  0.04721  0.78130  1.0000 -0.2005087408
C   C23       1.0  0.61784  0.98676  0.72380  1.0000 0.0686455434
C   C24       1.0  0.62971  0.92629  0.70790  1.0000 -0.1631272482
C   C25       1.0  0.68842  0.92438  0.75050  1.0000 -0.0939706881
C   C26       1.0  0.55422  0.99118  0.67740  1.0000 -0.0675129705
C   C27       1.0  0.55330  0.99110  0.59190  1.0000 -0.1858406095
C   C28       1.0  0.20397  0.02083  0.86080  1.0000 0.6207673763
C   C29       1.0  0.26682  0.02018  0.81140  1.0000 -0.0575635173
C   C30       1.0  0.27557  0.95663  0.82460  1.0000 -0.1012646715
C   C31       1.0  0.33181  0.95279  0.78130  1.0000 -0.2005087408
C   C32       1.0  0.38216  0.01324  0.72380  1.0000 0.0686455434
C   C33       1.0  0.37029  0.07371  0.70790  1.0000 -0.1631272482
C   C34       1.0  0.31158  0.07562  0.75050  1.0000 -0.0939706881
C   C35       1.0  0.44578  0.00882  0.67740  1.0000 -0.0675129705
C   C36       1.0  0.44670  0.00890  0.59190  1.0000 -0.1858406095
C   C37       1.0  0.97917  0.79603  0.86080  1.0000 0.6207673763
C   C38       1.0  0.97982  0.73318  0.81140  1.0000 -0.0575635173
C   C39       1.0  0.04337  0.72443  0.82460  1.0000 -0.1012646715
C   C40       1.0  0.04721  0.66819  0.78130  1.0000 -0.2005087408
C   C41       1.0  0.98676  0.61784  0.72380  1.0000 0.0686455434
C   C42       1.0  0.92629  0.62971  0.70790  1.0000 -0.1631272482
C   C43       1.0  0.92438  0.68842  0.75050  1.0000 -0.0939706881
C   C44       1.0  0.99118  0.55422  0.67740  1.0000 -0.0675129705
C   C45       1.0  0.99110  0.55330  0.59190  1.0000 -0.1858406095
C   C46       1.0  0.02083  0.20397  0.86080  1.0000 0.6207673763
C   C47       1.0  0.02018  0.26682  0.81140  1.0000 -0.0575635173
C   C48       1.0  0.95663  0.27557  0.82460  1.0000 -0.1012646715
C   C49       1.0  0.95279  0.33181  0.78130  1.0000 -0.2005087408
C   C50       1.0  0.01324  0.38216  0.72380  1.0000 0.0686455434
C   C51       1.0  0.07371  0.37029  0.70790  1.0000 -0.1631272482
C   C52       1.0  0.07562  0.31158  0.75050  1.0000 -0.0939706881
C   C53       1.0  0.00882  0.44578  0.67740  1.0000 -0.0675129705
C   C54       1.0  0.00890  0.44670  0.59190  1.0000 -0.1858406095
C   C55       1.0  0.20397  0.02083  0.13920  1.0000 0.6207673763
C   C56       1.0  0.26682  0.02018  0.18860  1.0000 -0.0575635173
C   C57       1.0  0.27557  0.95663  0.17540  1.0000 -0.1012646715
C   C58       1.0  0.33181  0.95279  0.21870  1.0000 -0.2005087408
C   C59       1.0  0.38216  0.01324  0.27620  1.0000 0.0686455434
C   C60       1.0  0.37029  0.07371  0.29210  1.0000 -0.1631272482
C   C61       1.0  0.31158  0.07562  0.24950  1.0000 -0.0939706881
C   C62       1.0  0.44578  0.00882  0.32260  1.0000 -0.0675129705
C   C63       1.0  0.44670  0.00890  0.40810  1.0000 -0.1858406095
C   C64       1.0  0.79603  0.97917  0.13920  1.0000 0.6207673763
C   C65       1.0  0.73318  0.97982  0.18860  1.0000 -0.0575635173
C   C66       1.0  0.72443  0.04337  0.17540  1.0000 -0.1012646715
C   C67       1.0  0.66819  0.04721  0.21870  1.0000 -0.2005087408
C   C68       1.0  0.61784  0.98676  0.27620  1.0000 0.0686455434
C   C69       1.0  0.62971  0.92629  0.29210  1.0000 -0.1631272482
C   C70       1.0  0.68842  0.92438  0.24950  1.0000 -0.0939706881
C   C71       1.0  0.55422  0.99118  0.32260  1.0000 -0.0675129705
C   C72       1.0  0.55330  0.99110  0.40810  1.0000 -0.1858406095
C   C73       1.0  0.00000  0.50000  0.27930  1.0000 0.1444520195
C   C74       1.0  0.00000  0.50000  0.45210  1.0000 0.0526961991
C   C75       1.0  0.50000  0.00000  0.72070  1.0000 0.1444520195
C   C76       1.0  0.50000  0.00000  0.54790  1.0000 0.0526961991
C   C77       1.0  0.00000  0.50000  0.72070  1.0000 0.1444520195
C   C78       1.0  0.00000  0.50000  0.54790  1.0000 0.0526961991
C   C79       1.0  0.50000  0.00000  0.27930  1.0000 0.1457156976
C   C80       1.0  0.50000  0.00000  0.45210  1.0000 0.0526961991
O   O1        1.0  0.07351  0.18869  0.15775  1.0000 -0.6357225041
O   O2        1.0  0.96921  0.17071  0.08261  1.0000 -0.5796543369
O   O3        1.0  0.92649  0.81131  0.15775  1.0000 -0.6357225041
O   O4        1.0  0.03079  0.82929  0.08261  1.0000 -0.5796543369
O   O5        1.0  0.81131  0.92649  0.84225  1.0000 -0.6340466002
O   O6        1.0  0.82929  0.03079  0.91739  1.0000 -0.5796543369
O   O7        1.0  0.18869  0.07351  0.84225  1.0000 -0.6340466002
O   O8        1.0  0.17071  0.96921  0.91739  1.0000 -0.5796543369
O   O9        1.0  0.92649  0.81131  0.84225  1.0000 -0.6357225041
O   O10       1.0  0.03079  0.82929  0.91739  1.0000 -0.5796543369
O   O11       1.0  0.07351  0.18869  0.84225  1.0000 -0.6357225041
O   O12       1.0  0.96921  0.17071  0.91739  1.0000 -0.5796543369
O   O13       1.0  0.18869  0.07351  0.15775  1.0000 -0.6340466002
O   O14       1.0  0.17071  0.96921  0.08261  1.0000 -0.5796543369
O   O15       1.0  0.81131  0.92649  0.15775  1.0000 -0.6340466002
O   O16       1.0  0.82929  0.03079  0.08261  1.0000 -0.5796543369
O   O17       1.0  0.00000  0.50000  0.19450  1.0000 -0.4170606146
O   O18       1.0  0.50000  0.00000  0.80550  1.0000 -0.4170606146
O   O19       1.0  0.00000  0.50000  0.80550  1.0000 -0.4170606146
O   O20       1.0  0.50000  0.00000  0.19450  1.0000 -0.4170606146
O   O21       1.0  0.96686  0.03314  0.11040  1.0000 -1.1702591638
O   O22       1.0  0.03314  0.96686  0.11040  1.0000 -1.1702591638
O   O23       1.0  0.96686  0.03314  0.88960  1.0000 -1.1702591638
O   O24       1.0  0.03314  0.96686  0.88960  1.0000 -1.1702591638
O   O25       1.0  0.06048  0.12732  0.00000  1.0000 -1.1781047145
O   O26       1.0  0.93952  0.87268  0.00000  1.0000 -1.1781047145
O   O27       1.0  0.87268  0.93952  0.00000  1.0000 -1.18695213
O   O28       1.0  0.12732  0.06048  0.00000  1.0000 -1.18695213
