# DDEC6 charges by PACMAN v1.1 (https://github.com/mtap-research/PACMAN-charge/)
data_2017[Co][dia]3[ASR]2
_chemical_formula_sum              "Co4 H16 C16 N16 O16"
_cell_length_a       9.0847
_cell_length_b       13.8397
_cell_length_c       9.1332
_cell_angle_alpha    90
_cell_angle_beta     117.392
_cell_angle_gamma    90

_symmetry_space_group_name_H-M    "P 1"
_symmetry_Int_Tables_number       1

loop_
  _symmetry_equiv_pos_as_xyz
  'x, y, z'

loop_
  _atom_site_type_symbol
  _atom_site_label
  _atom_site_symmetry_multiplicity
  _atom_site_fract_x
  _atom_site_fract_y
  _atom_site_fract_z
  _atom_site_occupancy
  _atom_site_charge
Co  Co1       1.0  0.77808  0.40416  0.72241  1.0000 0.8243788621
Co  Co2       1.0  0.72192  0.90416  0.27759  1.0000 0.8243788621
Co  Co3       1.0  0.22192  0.59584  0.27759  1.0000 0.8243788621
Co  Co4       1.0  0.27808  0.09584  0.72241  1.0000 0.8243788621
H   H1        1.0  0.66540  0.21050  0.50420  1.0000 0.286051943
H   H2        1.0  0.53950  0.28080  0.83970  1.0000 0.129362016
H   H3        1.0  0.50320  0.06710  0.38970  1.0000 0.3100744403
H   H4        1.0  0.38640  0.03120  0.45570  1.0000 0.3100744403
H   H5        1.0  0.83460  0.71050  0.49580  1.0000 0.286051943
H   H6        1.0  0.96050  0.78080  0.16030  1.0000 0.129362016
H   H7        1.0  0.99680  0.56710  0.61030  1.0000 0.3100744403
H   H8        1.0  0.11360  0.53120  0.54430  1.0000 0.3100744403
H   H9        1.0  0.33460  0.78950  0.49580  1.0000 0.286051943
H   H10       1.0  0.46050  0.71920  0.16030  1.0000 0.129362016
H   H11       1.0  0.49680  0.93290  0.61030  1.0000 0.3100744403
H   H12       1.0  0.61360  0.96880  0.54430  1.0000 0.3100744403
H   H13       1.0  0.16540  0.28950  0.50420  1.0000 0.286051943
H   H14       1.0  0.03950  0.21920  0.83970  1.0000 0.129362016
H   H15       1.0  0.00320  0.43290  0.38970  1.0000 0.3100744403
H   H16       1.0  0.88640  0.46880  0.45570  1.0000 0.3100744403
C   C1        1.0  0.99100  0.46010  0.05450  1.0000 0.4686310506
C   C2        1.0  0.52380  0.48860  0.42930  1.0000 0.4636625192
C   C3        1.0  0.54650  0.24780  0.75200  1.0000 0.1483779429
C   C4        1.0  0.50500  0.14580  0.56290  1.0000 0.4976072749
C   C5        1.0  0.50900  0.96010  0.94550  1.0000 0.4686310506
C   C6        1.0  0.97620  0.98860  0.57070  1.0000 0.4636625192
C   C7        1.0  0.95350  0.74780  0.24800  1.0000 0.1483779429
C   C8        1.0  0.99500  0.64580  0.43710  1.0000 0.4976072749
C   C9        1.0  0.00900  0.53990  0.94550  1.0000 0.4686310506
C   C10       1.0  0.47620  0.51140  0.57070  1.0000 0.4636625192
C   C11       1.0  0.45350  0.75220  0.24800  1.0000 0.1483779429
C   C12       1.0  0.49500  0.85420  0.43710  1.0000 0.4976072749
C   C13       1.0  0.49100  0.03990  0.05450  1.0000 0.4686310506
C   C14       1.0  0.02380  0.01140  0.42930  1.0000 0.4636625192
C   C15       1.0  0.04650  0.25220  0.75200  1.0000 0.1483779429
C   C16       1.0  0.00500  0.35420  0.56290  1.0000 0.4976072749
N   N1        1.0  0.64210  0.27640  0.68690  1.0000 -0.2149728843
N   N2        1.0  0.61650  0.21060  0.56800  1.0000 -0.17607141
N   N3        1.0  0.46060  0.16790  0.68270  1.0000 -0.4457749659
N   N4        1.0  0.46000  0.07340  0.45800  1.0000 -0.586820797
N   N5        1.0  0.85790  0.77640  0.31310  1.0000 -0.2149728843
N   N6        1.0  0.88350  0.71060  0.43200  1.0000 -0.17607141
N   N7        1.0  0.03940  0.66790  0.31730  1.0000 -0.4457749659
N   N8        1.0  0.04000  0.57340  0.54200  1.0000 -0.586820797
N   N9        1.0  0.35790  0.72360  0.31310  1.0000 -0.2152548739
N   N10       1.0  0.38350  0.78940  0.43200  1.0000 -0.17607141
N   N11       1.0  0.53940  0.83210  0.31730  1.0000 -0.4457749659
N   N12       1.0  0.54000  0.92660  0.54200  1.0000 -0.586820797
N   N13       1.0  0.14210  0.22360  0.68690  1.0000 -0.2149728843
N   N14       1.0  0.11650  0.28940  0.56800  1.0000 -0.17607141
N   N15       1.0  0.96060  0.33210  0.68270  1.0000 -0.4457749659
N   N16       1.0  0.96000  0.42660  0.45800  1.0000 -0.586820797
O   O1        1.0  0.89360  0.39130  0.97920  1.0000 -0.5026042396
O   O2        1.0  0.07630  0.46700  0.20630  1.0000 -0.5126183489
O   O3        1.0  0.65920  0.44450  0.47390  1.0000 -0.5229022661
O   O4        1.0  0.42730  0.51560  0.28800  1.0000 -0.4763850802
O   O5        1.0  0.60640  0.89130  0.02080  1.0000 -0.5026042396
O   O6        1.0  0.42370  0.96700  0.79370  1.0000 -0.5126183489
O   O7        1.0  0.84080  0.94450  0.52610  1.0000 -0.5229022661
O   O8        1.0  0.07270  0.01560  0.71200  1.0000 -0.4763850802
O   O9        1.0  0.10640  0.60870  0.02080  1.0000 -0.5026042396
O   O10       1.0  0.92370  0.53300  0.79370  1.0000 -0.5126183489
O   O11       1.0  0.34080  0.55550  0.52610  1.0000 -0.5229022661
O   O12       1.0  0.57270  0.48440  0.71200  1.0000 -0.4763850802
O   O13       1.0  0.39360  0.10870  0.97920  1.0000 -0.5026042396
O   O14       1.0  0.57630  0.03300  0.20630  1.0000 -0.5126183489
O   O15       1.0  0.15920  0.05550  0.47390  1.0000 -0.5229022661
O   O16       1.0  0.92730  0.98440  0.28800  1.0000 -0.4763850802
