# DDEC6 charges by PACMAN v1.1 (https://github.com/mtap-research/PACMAN-charge/)
data_2017[La][nan]2[ASR]2
_chemical_formula_sum              "La8 H108 C180 N12 O72"
_cell_length_a       13.5721
_cell_length_b       13.5721
_cell_length_c       37.803
_cell_angle_alpha    84.0645
_cell_angle_beta     95.9355
_cell_angle_gamma    75.6215

_symmetry_space_group_name_H-M    "P 1"
_symmetry_Int_Tables_number       1

loop_
  _symmetry_equiv_pos_as_xyz
  'x, y, z'

loop_
  _atom_site_type_symbol
  _atom_site_label
  _atom_site_symmetry_multiplicity
  _atom_site_fract_x
  _atom_site_fract_y
  _atom_site_fract_z
  _atom_site_occupancy
  _atom_site_charge
La  La1       1.0  0.09669  0.34399  0.29382  1.0000 1.9067701345
La  La2       1.0  0.04278  0.52280  0.43167  1.0000 1.939186339
La  La3       1.0  0.34399  0.09669  0.20618  1.0000 1.903920496
La  La4       1.0  0.52280  0.04278  0.06833  1.0000 1.9337397461
La  La5       1.0  0.90331  0.65601  0.70618  1.0000 1.9067701345
La  La6       1.0  0.95722  0.47720  0.56833  1.0000 1.939186339
La  La7       1.0  0.65601  0.90331  0.79382  1.0000 1.903920496
La  La8       1.0  0.47720  0.95722  0.93167  1.0000 1.939186339
H   H1        1.0  0.26000  0.09480  0.36340  1.0000 0.1368535777
H   H2        1.0  0.29440  0.88140  0.29600  1.0000 0.1304061664
H   H3        1.0  0.30670  0.80090  0.40240  1.0000 0.1304061664
H   H4        1.0  0.26860  0.05320  0.42400  1.0000 0.1304061664
H   H5        1.0  0.23400  0.95220  0.43680  1.0000 0.1304061664
H   H6        1.0  0.47860  0.97480  0.41270  1.0000 0.1109645821
H   H7        1.0  0.63470  0.90610  0.44900  1.0000 0.1109645821
H   H8        1.0  0.48630  0.81770  0.52930  1.0000 0.1304061664
H   H9        1.0  0.32960  0.88340  0.49210  1.0000 0.1304061664
H   H10       1.0  0.94560  0.56700  0.14380  1.0000 0.1109645821
H   H11       1.0  0.78500  0.59220  0.10970  1.0000 0.1212418045
H   H12       1.0  0.66420  0.53540  0.20090  1.0000 0.1212418045
H   H13       1.0  0.82440  0.50640  0.23410  1.0000 0.1212418045
H   H14       1.0  0.55600  0.64640  0.13900  1.0000 0.1304061664
H   H15       1.0  0.57380  0.52540  0.13860  1.0000 0.1304061664
H   H16       1.0  0.56550  0.75310  0.08760  1.0000 0.1304061664
H   H17       1.0  0.58330  0.63770  0.99370  1.0000 0.1461073999
H   H18       1.0  0.63340  0.45020  0.08730  1.0000 0.1304061664
H   H19       1.0  0.05970  0.76430  0.35460  1.0000 0.1368535777
H   H20       1.0  0.05770  0.90970  0.25550  1.0000 0.1304061664
H   H21       1.0  0.09600  0.60820  0.26900  1.0000 0.1304061664
H   H22       1.0  0.11190  0.80930  0.20970  1.0000 0.1304061664
H   H23       1.0  0.11600  0.68960  0.21490  1.0000 0.1304061664
H   H24       1.0  0.01230  0.82110  0.15030  1.0000 0.1212418045
H   H25       1.0  0.85290  0.86150  0.11690  1.0000 0.1212418045
H   H26       1.0  0.73220  0.78260  0.20540  1.0000 0.1109645821
H   H27       1.0  0.89300  0.74560  0.23970  1.0000 0.1109645821
H   H28       1.0  0.09480  0.26000  0.13660  1.0000 0.1368535777
H   H29       1.0  0.88140  0.29440  0.20400  1.0000 0.1304061664
H   H30       1.0  0.80090  0.30670  0.09760  1.0000 0.1304061664
H   H31       1.0  0.05320  0.26860  0.07600  1.0000 0.1304061664
H   H32       1.0  0.95220  0.23400  0.06320  1.0000 0.1304061664
H   H33       1.0  0.97480  0.47860  0.08730  1.0000 0.1109645821
H   H34       1.0  0.90610  0.63470  0.05100  1.0000 0.1109645821
H   H35       1.0  0.81770  0.48630  0.97070  1.0000 0.1304061664
H   H36       1.0  0.88340  0.32960  0.00790  1.0000 0.1212418045
H   H37       1.0  0.56700  0.94560  0.35620  1.0000 0.1109645821
H   H38       1.0  0.59220  0.78500  0.39030  1.0000 0.1212418045
H   H39       1.0  0.53540  0.66420  0.29910  1.0000 0.1212418045
H   H40       1.0  0.50640  0.82440  0.26590  1.0000 0.1212418045
H   H41       1.0  0.64640  0.55600  0.36100  1.0000 0.1304061664
H   H42       1.0  0.52540  0.57380  0.36140  1.0000 0.1304061664
H   H43       1.0  0.75310  0.56550  0.41240  1.0000 0.1304061664
H   H44       1.0  0.63770  0.58330  0.50630  1.0000 0.1461073999
H   H45       1.0  0.45020  0.63340  0.41270  1.0000 0.1304061664
H   H46       1.0  0.76430  0.05970  0.14540  1.0000 0.1368535777
H   H47       1.0  0.90970  0.05770  0.24450  1.0000 0.1304061664
H   H48       1.0  0.60820  0.09600  0.23100  1.0000 0.1304061664
H   H49       1.0  0.80930  0.11190  0.29030  1.0000 0.1304061664
H   H50       1.0  0.68960  0.11600  0.28510  1.0000 0.1304061664
H   H51       1.0  0.82110  0.01230  0.34970  1.0000 0.1212418045
H   H52       1.0  0.86150  0.85290  0.38310  1.0000 0.1212418045
H   H53       1.0  0.78260  0.73220  0.29460  1.0000 0.1109645821
H   H54       1.0  0.74560  0.89300  0.26030  1.0000 0.1109645821
H   H55       1.0  0.74000  0.90520  0.63660  1.0000 0.1368535777
H   H56       1.0  0.70560  0.11860  0.70400  1.0000 0.1304061664
H   H57       1.0  0.69330  0.19910  0.59760  1.0000 0.1304061664
H   H58       1.0  0.73140  0.94680  0.57600  1.0000 0.1304061664
H   H59       1.0  0.76600  0.04780  0.56320  1.0000 0.1304061664
H   H60       1.0  0.52140  0.02520  0.58730  1.0000 0.1109645821
H   H61       1.0  0.36530  0.09390  0.55100  1.0000 0.1109645821
H   H62       1.0  0.51370  0.18230  0.47070  1.0000 0.1304061664
H   H63       1.0  0.67040  0.11660  0.50790  1.0000 0.1212418045
H   H64       1.0  0.05440  0.43300  0.85620  1.0000 0.1109645821
H   H65       1.0  0.21500  0.40780  0.89030  1.0000 0.1212418045
H   H66       1.0  0.33580  0.46460  0.79910  1.0000 0.1212418045
H   H67       1.0  0.17560  0.49360  0.76590  1.0000 0.1212418045
H   H68       1.0  0.44400  0.35360  0.86100  1.0000 0.1304061664
H   H69       1.0  0.42620  0.47460  0.86140  1.0000 0.1304061664
H   H70       1.0  0.43450  0.24690  0.91240  1.0000 0.1304061664
H   H71       1.0  0.41670  0.36230  0.00630  1.0000 0.1461073999
H   H72       1.0  0.36660  0.54980  0.91270  1.0000 0.1304061664
H   H73       1.0  0.94030  0.23570  0.64540  1.0000 0.1368535777
H   H74       1.0  0.94230  0.09030  0.74450  1.0000 0.1304061664
H   H75       1.0  0.90400  0.39180  0.73100  1.0000 0.1304061664
H   H76       1.0  0.88810  0.19070  0.79030  1.0000 0.1304061664
H   H77       1.0  0.88400  0.31040  0.78510  1.0000 0.1304061664
H   H78       1.0  0.98770  0.17890  0.84970  1.0000 0.1212418045
H   H79       1.0  0.14710  0.13850  0.88310  1.0000 0.1212418045
H   H80       1.0  0.26780  0.21740  0.79460  1.0000 0.1109645821
H   H81       1.0  0.10700  0.25440  0.76030  1.0000 0.1109645821
H   H82       1.0  0.90520  0.74000  0.86340  1.0000 0.1368535777
H   H83       1.0  0.11860  0.70560  0.79600  1.0000 0.1304061664
H   H84       1.0  0.19910  0.69330  0.90240  1.0000 0.1304061664
H   H85       1.0  0.94680  0.73140  0.92400  1.0000 0.1304061664
H   H86       1.0  0.04780  0.76600  0.93680  1.0000 0.1304061664
H   H87       1.0  0.02520  0.52140  0.91270  1.0000 0.1109645821
H   H88       1.0  0.09390  0.36530  0.94900  1.0000 0.1109645821
H   H89       1.0  0.18230  0.51370  0.02930  1.0000 0.1304061664
H   H90       1.0  0.11660  0.67040  0.99210  1.0000 0.1304061664
H   H91       1.0  0.43300  0.05440  0.64380  1.0000 0.1109645821
H   H92       1.0  0.40780  0.21500  0.60970  1.0000 0.1212418045
H   H93       1.0  0.46460  0.33580  0.70090  1.0000 0.1212418045
H   H94       1.0  0.49360  0.17560  0.73410  1.0000 0.1212418045
H   H95       1.0  0.35360  0.44400  0.63900  1.0000 0.1304061664
H   H96       1.0  0.47460  0.42620  0.63860  1.0000 0.1304061664
H   H97       1.0  0.24690  0.43450  0.58760  1.0000 0.1304061664
H   H98       1.0  0.36230  0.41670  0.49370  1.0000 0.1461073999
H   H99       1.0  0.54980  0.36660  0.58730  1.0000 0.1304061664
H   H100      1.0  0.23570  0.94030  0.85460  1.0000 0.1368535777
H   H101      1.0  0.09030  0.94230  0.75550  1.0000 0.1304061664
H   H102      1.0  0.39180  0.90400  0.76900  1.0000 0.1304061664
H   H103      1.0  0.19070  0.88810  0.70970  1.0000 0.1304061664
H   H104      1.0  0.31040  0.88400  0.71490  1.0000 0.1304061664
H   H105      1.0  0.17890  0.98770  0.65030  1.0000 0.1212418045
H   H106      1.0  0.13850  0.14710  0.61690  1.0000 0.1212418045
H   H107      1.0  0.21740  0.26780  0.70540  1.0000 0.1109645821
H   H108      1.0  0.25440  0.10700  0.73970  1.0000 0.1109645821
C   C1        1.0  0.27240  0.02500  0.35940  1.0000 -0.0116567837
C   C2        1.0  0.27530  0.00090  0.32530  1.0000 -0.0510811591
C   C3        1.0  0.29080  0.89940  0.31960  1.0000 -0.0717296602
C   C4        1.0  0.30120  0.82340  0.34854  1.0000 -0.0510811591
C   C5        1.0  0.29930  0.85210  0.38241  1.0000 0.0284133945
C   C6        1.0  0.25810  0.08570  0.29410  1.0000 0.6510694951
C   C7        1.0  0.30780  0.71340  0.34266  1.0000 0.5210503955
C   C8        1.0  0.28690  0.97750  0.42530  1.0000 -0.1888140197
C   C9        1.0  0.38980  0.93300  0.44800  1.0000 0.090163339
C   C10       1.0  0.48010  0.94130  0.43617  1.0000 -0.16913121
C   C11       1.0  0.57260  0.90180  0.45776  1.0000 -0.0926030566
C   C12       1.0  0.57490  0.85470  0.49311  1.0000 -0.0168039651
C   C13       1.0  0.48510  0.84870  0.50540  1.0000 -0.0926030566
C   C14       1.0  0.39180  0.88760  0.48330  1.0000 -0.121290164
C   C15       1.0  0.67520  0.80780  0.51730  1.0000 0.5292257388
C   C16       1.0  0.90110  0.53290  0.19230  1.0000 -0.0329573454
C   C17       1.0  0.88850  0.55950  0.15534  1.0000 -0.1009170425
C   C18       1.0  0.79250  0.57530  0.13502  1.0000 -0.1641598151
C   C19       1.0  0.70880  0.56640  0.15148  1.0000 0.1109645821
C   C20       1.0  0.72150  0.54090  0.18912  1.0000 -0.1334012951
C   C21       1.0  0.81660  0.52420  0.20881  1.0000 -0.1009170425
C   C22       1.0  0.00480  0.51300  0.21490  1.0000 0.5604532604
C   C23       1.0  0.60120  0.58480  0.13168  1.0000 -0.1888140197
C   C24       1.0  0.57680  0.69600  0.07452  1.0000 0.0028278557
C   C25       1.0  0.57040  0.71140  0.03766  1.0000 -0.0566988655
C   C26       1.0  0.58860  0.62760  0.01911  1.0000 -0.0329573454
C   C27       1.0  0.61460  0.52840  0.03752  1.0000 -0.0329573454
C   C28       1.0  0.61770  0.51710  0.07431  1.0000 0.0124332561
C   C29       1.0  0.53650  0.82090  0.01811  1.0000 0.6510694951
C   C30       1.0  0.63260  0.43560  0.01720  1.0000 0.5292257388
C   C31       1.0  0.07740  0.67080  0.31481  1.0000 -0.0510811591
C   C32       1.0  0.06380  0.76320  0.32968  1.0000 -0.0717296602
C   C33       1.0  0.05650  0.85310  0.30710  1.0000 -0.0510811591
C   C34       1.0  0.06240  0.84860  0.27100  1.0000 0.0152950977
C   C35       1.0  0.08430  0.67090  0.27896  1.0000 0.0028278557
C   C36       1.0  0.08700  0.57100  0.33831  1.0000 0.658882678
C   C37       1.0  0.04240  0.95420  0.32220  1.0000 0.5210503955
C   C38       1.0  0.07650  0.75830  0.21900  1.0000 -0.1888140197
C   C39       1.0  0.96920  0.78220  0.19858  1.0000 0.1109645821
C   C40       1.0  0.95470  0.81450  0.16181  1.0000 -0.1393428053
C   C41       1.0  0.86090  0.83710  0.14176  1.0000 -0.1009170425
C   C42       1.0  0.77660  0.82420  0.15793  1.0000 -0.0329573454
C   C43       1.0  0.78970  0.79090  0.19423  1.0000 -0.1098383459
C   C44       1.0  0.88520  0.76920  0.21479  1.0000 -0.1641598151
C   C45       1.0  0.67210  0.84990  0.13624  1.0000 0.5604532604
C   C46       1.0  0.02500  0.27240  0.14060  1.0000 -0.0116567837
C   C47       1.0  0.00090  0.27530  0.17470  1.0000 -0.0510811591
C   C48       1.0  0.89940  0.29080  0.18040  1.0000 -0.0717296602
C   C49       1.0  0.82340  0.30120  0.15146  1.0000 -0.0510811591
C   C50       1.0  0.85210  0.29930  0.11759  1.0000 0.0284133945
C   C51       1.0  0.08570  0.25810  0.20590  1.0000 0.6510694951
C   C52       1.0  0.71340  0.30780  0.15734  1.0000 0.5210503955
C   C53       1.0  0.97750  0.28690  0.07470  1.0000 -0.1888140197
C   C54       1.0  0.93300  0.38980  0.05200  1.0000 0.090163339
C   C55       1.0  0.94130  0.48010  0.06383  1.0000 -0.16913121
C   C56       1.0  0.90180  0.57260  0.04224  1.0000 -0.0926030566
C   C57       1.0  0.85470  0.57490  0.00689  1.0000 -0.0168039651
C   C58       1.0  0.84870  0.48510  0.99460  1.0000 -0.0926030566
C   C59       1.0  0.88760  0.39180  0.01670  1.0000 -0.121290164
C   C60       1.0  0.80780  0.67520  0.98270  1.0000 0.5292257388
C   C61       1.0  0.53290  0.90110  0.30770  1.0000 -0.0329573454
C   C62       1.0  0.55950  0.88850  0.34466  1.0000 -0.1009170425
C   C63       1.0  0.57530  0.79250  0.36498  1.0000 -0.1641598151
C   C64       1.0  0.56640  0.70880  0.34852  1.0000 0.1109645821
C   C65       1.0  0.54090  0.72150  0.31088  1.0000 -0.1334012951
C   C66       1.0  0.52420  0.81660  0.29119  1.0000 -0.1009170425
C   C67       1.0  0.51300  0.00480  0.28510  1.0000 0.5604532604
C   C68       1.0  0.58480  0.60120  0.36832  1.0000 -0.1888140197
C   C69       1.0  0.69600  0.57680  0.42548  1.0000 0.0028278557
C   C70       1.0  0.71140  0.57040  0.46234  1.0000 -0.0566988655
C   C71       1.0  0.62760  0.58860  0.48089  1.0000 -0.0329573454
C   C72       1.0  0.52840  0.61460  0.46248  1.0000 -0.0329573454
C   C73       1.0  0.51710  0.61770  0.42569  1.0000 0.0124332561
C   C74       1.0  0.82090  0.53650  0.48189  1.0000 0.658882678
C   C75       1.0  0.43560  0.63260  0.48280  1.0000 0.5292257388
C   C76       1.0  0.67080  0.07740  0.18519  1.0000 -0.0510811591
C   C77       1.0  0.76320  0.06380  0.17032  1.0000 -0.0717296602
C   C78       1.0  0.85310  0.05650  0.19290  1.0000 -0.0510811591
C   C79       1.0  0.84860  0.06240  0.22900  1.0000 0.0152950977
C   C80       1.0  0.67090  0.08430  0.22104  1.0000 0.0028278557
C   C81       1.0  0.57100  0.08700  0.16169  1.0000 0.658882678
C   C82       1.0  0.95420  0.04240  0.17780  1.0000 0.5210503955
C   C83       1.0  0.75830  0.07650  0.28100  1.0000 -0.1888140197
C   C84       1.0  0.78220  0.96920  0.30142  1.0000 0.1109645821
C   C85       1.0  0.81450  0.95470  0.33819  1.0000 -0.1393428053
C   C86       1.0  0.83710  0.86090  0.35824  1.0000 -0.1009170425
C   C87       1.0  0.82420  0.77660  0.34207  1.0000 -0.0329573454
C   C88       1.0  0.79090  0.78970  0.30577  1.0000 -0.1098383459
C   C89       1.0  0.76920  0.88520  0.28521  1.0000 -0.1641598151
C   C90       1.0  0.84990  0.67210  0.36376  1.0000 0.5604532604
C   C91       1.0  0.72760  0.97500  0.64060  1.0000 -0.0116567837
C   C92       1.0  0.72470  0.99910  0.67470  1.0000 -0.0510811591
C   C93       1.0  0.70920  0.10060  0.68040  1.0000 -0.0750674586
C   C94       1.0  0.69880  0.17660  0.65146  1.0000 -0.0510811591
C   C95       1.0  0.70070  0.14790  0.61759  1.0000 0.0284133945
C   C96       1.0  0.74190  0.91430  0.70590  1.0000 0.6510694951
C   C97       1.0  0.69220  0.28660  0.65734  1.0000 0.5210503955
C   C98       1.0  0.71310  0.02250  0.57470  1.0000 -0.1888140197
C   C99       1.0  0.61020  0.06700  0.55200  1.0000 0.090163339
C   C100      1.0  0.51990  0.05870  0.56383  1.0000 -0.16913121
C   C101      1.0  0.42740  0.09820  0.54224  1.0000 -0.0926030566
C   C102      1.0  0.42510  0.14530  0.50689  1.0000 -0.0168039651
C   C103      1.0  0.51490  0.15130  0.49460  1.0000 -0.0926030566
C   C104      1.0  0.60820  0.11240  0.51670  1.0000 -0.121290164
C   C105      1.0  0.32480  0.19220  0.48270  1.0000 0.5292257388
C   C106      1.0  0.09890  0.46710  0.80770  1.0000 -0.0329573454
C   C107      1.0  0.11150  0.44050  0.84466  1.0000 -0.1009170425
C   C108      1.0  0.20750  0.42470  0.86498  1.0000 -0.1641598151
C   C109      1.0  0.29120  0.43360  0.84852  1.0000 0.1109645821
C   C110      1.0  0.27850  0.45910  0.81088  1.0000 -0.1334012951
C   C111      1.0  0.18340  0.47580  0.79119  1.0000 -0.1009170425
C   C112      1.0  0.99520  0.48700  0.78510  1.0000 0.5604532604
C   C113      1.0  0.39880  0.41520  0.86832  1.0000 -0.1888140197
C   C114      1.0  0.42320  0.30400  0.92548  1.0000 0.0028278557
C   C115      1.0  0.42960  0.28860  0.96234  1.0000 -0.0510811591
C   C116      1.0  0.41140  0.37240  0.98089  1.0000 -0.0329573454
C   C117      1.0  0.38540  0.47160  0.96248  1.0000 -0.0329573454
C   C118      1.0  0.38230  0.48290  0.92569  1.0000 0.0124332561
C   C119      1.0  0.46350  0.17910  0.98189  1.0000 0.6510694951
C   C120      1.0  0.36740  0.56440  0.98280  1.0000 0.5292257388
C   C121      1.0  0.92260  0.32920  0.68519  1.0000 -0.0510811591
C   C122      1.0  0.93620  0.23680  0.67032  1.0000 -0.0717296602
C   C123      1.0  0.94350  0.14690  0.69290  1.0000 -0.0510811591
C   C124      1.0  0.93760  0.15140  0.72900  1.0000 0.0124332561
C   C125      1.0  0.91570  0.32910  0.72104  1.0000 0.0028278557
C   C126      1.0  0.91300  0.42900  0.66169  1.0000 0.658882678
C   C127      1.0  0.95760  0.04580  0.67780  1.0000 0.5210503955
C   C128      1.0  0.92350  0.24170  0.78100  1.0000 -0.1888140197
C   C129      1.0  0.03080  0.21780  0.80142  1.0000 0.1109645821
C   C130      1.0  0.04530  0.18550  0.83819  1.0000 -0.1393428053
C   C131      1.0  0.13910  0.16290  0.85824  1.0000 -0.1009170425
C   C132      1.0  0.22340  0.17580  0.84207  1.0000 -0.0329573454
C   C133      1.0  0.21030  0.20910  0.80577  1.0000 -0.1098383459
C   C134      1.0  0.11480  0.23080  0.78521  1.0000 -0.16913121
C   C135      1.0  0.32790  0.15010  0.86376  1.0000 0.5604532604
C   C136      1.0  0.97500  0.72760  0.85940  1.0000 -0.0116567837
C   C137      1.0  0.99910  0.72470  0.82530  1.0000 -0.0510811591
C   C138      1.0  0.10060  0.70920  0.81960  1.0000 -0.0717296602
C   C139      1.0  0.17660  0.69880  0.84854  1.0000 -0.0510811591
C   C140      1.0  0.14790  0.70070  0.88241  1.0000 0.0284133945
C   C141      1.0  0.91430  0.74190  0.79410  1.0000 0.6510694951
C   C142      1.0  0.28660  0.69220  0.84266  1.0000 0.5210503955
C   C143      1.0  0.02250  0.71310  0.92530  1.0000 -0.1888140197
C   C144      1.0  0.06700  0.61020  0.94800  1.0000 0.090163339
C   C145      1.0  0.05870  0.51990  0.93617  1.0000 -0.16913121
C   C146      1.0  0.09820  0.42740  0.95776  1.0000 -0.0926030566
C   C147      1.0  0.14530  0.42510  0.99311  1.0000 -0.0168039651
C   C148      1.0  0.15130  0.51490  0.00540  1.0000 -0.0926030566
C   C149      1.0  0.11240  0.60820  0.98330  1.0000 -0.121290164
C   C150      1.0  0.19220  0.32480  0.01730  1.0000 0.5292257388
C   C151      1.0  0.46710  0.09890  0.69230  1.0000 -0.0329573454
C   C152      1.0  0.44050  0.11150  0.65534  1.0000 -0.1009170425
C   C153      1.0  0.42470  0.20750  0.63502  1.0000 -0.1641598151
C   C154      1.0  0.43360  0.29120  0.65148  1.0000 0.1109645821
C   C155      1.0  0.45910  0.27850  0.68912  1.0000 -0.1334012951
C   C156      1.0  0.47580  0.18340  0.70881  1.0000 -0.1009170425
C   C157      1.0  0.48700  0.99520  0.71490  1.0000 0.5604532604
C   C158      1.0  0.41520  0.39880  0.63168  1.0000 -0.1888140197
C   C159      1.0  0.30400  0.42320  0.57452  1.0000 0.0028278557
C   C160      1.0  0.28860  0.42960  0.53766  1.0000 -0.0566988655
C   C161      1.0  0.37240  0.41140  0.51911  1.0000 -0.0329573454
C   C162      1.0  0.47160  0.38540  0.53752  1.0000 -0.0329573454
C   C163      1.0  0.48290  0.38230  0.57431  1.0000 0.0124332561
C   C164      1.0  0.17910  0.46350  0.51811  1.0000 0.6510694951
C   C165      1.0  0.56440  0.36740  0.51720  1.0000 0.5292257388
C   C166      1.0  0.32920  0.92260  0.81481  1.0000 -0.0510811591
C   C167      1.0  0.23680  0.93620  0.82968  1.0000 -0.0717296602
C   C168      1.0  0.14690  0.94350  0.80710  1.0000 -0.0510811591
C   C169      1.0  0.15140  0.93760  0.77100  1.0000 0.0124332561
C   C170      1.0  0.32910  0.91570  0.77896  1.0000 0.0028278557
C   C171      1.0  0.42900  0.91300  0.83831  1.0000 0.658882678
C   C172      1.0  0.04580  0.95760  0.82220  1.0000 0.5210503955
C   C173      1.0  0.24170  0.92350  0.71900  1.0000 -0.1888140197
C   C174      1.0  0.21780  0.03080  0.69858  1.0000 0.1109645821
C   C175      1.0  0.18550  0.04530  0.66181  1.0000 -0.1393428053
C   C176      1.0  0.16290  0.13910  0.64176  1.0000 -0.1009170425
C   C177      1.0  0.17580  0.22340  0.65793  1.0000 -0.0329573454
C   C178      1.0  0.20910  0.21030  0.69423  1.0000 -0.1098383459
C   C179      1.0  0.23080  0.11480  0.71479  1.0000 -0.16913121
C   C180      1.0  0.15010  0.32790  0.63624  1.0000 0.5604532604
N   N1        1.0  0.28740  0.94920  0.38807  1.0000 0.1109645821
N   N2        1.0  0.59890  0.59950  0.09212  1.0000 0.103917551
N   N3        1.0  0.07420  0.76060  0.25764  1.0000 0.1109645821
N   N4        1.0  0.94920  0.28740  0.11193  1.0000 0.1109645821
N   N5        1.0  0.59950  0.59890  0.40788  1.0000 0.103917551
N   N6        1.0  0.76060  0.07420  0.24236  1.0000 0.1109645821
N   N7        1.0  0.71260  0.05080  0.61193  1.0000 0.1109645821
N   N8        1.0  0.40110  0.40050  0.90788  1.0000 0.103917551
N   N9        1.0  0.92580  0.23940  0.74236  1.0000 0.1109645821
N   N10       1.0  0.05080  0.71260  0.88807  1.0000 0.1109645821
N   N11       1.0  0.40050  0.40110  0.59212  1.0000 0.1109645821
N   N12       1.0  0.23940  0.92580  0.75764  1.0000 0.1109645821
O   O1        1.0  0.21410  0.17230  0.30020  1.0000 -0.6411838512
O   O2        1.0  0.28740  0.05880  0.26580  1.0000 -0.597558159
O   O3        1.0  0.30970  0.65190  0.37050  1.0000 -0.5679367985
O   O4        1.0  0.30920  0.69320  0.31164  1.0000 -0.5636679734
O   O5        1.0  0.75820  0.80200  0.50408  1.0000 -0.5182750504
O   O6        1.0  0.67180  0.77700  0.54950  1.0000 -0.5182750504
O   O7        1.0  0.00780  0.49760  0.24842  1.0000 -0.6506617497
O   O8        1.0  0.08080  0.51440  0.19915  1.0000 -0.5486602317
O   O9        1.0  0.52250  0.89250  0.03611  1.0000 -0.6299324389
O   O10       1.0  0.52320  0.82780  0.98494  1.0000 -0.6104437168
O   O11       1.0  0.61540  0.45360  0.98403  1.0000 -0.493447359
O   O12       1.0  0.66280  0.34940  0.03651  1.0000 -0.5388176049
O   O13       1.0  0.10500  0.49300  0.32301  1.0000 -0.6506617497
O   O14       1.0  0.07360  0.57680  0.36979  1.0000 -0.5947547312
O   O15       1.0  0.05870  0.95290  0.35460  1.0000 -0.5486602317
O   O16       1.0  0.01930  0.03250  0.29700  1.0000 -0.6104437168
O   O17       1.0  0.59940  0.83180  0.15151  1.0000 -0.5798097904
O   O18       1.0  0.66280  0.88780  0.10346  1.0000 -0.6411838512
O   O19       1.0  0.17230  0.21410  0.19980  1.0000 -0.6411838512
O   O20       1.0  0.05880  0.28740  0.23420  1.0000 -0.597558159
O   O21       1.0  0.65190  0.30970  0.12950  1.0000 -0.5679367985
O   O22       1.0  0.69320  0.30920  0.18836  1.0000 -0.5636679734
O   O23       1.0  0.80200  0.75820  0.99592  1.0000 -0.5182750504
O   O24       1.0  0.77700  0.67180  0.95050  1.0000 -0.5182750504
O   O25       1.0  0.49760  0.00780  0.25158  1.0000 -0.6506617497
O   O26       1.0  0.51440  0.08080  0.30085  1.0000 -0.5486602317
O   O27       1.0  0.89250  0.52250  0.46389  1.0000 -0.6299324389
O   O28       1.0  0.82780  0.52320  0.51506  1.0000 -0.6104437168
O   O29       1.0  0.45360  0.61540  0.51597  1.0000 -0.493447359
O   O30       1.0  0.34940  0.66280  0.46349  1.0000 -0.5388176049
O   O31       1.0  0.49300  0.10500  0.17699  1.0000 -0.6506617497
O   O32       1.0  0.57680  0.07360  0.13021  1.0000 -0.597558159
O   O33       1.0  0.95290  0.05870  0.14540  1.0000 -0.5486602317
O   O34       1.0  0.03250  0.01930  0.20300  1.0000 -0.6104437168
O   O35       1.0  0.83180  0.59940  0.34849  1.0000 -0.5798097904
O   O36       1.0  0.88780  0.66280  0.39654  1.0000 -0.6411838512
O   O37       1.0  0.78590  0.82770  0.69980  1.0000 -0.6411838512
O   O38       1.0  0.71260  0.94120  0.73420  1.0000 -0.597558159
O   O39       1.0  0.69030  0.34810  0.62950  1.0000 -0.5679367985
O   O40       1.0  0.69080  0.30680  0.68836  1.0000 -0.5636679734
O   O41       1.0  0.24180  0.19800  0.49592  1.0000 -0.5182750504
O   O42       1.0  0.32820  0.22300  0.45050  1.0000 -0.5182750504
O   O43       1.0  0.99220  0.50240  0.75158  1.0000 -0.6506617497
O   O44       1.0  0.91920  0.48560  0.80085  1.0000 -0.5486602317
O   O45       1.0  0.47750  0.10750  0.96389  1.0000 -0.6299324389
O   O46       1.0  0.47680  0.17220  0.01506  1.0000 -0.6104437168
O   O47       1.0  0.38460  0.54640  0.01597  1.0000 -0.493447359
O   O48       1.0  0.33720  0.65060  0.96349  1.0000 -0.5388176049
O   O49       1.0  0.89500  0.50700  0.67699  1.0000 -0.6506617497
O   O50       1.0  0.92640  0.42320  0.63021  1.0000 -0.597558159
O   O51       1.0  0.94130  0.04710  0.64540  1.0000 -0.5486602317
O   O52       1.0  0.98070  0.96750  0.70300  1.0000 -0.6104437168
O   O53       1.0  0.40060  0.16820  0.84849  1.0000 -0.5798097904
O   O54       1.0  0.33720  0.11220  0.89654  1.0000 -0.6411838512
O   O55       1.0  0.82770  0.78590  0.80020  1.0000 -0.6411838512
O   O56       1.0  0.94120  0.71260  0.76580  1.0000 -0.597558159
O   O57       1.0  0.34810  0.69030  0.87050  1.0000 -0.5679367985
O   O58       1.0  0.30680  0.69080  0.81164  1.0000 -0.5636679734
O   O59       1.0  0.19800  0.24180  0.00408  1.0000 -0.5182750504
O   O60       1.0  0.22300  0.32820  0.04950  1.0000 -0.5182750504
O   O61       1.0  0.50240  0.99220  0.74842  1.0000 -0.6506617497
O   O62       1.0  0.48560  0.91920  0.69915  1.0000 -0.5486602317
O   O63       1.0  0.10750  0.47750  0.53611  1.0000 -0.6299324389
O   O64       1.0  0.17220  0.47680  0.48494  1.0000 -0.6104437168
O   O65       1.0  0.54640  0.38460  0.48403  1.0000 -0.4963828082
O   O66       1.0  0.65060  0.33720  0.53651  1.0000 -0.5388176049
O   O67       1.0  0.50700  0.89500  0.82301  1.0000 -0.6506617497
O   O68       1.0  0.42320  0.92640  0.86979  1.0000 -0.597558159
O   O69       1.0  0.04710  0.94130  0.85460  1.0000 -0.5486602317
O   O70       1.0  0.96750  0.98070  0.79700  1.0000 -0.6104437168
O   O71       1.0  0.16820  0.40060  0.65151  1.0000 -0.5798097904
O   O72       1.0  0.11220  0.33720  0.60346  1.0000 -0.6411838512
