# DDEC6 charges by PACMAN v1.1 (https://github.com/mtap-research/PACMAN-charge/)
data_2017[Cu][ths]3[ASR]8
_chemical_formula_sum              "Cu8 C24 O48"
_cell_length_a       8.8347
_cell_length_b       33.7162
_cell_length_c       8.8533
_cell_angle_alpha    90
_cell_angle_beta     107.963
_cell_angle_gamma    90

_symmetry_space_group_name_H-M    "P 1"
_symmetry_Int_Tables_number       1

loop_
  _symmetry_equiv_pos_as_xyz
  'x, y, z'

loop_
  _atom_site_type_symbol
  _atom_site_label
  _atom_site_symmetry_multiplicity
  _atom_site_fract_x
  _atom_site_fract_y
  _atom_site_fract_z
  _atom_site_occupancy
  _atom_site_charge
Cu  Cu1       1.0  0.49720  0.79580  0.25531  1.0000 0.9170294594
Cu  Cu2       1.0  0.00280  0.29580  0.74469  1.0000 0.9138148319
Cu  Cu3       1.0  0.50280  0.20420  0.74469  1.0000 0.9138148319
Cu  Cu4       1.0  0.99720  0.70420  0.25531  1.0000 0.9138148319
Cu  Cu5       1.0  0.49706  0.95443  0.25713  1.0000 0.9138148319
Cu  Cu6       1.0  0.00294  0.45443  0.74287  1.0000 0.9170294594
Cu  Cu7       1.0  0.50294  0.04557  0.74287  1.0000 0.9138148319
Cu  Cu8       1.0  0.99706  0.54557  0.25713  1.0000 0.9138148319
C   C1        1.0  0.42490  0.87599  0.18280  1.0000 0.562068259
C   C2        1.0  0.07510  0.37599  0.81720  1.0000 0.5660592806
C   C3        1.0  0.57510  0.12401  0.81720  1.0000 0.562068259
C   C4        1.0  0.92490  0.62401  0.18280  1.0000 0.5660592806
C   C5        1.0  0.57610  0.87395  0.33130  1.0000 0.562068259
C   C6        1.0  0.92390  0.37395  0.66870  1.0000 0.562068259
C   C7        1.0  0.42390  0.12605  0.66870  1.0000 0.562068259
C   C8        1.0  0.07610  0.62605  0.33130  1.0000 0.562068259
C   C9        1.0  0.25540  0.74075  0.18730  1.0000 0.562068259
C   C10       1.0  0.24460  0.24075  0.81270  1.0000 0.562068259
C   C11       1.0  0.74460  0.25925  0.81270  1.0000 0.549125756
C   C12       1.0  0.75540  0.75925  0.18730  1.0000 0.562068259
C   C13       1.0  0.24240  0.76257  0.33700  1.0000 0.549125756
C   C14       1.0  0.25760  0.26257  0.66300  1.0000 0.549125756
C   C15       1.0  0.75760  0.23743  0.66300  1.0000 0.549125756
C   C16       1.0  0.74240  0.73743  0.33700  1.0000 0.549125756
C   C17       1.0  0.57700  0.98919  0.99800  1.0000 0.562068259
C   C18       1.0  0.92300  0.48919  0.00200  1.0000 0.562068259
C   C19       1.0  0.42300  0.01081  0.00200  1.0000 0.562068259
C   C20       1.0  0.07700  0.51081  0.99800  1.0000 0.562068259
C   C21       1.0  0.42810  0.98876  0.51160  1.0000 0.5402882736
C   C22       1.0  0.07190  0.48876  0.48840  1.0000 0.5402882736
C   C23       1.0  0.57190  0.01124  0.48840  1.0000 0.5402882736
C   C24       1.0  0.92810  0.51124  0.51160  1.0000 0.5402882736
O   O1        1.0  0.37321  0.84456  0.11660  1.0000 -0.4132035119
O   O2        1.0  0.12679  0.34456  0.88340  1.0000 -0.4132035119
O   O3        1.0  0.62679  0.15544  0.88340  1.0000 -0.4132035119
O   O4        1.0  0.87321  0.65544  0.11660  1.0000 -0.4132035119
O   O5        1.0  0.36776  0.90949  0.14229  1.0000 -0.4314680029
O   O6        1.0  0.13224  0.40949  0.85771  1.0000 -0.4208182503
O   O7        1.0  0.63224  0.09051  0.85771  1.0000 -0.4208182503
O   O8        1.0  0.86776  0.59051  0.14229  1.0000 -0.4314680029
O   O9        1.0  0.61959  0.84023  0.38410  1.0000 -0.4314680029
O   O10       1.0  0.88041  0.34023  0.61590  1.0000 -0.4314680029
O   O11       1.0  0.38041  0.15977  0.61590  1.0000 -0.4314680029
O   O12       1.0  0.11959  0.65977  0.38410  1.0000 -0.4314680029
O   O13       1.0  0.64092  0.90563  0.38412  1.0000 -0.4208182503
O   O14       1.0  0.85908  0.40563  0.61588  1.0000 -0.4208182503
O   O15       1.0  0.35908  0.09437  0.61588  1.0000 -0.4208182503
O   O16       1.0  0.14092  0.59437  0.38412  1.0000 -0.4208182503
O   O17       1.0  0.33383  0.79174  0.38278  1.0000 -0.4510883678
O   O18       1.0  0.16617  0.29174  0.61722  1.0000 -0.4510883678
O   O19       1.0  0.66617  0.20826  0.61722  1.0000 -0.4510883678
O   O20       1.0  0.83383  0.70826  0.38278  1.0000 -0.4510883678
O   O21       1.0  0.14760  0.75039  0.40290  1.0000 -0.4132035119
O   O22       1.0  0.35240  0.25039  0.59710  1.0000 -0.4132035119
O   O23       1.0  0.85240  0.24961  0.59710  1.0000 -0.4132035119
O   O24       1.0  0.64760  0.74961  0.40290  1.0000 -0.4132035119
O   O25       1.0  0.35589  0.75369  0.12749  1.0000 -0.4510883678
O   O26       1.0  0.14411  0.25369  0.87251  1.0000 -0.4510883678
O   O27       1.0  0.64411  0.24631  0.87251  1.0000 -0.4412838577
O   O28       1.0  0.85589  0.74631  0.12749  1.0000 -0.4412838577
O   O29       1.0  0.16383  0.71255  0.13780  1.0000 -0.4208182503
O   O30       1.0  0.33617  0.21255  0.86220  1.0000 -0.4208182503
O   O31       1.0  0.83617  0.28745  0.86220  1.0000 -0.4208182503
O   O32       1.0  0.66383  0.78745  0.13780  1.0000 -0.4208182503
O   O33       1.0  0.61846  0.95997  0.08990  1.0000 -0.4510883678
O   O34       1.0  0.88154  0.45997  0.91010  1.0000 -0.4510883678
O   O35       1.0  0.38154  0.04003  0.91010  1.0000 -0.4510883678
O   O36       1.0  0.11846  0.54003  0.08990  1.0000 -0.4510883678
O   O37       1.0  0.64846  0.00161  0.90860  1.0000 -0.4132035119
O   O38       1.0  0.85154  0.50161  0.09140  1.0000 -0.4208182503
O   O39       1.0  0.35154  0.99839  0.09140  1.0000 -0.4208182503
O   O40       1.0  0.14846  0.49839  0.90860  1.0000 -0.4208182503
O   O41       1.0  0.37648  0.96002  0.42274  1.0000 -0.4314680029
O   O42       1.0  0.12352  0.46002  0.57726  1.0000 -0.4314680029
O   O43       1.0  0.62352  0.03998  0.57726  1.0000 -0.4314680029
O   O44       1.0  0.87648  0.53998  0.42274  1.0000 -0.4314680029
O   O45       1.0  0.37444  0.00151  0.61710  1.0000 -0.4412838577
O   O46       1.0  0.12556  0.50151  0.38290  1.0000 -0.4412838577
O   O47       1.0  0.62556  0.99849  0.38290  1.0000 -0.4412838577
O   O48       1.0  0.87444  0.49849  0.61710  1.0000 -0.4412838577
