# DDEC6 charges by PACMAN v1.1 (https://github.com/mtap-research/PACMAN-charge/)
data_2017[Mn][nan]3[ASR]8
_chemical_formula_sum              "Mn12 P8 H272 C288 O64"
_cell_length_a       19.9649
_cell_length_b       19.9649
_cell_length_c       29.576
_cell_angle_alpha    90
_cell_angle_beta     90
_cell_angle_gamma    93.6125

_symmetry_space_group_name_H-M    "P 1"
_symmetry_Int_Tables_number       1

loop_
  _symmetry_equiv_pos_as_xyz
  'x, y, z'

loop_
  _atom_site_type_symbol
  _atom_site_label
  _atom_site_symmetry_multiplicity
  _atom_site_fract_x
  _atom_site_fract_y
  _atom_site_fract_z
  _atom_site_occupancy
  _atom_site_charge
Mn  Mn1       1.0  0.39711  0.99697  0.25041  1.0000 1.0621524336
Mn  Mn2       1.0  0.47612  0.05570  0.13200  1.0000 1.1314573171
Mn  Mn3       1.0  0.55428  0.00124  0.01241  1.0000 1.0621524336
Mn  Mn4       1.0  0.60289  0.00303  0.75041  1.0000 1.0621524336
Mn  Mn5       1.0  0.52388  0.94430  0.63200  1.0000 1.1314573171
Mn  Mn6       1.0  0.44572  0.99876  0.51241  1.0000 1.0663416169
Mn  Mn7       1.0  0.00303  0.60289  0.24959  1.0000 1.0547871771
Mn  Mn8       1.0  0.94430  0.52388  0.36800  1.0000 1.1314573171
Mn  Mn9       1.0  0.99876  0.44572  0.48759  1.0000 1.0663416169
Mn  Mn10      1.0  0.99697  0.39711  0.74959  1.0000 1.0621524336
Mn  Mn11      1.0  0.05570  0.47612  0.86800  1.0000 1.1314573171
Mn  Mn12      1.0  0.00124  0.55428  0.98759  1.0000 1.0663416169
P   P1        1.0  0.34234  0.11696  0.19222  1.0000 1.4194387974
P   P2        1.0  0.60645  0.13297  0.06769  1.0000 1.4296964588
P   P3        1.0  0.65766  0.88304  0.69222  1.0000 1.4194387974
P   P4        1.0  0.39355  0.86703  0.56769  1.0000 1.4296964588
P   P5        1.0  0.88304  0.65766  0.30778  1.0000 1.4194387974
P   P6        1.0  0.86703  0.39355  0.43231  1.0000 1.4296964588
P   P7        1.0  0.11696  0.34234  0.80778  1.0000 1.4194387974
P   P8        1.0  0.13297  0.60645  0.93231  1.0000 1.4296964588
H   H1        1.0  0.09320  0.45380  0.32870  1.0000 0.1303388186
H   H2        1.0  0.15760  0.40080  0.27600  1.0000 0.1206287612
H   H3        1.0  0.20970  0.26990  0.37090  1.0000 0.1303388186
H   H4        1.0  0.14520  0.32280  0.42370  1.0000 0.1303388186
H   H5        1.0  0.31600  0.30740  0.32520  1.0000 0.1113251537
H   H6        1.0  0.48060  0.29920  0.33120  1.0000 0.1303388186
H   H7        1.0  0.40580  0.29320  0.34770  1.0000 0.100218186
H   H8        1.0  0.42880  0.34780  0.31190  1.0000 0.1113251537
H   H9        1.0  0.47640  0.18160  0.31340  1.0000 0.1206287612
H   H10       1.0  0.42180  0.14940  0.28040  1.0000 0.1303388186
H   H11       1.0  0.40140  0.17220  0.32900  1.0000 0.1303388186
H   H12       1.0  0.51420  0.26120  0.26020  1.0000 0.1206287612
H   H13       1.0  0.46690  0.30770  0.23400  1.0000 0.1303388186
H   H14       1.0  0.46260  0.23020  0.22480  1.0000 0.1303388186
H   H15       1.0  0.12540  0.24980  0.20430  1.0000 0.1303388186
H   H16       1.0  0.11850  0.31350  0.23460  1.0000 0.1303388186
H   H17       1.0  0.11070  0.24170  0.25610  1.0000 0.1371151107
H   H18       1.0  0.14950  0.15590  0.06160  1.0000 0.1113251537
H   H19       1.0  0.14440  0.96660  0.13670  1.0000 0.1206287612
H   H20       1.0  0.10570  0.03130  0.14500  1.0000 0.1206287612
H   H21       1.0  0.17150  0.02010  0.17200  1.0000 0.1303388186
H   H22       1.0  0.15190  0.98890  0.05570  1.0000 0.1303388186
H   H23       1.0  0.18090  0.05830  0.03720  1.0000 0.1206287612
H   H24       1.0  0.11150  0.05310  0.06220  1.0000 0.1206287612
H   H25       1.0  0.25100  0.97100  0.09670  1.0000 0.1303388186
H   H26       1.0  0.28130  0.02290  0.13210  1.0000 0.1303388186
H   H27       1.0  0.28590  0.03930  0.08030  1.0000 0.1303388186
H   H28       1.0  0.23700  0.34380  0.17720  1.0000 0.1303388186
H   H29       1.0  0.17440  0.36000  0.14810  1.0000 0.1303388186
H   H30       1.0  0.24510  0.35770  0.12520  1.0000 0.148207768
H   H31       1.0  0.18790  0.26430  0.01110  1.0000 0.1206287612
H   H32       1.0  0.13520  0.33700  0.96360  1.0000 0.1303388186
H   H33       1.0  0.02110  0.39290  0.06730  1.0000 0.1206287612
H   H34       1.0  0.07390  0.32010  0.11470  1.0000 0.1206287612
H   H35       1.0  0.96990  0.41930  0.17600  1.0000 0.1303388186
H   H36       1.0  0.91300  0.33620  0.13350  1.0000 0.1206287612
H   H37       1.0  0.77310  0.31270  0.23090  1.0000 0.1206287612
H   H38       1.0  0.83000  0.39580  0.27340  1.0000 0.1303388186
H   H39       1.0  0.80740  0.18860  0.19410  1.0000 0.1113251537
H   H40       1.0  0.78420  0.98680  0.13380  1.0000 0.1206287612
H   H41       1.0  0.83170  0.04870  0.11960  1.0000 0.1303388186
H   H42       1.0  0.76300  0.03420  0.09470  1.0000 0.1303388186
H   H43       1.0  0.68220  0.00020  0.17630  1.0000 0.1303388186
H   H44       1.0  0.65510  0.04610  0.13830  1.0000 0.1371151107
H   H45       1.0  0.65800  0.07120  0.18850  1.0000 0.1303388186
H   H46       1.0  0.78490  0.02110  0.21110  1.0000 0.1303388186
H   H47       1.0  0.76900  0.09380  0.22590  1.0000 0.1206287612
H   H48       1.0  0.83470  0.08210  0.19880  1.0000 0.1206287612
H   H49       1.0  0.75690  0.35650  0.06230  1.0000 0.1303388186
H   H50       1.0  0.82370  0.36930  0.08970  1.0000 0.1303388186
H   H51       1.0  0.75460  0.37960  0.11290  1.0000 0.148207768
H   H52       1.0  0.65820  0.29800  0.92150  1.0000 0.1113251537
H   H53       1.0  0.54990  0.27230  0.90420  1.0000 0.1113251537
H   H54       1.0  0.55680  0.34420  0.92560  1.0000 0.100218186
H   H55       1.0  0.48720  0.30340  0.92580  1.0000 0.1113251537
H   H56       1.0  0.52070  0.17390  0.95540  1.0000 0.1303388186
H   H57       1.0  0.46070  0.21650  0.96950  1.0000 0.1206287612
H   H58       1.0  0.50780  0.18900  0.00660  1.0000 0.1371151107
H   H59       1.0  0.47770  0.32610  0.00240  1.0000 0.1206287612
H   H60       1.0  0.54910  0.36330  0.00530  1.0000 0.1206287612
H   H61       1.0  0.52960  0.30360  0.03810  1.0000 0.1303388186
H   H62       1.0  0.86430  0.28110  0.98730  1.0000 0.1303388186
H   H63       1.0  0.84910  0.21750  0.01760  1.0000 0.148207768
H   H64       1.0  0.84970  0.28930  0.03900  1.0000 0.1303388186
H   H65       1.0  0.75010  0.24610  0.87480  1.0000 0.1303388186
H   H66       1.0  0.82130  0.28570  0.81750  1.0000 0.1303388186
H   H67       1.0  0.90930  0.42030  0.90330  1.0000 0.1303388186
H   H68       1.0  0.83810  0.38070  0.96060  1.0000 0.1206287612
H   H69       1.0  0.90680  0.54620  0.82870  1.0000 0.1303388186
H   H70       1.0  0.84240  0.59920  0.77600  1.0000 0.1206287612
H   H71       1.0  0.79030  0.73010  0.87090  1.0000 0.1303388186
H   H72       1.0  0.85480  0.67720  0.92370  1.0000 0.1303388186
H   H73       1.0  0.68400  0.69260  0.82520  1.0000 0.1113251537
H   H74       1.0  0.51940  0.70080  0.83120  1.0000 0.1303388186
H   H75       1.0  0.59420  0.70680  0.84770  1.0000 0.100218186
H   H76       1.0  0.57120  0.65220  0.81190  1.0000 0.1113251537
H   H77       1.0  0.52360  0.81840  0.81340  1.0000 0.1206287612
H   H78       1.0  0.57820  0.85060  0.78040  1.0000 0.1303388186
H   H79       1.0  0.59860  0.82780  0.82900  1.0000 0.1303388186
H   H80       1.0  0.48580  0.73880  0.76020  1.0000 0.1206287612
H   H81       1.0  0.53310  0.69230  0.73400  1.0000 0.1303388186
H   H82       1.0  0.53740  0.76980  0.72480  1.0000 0.1303388186
H   H83       1.0  0.87460  0.75020  0.70430  1.0000 0.1303388186
H   H84       1.0  0.88150  0.68650  0.73460  1.0000 0.1303388186
H   H85       1.0  0.88930  0.75830  0.75610  1.0000 0.148207768
H   H86       1.0  0.85050  0.84410  0.56160  1.0000 0.1113251537
H   H87       1.0  0.85560  0.03340  0.63670  1.0000 0.1206287612
H   H88       1.0  0.89430  0.96870  0.64500  1.0000 0.1206287612
H   H89       1.0  0.82850  0.97990  0.67200  1.0000 0.1303388186
H   H90       1.0  0.84810  0.01110  0.55570  1.0000 0.1303388186
H   H91       1.0  0.81910  0.94170  0.53720  1.0000 0.1206287612
H   H92       1.0  0.88850  0.94690  0.56220  1.0000 0.1206287612
H   H93       1.0  0.74900  0.02900  0.59670  1.0000 0.1303388186
H   H94       1.0  0.71870  0.97710  0.63210  1.0000 0.1303388186
H   H95       1.0  0.71410  0.96070  0.58030  1.0000 0.1303388186
H   H96       1.0  0.76300  0.65620  0.67720  1.0000 0.1303388186
H   H97       1.0  0.82560  0.64000  0.64810  1.0000 0.1303388186
H   H98       1.0  0.75490  0.64230  0.62520  1.0000 0.148207768
H   H99       1.0  0.81210  0.73570  0.51110  1.0000 0.1206287612
H   H100      1.0  0.86480  0.66300  0.46360  1.0000 0.1303388186
H   H101      1.0  0.97890  0.60710  0.56730  1.0000 0.1206287612
H   H102      1.0  0.92610  0.67990  0.61470  1.0000 0.1206287612
H   H103      1.0  0.03010  0.58070  0.67600  1.0000 0.1303388186
H   H104      1.0  0.08700  0.66380  0.63350  1.0000 0.1206287612
H   H105      1.0  0.22690  0.68730  0.73090  1.0000 0.1206287612
H   H106      1.0  0.17000  0.60420  0.77340  1.0000 0.1303388186
H   H107      1.0  0.19260  0.81140  0.69410  1.0000 0.1113251537
H   H108      1.0  0.21580  0.01320  0.63380  1.0000 0.1206287612
H   H109      1.0  0.16830  0.95130  0.61960  1.0000 0.1303388186
H   H110      1.0  0.23700  0.96580  0.59470  1.0000 0.1303388186
H   H111      1.0  0.31780  0.99980  0.67630  1.0000 0.1303388186
H   H112      1.0  0.34490  0.95390  0.63830  1.0000 0.1371151107
H   H113      1.0  0.34200  0.92880  0.68850  1.0000 0.1303388186
H   H114      1.0  0.21510  0.97890  0.71110  1.0000 0.1303388186
H   H115      1.0  0.23100  0.90620  0.72590  1.0000 0.1206287612
H   H116      1.0  0.16530  0.91790  0.69880  1.0000 0.1206287612
H   H117      1.0  0.24310  0.64350  0.56230  1.0000 0.1303388186
H   H118      1.0  0.17630  0.63070  0.58970  1.0000 0.1303388186
H   H119      1.0  0.24540  0.62040  0.61290  1.0000 0.148207768
H   H120      1.0  0.34180  0.70200  0.42150  1.0000 0.1113251537
H   H121      1.0  0.45010  0.72770  0.40420  1.0000 0.1113251537
H   H122      1.0  0.44320  0.65580  0.42560  1.0000 0.100218186
H   H123      1.0  0.51280  0.69660  0.42580  1.0000 0.1113251537
H   H124      1.0  0.47930  0.82610  0.45540  1.0000 0.1303388186
H   H125      1.0  0.53930  0.78350  0.46950  1.0000 0.1206287612
H   H126      1.0  0.49220  0.81100  0.50660  1.0000 0.1371151107
H   H127      1.0  0.52230  0.67390  0.50240  1.0000 0.1206287612
H   H128      1.0  0.45090  0.63670  0.50530  1.0000 0.1113251537
H   H129      1.0  0.47040  0.69640  0.53810  1.0000 0.1303388186
H   H130      1.0  0.13570  0.71890  0.48730  1.0000 0.1303388186
H   H131      1.0  0.15090  0.78250  0.51760  1.0000 0.148207768
H   H132      1.0  0.15030  0.71070  0.53900  1.0000 0.1303388186
H   H133      1.0  0.24990  0.75390  0.37480  1.0000 0.1303388186
H   H134      1.0  0.17870  0.71430  0.31750  1.0000 0.1303388186
H   H135      1.0  0.09070  0.57970  0.40330  1.0000 0.1303388186
H   H136      1.0  0.16190  0.61930  0.46060  1.0000 0.1206287612
H   H137      1.0  0.54620  0.90680  0.17130  1.0000 0.1303388186
H   H138      1.0  0.59920  0.84240  0.22400  1.0000 0.1206287612
H   H139      1.0  0.73010  0.79030  0.12910  1.0000 0.1303388186
H   H140      1.0  0.67720  0.85480  0.07630  1.0000 0.1303388186
H   H141      1.0  0.69260  0.68400  0.17480  1.0000 0.1113251537
H   H142      1.0  0.70080  0.51940  0.16880  1.0000 0.1303388186
H   H143      1.0  0.70680  0.59420  0.15230  1.0000 0.100218186
H   H144      1.0  0.65220  0.57120  0.18810  1.0000 0.1113251537
H   H145      1.0  0.81840  0.52360  0.18660  1.0000 0.1206287612
H   H146      1.0  0.85060  0.57820  0.21960  1.0000 0.1303388186
H   H147      1.0  0.82780  0.59860  0.17100  1.0000 0.1303388186
H   H148      1.0  0.73880  0.48580  0.23980  1.0000 0.1206287612
H   H149      1.0  0.69230  0.53310  0.26600  1.0000 0.1303388186
H   H150      1.0  0.76980  0.53740  0.27520  1.0000 0.1303388186
H   H151      1.0  0.75020  0.87460  0.29570  1.0000 0.1303388186
H   H152      1.0  0.68650  0.88150  0.26540  1.0000 0.1303388186
H   H153      1.0  0.75830  0.88930  0.24390  1.0000 0.148207768
H   H154      1.0  0.84410  0.85050  0.43840  1.0000 0.1113251537
H   H155      1.0  0.03340  0.85560  0.36330  1.0000 0.1206287612
H   H156      1.0  0.96870  0.89430  0.35500  1.0000 0.1206287612
H   H157      1.0  0.97990  0.82850  0.32800  1.0000 0.1303388186
H   H158      1.0  0.01110  0.84810  0.44430  1.0000 0.1303388186
H   H159      1.0  0.94170  0.81910  0.46280  1.0000 0.1206287612
H   H160      1.0  0.94690  0.88850  0.43780  1.0000 0.1206287612
H   H161      1.0  0.02900  0.74900  0.40330  1.0000 0.1303388186
H   H162      1.0  0.97710  0.71870  0.36790  1.0000 0.1303388186
H   H163      1.0  0.96070  0.71410  0.41970  1.0000 0.1303388186
H   H164      1.0  0.65620  0.76300  0.32280  1.0000 0.1303388186
H   H165      1.0  0.64000  0.82560  0.35190  1.0000 0.1303388186
H   H166      1.0  0.64230  0.75490  0.37480  1.0000 0.148207768
H   H167      1.0  0.73570  0.81210  0.48890  1.0000 0.1206287612
H   H168      1.0  0.66300  0.86480  0.53640  1.0000 0.1303388186
H   H169      1.0  0.60710  0.97890  0.43270  1.0000 0.1206287612
H   H170      1.0  0.67990  0.92610  0.38530  1.0000 0.1206287612
H   H171      1.0  0.58070  0.03010  0.32400  1.0000 0.1303388186
H   H172      1.0  0.66380  0.08700  0.36650  1.0000 0.1206287612
H   H173      1.0  0.68730  0.22690  0.26910  1.0000 0.1206287612
H   H174      1.0  0.60420  0.17000  0.22660  1.0000 0.1303388186
H   H175      1.0  0.81140  0.19260  0.30590  1.0000 0.1113251537
H   H176      1.0  0.01320  0.21580  0.36620  1.0000 0.1206287612
H   H177      1.0  0.95130  0.16830  0.38040  1.0000 0.1303388186
H   H178      1.0  0.96580  0.23700  0.40530  1.0000 0.1303388186
H   H179      1.0  0.99980  0.31780  0.32370  1.0000 0.1303388186
H   H180      1.0  0.95390  0.34490  0.36170  1.0000 0.1371151107
H   H181      1.0  0.92880  0.34200  0.31150  1.0000 0.1303388186
H   H182      1.0  0.97890  0.21510  0.28890  1.0000 0.1303388186
H   H183      1.0  0.90620  0.23100  0.27410  1.0000 0.1206287612
H   H184      1.0  0.91790  0.16530  0.30120  1.0000 0.1206287612
H   H185      1.0  0.64350  0.24310  0.43770  1.0000 0.1303388186
H   H186      1.0  0.63070  0.17630  0.41030  1.0000 0.1303388186
H   H187      1.0  0.62040  0.24540  0.38710  1.0000 0.148207768
H   H188      1.0  0.70200  0.34180  0.57850  1.0000 0.1113251537
H   H189      1.0  0.72770  0.45010  0.59580  1.0000 0.1113251537
H   H190      1.0  0.65580  0.44320  0.57440  1.0000 0.100218186
H   H191      1.0  0.69660  0.51280  0.57420  1.0000 0.1113251537
H   H192      1.0  0.82610  0.47930  0.54460  1.0000 0.1303388186
H   H193      1.0  0.78350  0.53930  0.53050  1.0000 0.1206287612
H   H194      1.0  0.81100  0.49220  0.49340  1.0000 0.1371151107
H   H195      1.0  0.67390  0.52230  0.49760  1.0000 0.1206287612
H   H196      1.0  0.63670  0.45090  0.49470  1.0000 0.1113251537
H   H197      1.0  0.69640  0.47040  0.46190  1.0000 0.1303388186
H   H198      1.0  0.71890  0.13570  0.51270  1.0000 0.1303388186
H   H199      1.0  0.78250  0.15090  0.48240  1.0000 0.148207768
H   H200      1.0  0.71070  0.15030  0.46100  1.0000 0.1303388186
H   H201      1.0  0.75390  0.24990  0.62520  1.0000 0.1303388186
H   H202      1.0  0.71430  0.17870  0.68250  1.0000 0.1303388186
H   H203      1.0  0.57970  0.09070  0.59670  1.0000 0.1303388186
H   H204      1.0  0.61930  0.16190  0.53940  1.0000 0.1206287612
H   H205      1.0  0.45380  0.09320  0.67130  1.0000 0.1303388186
H   H206      1.0  0.40080  0.15760  0.72400  1.0000 0.1206287612
H   H207      1.0  0.26990  0.20970  0.62910  1.0000 0.1303388186
H   H208      1.0  0.32280  0.14520  0.57630  1.0000 0.1303388186
H   H209      1.0  0.30740  0.31600  0.67480  1.0000 0.1113251537
H   H210      1.0  0.29920  0.48060  0.66880  1.0000 0.1303388186
H   H211      1.0  0.29320  0.40580  0.65230  1.0000 0.100218186
H   H212      1.0  0.34780  0.42880  0.68810  1.0000 0.1113251537
H   H213      1.0  0.18160  0.47640  0.68660  1.0000 0.1206287612
H   H214      1.0  0.14940  0.42180  0.71960  1.0000 0.1303388186
H   H215      1.0  0.17220  0.40140  0.67100  1.0000 0.1303388186
H   H216      1.0  0.26120  0.51420  0.73980  1.0000 0.1206287612
H   H217      1.0  0.30770  0.46690  0.76600  1.0000 0.1303388186
H   H218      1.0  0.23020  0.46260  0.77520  1.0000 0.1303388186
H   H219      1.0  0.24980  0.12540  0.79570  1.0000 0.1303388186
H   H220      1.0  0.31350  0.11850  0.76540  1.0000 0.1303388186
H   H221      1.0  0.24170  0.11070  0.74390  1.0000 0.148207768
H   H222      1.0  0.15590  0.14950  0.93840  1.0000 0.1113251537
H   H223      1.0  0.96660  0.14440  0.86330  1.0000 0.1303388186
H   H224      1.0  0.03130  0.10570  0.85500  1.0000 0.1206287612
H   H225      1.0  0.02010  0.17150  0.82800  1.0000 0.1303388186
H   H226      1.0  0.98890  0.15190  0.94430  1.0000 0.1303388186
H   H227      1.0  0.05830  0.18090  0.96280  1.0000 0.1206287612
H   H228      1.0  0.05310  0.11150  0.93780  1.0000 0.1206287612
H   H229      1.0  0.97100  0.25100  0.90330  1.0000 0.1303388186
H   H230      1.0  0.02290  0.28130  0.86790  1.0000 0.1303388186
H   H231      1.0  0.03930  0.28590  0.91970  1.0000 0.1303388186
H   H232      1.0  0.34380  0.23700  0.82280  1.0000 0.1303388186
H   H233      1.0  0.36000  0.17440  0.85190  1.0000 0.1303388186
H   H234      1.0  0.35770  0.24510  0.87480  1.0000 0.148207768
H   H235      1.0  0.26430  0.18790  0.98890  1.0000 0.1206287612
H   H236      1.0  0.33700  0.13520  0.03640  1.0000 0.1303388186
H   H237      1.0  0.39290  0.02110  0.93270  1.0000 0.1206287612
H   H238      1.0  0.32010  0.07390  0.88530  1.0000 0.1206287612
H   H239      1.0  0.41930  0.96990  0.82400  1.0000 0.1303388186
H   H240      1.0  0.33620  0.91300  0.86650  1.0000 0.1206287612
H   H241      1.0  0.31270  0.77310  0.76910  1.0000 0.1206287612
H   H242      1.0  0.39580  0.83000  0.72660  1.0000 0.1303388186
H   H243      1.0  0.18860  0.80740  0.80590  1.0000 0.1113251537
H   H244      1.0  0.98680  0.78420  0.86620  1.0000 0.1206287612
H   H245      1.0  0.04870  0.83170  0.88040  1.0000 0.1303388186
H   H246      1.0  0.03420  0.76300  0.90530  1.0000 0.1303388186
H   H247      1.0  0.00020  0.68220  0.82370  1.0000 0.1303388186
H   H248      1.0  0.04610  0.65510  0.86170  1.0000 0.1371151107
H   H249      1.0  0.07120  0.65800  0.81150  1.0000 0.1303388186
H   H250      1.0  0.02110  0.78490  0.78890  1.0000 0.1303388186
H   H251      1.0  0.09380  0.76900  0.77410  1.0000 0.1206287612
H   H252      1.0  0.08210  0.83470  0.80120  1.0000 0.1206287612
H   H253      1.0  0.35650  0.75690  0.93770  1.0000 0.1303388186
H   H254      1.0  0.36930  0.82370  0.91030  1.0000 0.1303388186
H   H255      1.0  0.37960  0.75460  0.88710  1.0000 0.148207768
H   H256      1.0  0.29800  0.65820  0.07850  1.0000 0.1113251537
H   H257      1.0  0.27230  0.54990  0.09580  1.0000 0.1113251537
H   H258      1.0  0.34420  0.55680  0.07440  1.0000 0.100218186
H   H259      1.0  0.30340  0.48720  0.07420  1.0000 0.1113251537
H   H260      1.0  0.17390  0.52070  0.04460  1.0000 0.1371151107
H   H261      1.0  0.21650  0.46070  0.03050  1.0000 0.1206287612
H   H262      1.0  0.18900  0.50780  0.99340  1.0000 0.1371151107
H   H263      1.0  0.32610  0.47770  0.99760  1.0000 0.1206287612
H   H264      1.0  0.36330  0.54910  0.99470  1.0000 0.1113251537
H   H265      1.0  0.30360  0.52960  0.96190  1.0000 0.1303388186
H   H266      1.0  0.28110  0.86430  0.01270  1.0000 0.1303388186
H   H267      1.0  0.21750  0.84910  0.98240  1.0000 0.148207768
H   H268      1.0  0.28930  0.84970  0.96100  1.0000 0.1303388186
H   H269      1.0  0.24610  0.75010  0.12520  1.0000 0.1303388186
H   H270      1.0  0.28570  0.82130  0.18250  1.0000 0.1303388186
H   H271      1.0  0.42030  0.90930  0.09670  1.0000 0.1303388186
H   H272      1.0  0.38070  0.83810  0.03940  1.0000 0.1206287612
C   C1        1.0  0.06780  0.42240  0.41420  1.0000 0.5853250208
C   C2        1.0  0.11283  0.39357  0.38146  1.0000 -0.059326472
C   C3        1.0  0.11650  0.41690  0.33720  1.0000 -0.079870679
C   C4        1.0  0.15518  0.38522  0.30558  1.0000 -0.1508245131
C   C5        1.0  0.19009  0.33011  0.31822  1.0000 0.100218186
C   C6        1.0  0.18641  0.30679  0.36248  1.0000 -0.1508245131
C   C7        1.0  0.14774  0.33846  0.39410  1.0000 -0.0901496532
C   C8        1.0  0.41740  0.25420  0.28490  1.0000 0.2887694619
C   C9        1.0  0.23445  0.29755  0.28468  1.0000 -0.0190373663
C   C10       1.0  0.21119  0.27181  0.24350  1.0000 0.1113251537
C   C11       1.0  0.25401  0.23879  0.21530  1.0000 -0.0901496532
C   C12       1.0  0.32000  0.23140  0.22829  1.0000 0.2220767396
C   C13       1.0  0.34326  0.25714  0.26948  1.0000 -0.059326472
C   C14       1.0  0.30044  0.29016  0.29767  1.0000 -0.1702956898
C   C15       1.0  0.43470  0.30290  0.32230  1.0000 -0.4411981968
C   C16       1.0  0.43050  0.18230  0.30380  1.0000 -0.4578015262
C   C17       1.0  0.47020  0.26420  0.24750  1.0000 -0.4411981968
C   C18       1.0  0.13390  0.26890  0.23370  1.0000 -0.4411981968
C   C19       1.0  0.23097  0.21845  0.16758  1.0000 -0.059326472
C   C20       1.0  0.20197  0.26295  0.13844  1.0000 0.0912837964
C   C21       1.0  0.17146  0.23954  0.09874  1.0000 -0.0128308082
C   C22       1.0  0.16994  0.17162  0.08819  1.0000 -0.1855257271
C   C23       1.0  0.19894  0.12712  0.11733  1.0000 -0.0331932897
C   C24       1.0  0.22945  0.15053  0.15702  1.0000 0.1914152734
C   C25       1.0  0.19100  0.05040  0.10600  1.0000 0.2887694619
C   C26       1.0  0.14920  0.01360  0.14350  1.0000 -0.4411981968
C   C27       1.0  0.15560  0.03640  0.06110  1.0000 -0.4548337279
C   C28       1.0  0.25860  0.01780  0.10350  1.0000 -0.4741967586
C   C29       1.0  0.21600  0.33820  0.14810  1.0000 -0.4411981968
C   C30       1.0  0.13610  0.28490  0.06759  1.0000 0.0912837964
C   C31       1.0  0.15454  0.29006  0.02233  1.0000 -0.1561397431
C   C32       1.0  0.12292  0.33368  0.99392  1.0000 -0.0702959317
C   C33       1.0  0.07297  0.37223  0.01077  1.0000 -0.0483403845
C   C34       1.0  0.05464  0.36716  0.05604  1.0000 -0.0968394992
C   C35       1.0  0.08615  0.32345  0.08445  1.0000 -0.1508245131
C   C36       1.0  0.04390  0.42350  0.98220  1.0000 0.5786988559
C   C37       1.0  0.93900  0.47380  0.25480  1.0000 0.5714031639
C   C38       1.0  0.90558  0.41578  0.22892  1.0000 -0.0331932897
C   C39       1.0  0.93038  0.39798  0.18700  1.0000 -0.1093721879
C   C40       1.0  0.89636  0.34816  0.16153  1.0000 -0.1425573254
C   C41       1.0  0.83744  0.31624  0.17799  1.0000 0.083199996
C   C42       1.0  0.81260  0.33408  0.21991  1.0000 -0.1508245131
C   C43       1.0  0.84668  0.38384  0.24538  1.0000 -0.0901496532
C   C44       1.0  0.75080  0.07660  0.15830  1.0000 0.2887694619
C   C45       1.0  0.79958  0.26358  0.14874  1.0000 -0.0128308082
C   C46       1.0  0.77300  0.27900  0.10685  1.0000 0.100218186
C   C47       1.0  0.73643  0.22985  0.08232  1.0000 -0.0702959317
C   C48       1.0  0.72643  0.16529  0.09966  1.0000 0.1914152734
C   C49       1.0  0.75301  0.14985  0.14155  1.0000 -0.0416851436
C   C50       1.0  0.78961  0.19897  0.16609  1.0000 -0.181835823
C   C51       1.0  0.78580  0.03240  0.12330  1.0000 -0.4411981968
C   C52       1.0  0.67990  0.04570  0.16610  1.0000 -0.4779321668
C   C53       1.0  0.78840  0.06760  0.20260  1.0000 -0.4578015262
C   C54       1.0  0.77750  0.35310  0.09150  1.0000 -0.4300496785
C   C55       1.0  0.71494  0.24254  0.03409  1.0000 -0.0702959317
C   C56       1.0  0.76177  0.26577  0.00204  1.0000 0.100218186
C   C57       1.0  0.74051  0.28651  0.95985  1.0000 -0.0190373663
C   C58       1.0  0.67243  0.28403  0.94969  1.0000 -0.181835823
C   C59       1.0  0.62560  0.26080  0.98173  1.0000 -0.0416851436
C   C60       1.0  0.64686  0.24006  0.02393  1.0000 0.1914152734
C   C61       1.0  0.55140  0.27020  0.97300  1.0000 0.2736634197
C   C62       1.0  0.53480  0.30020  0.92810  1.0000 -0.4300496785
C   C63       1.0  0.50590  0.20650  0.97640  1.0000 -0.4578015262
C   C64       1.0  0.52430  0.32070  0.00810  1.0000 -0.4300496785
C   C65       1.0  0.83870  0.26310  0.01250  1.0000 -0.4411981968
C   C66       1.0  0.78704  0.30944  0.92339  1.0000 0.0912837964
C   C67       1.0  0.78200  0.28100  0.88053  1.0000 -0.1508245131
C   C68       1.0  0.82473  0.30473  0.84618  1.0000 -0.0901496532
C   C69       1.0  0.87239  0.35699  0.85469  1.0000 -0.0416851436
C   C70       1.0  0.87742  0.38542  0.89755  1.0000 -0.079870679
C   C71       1.0  0.83480  0.36160  0.93190  1.0000 -0.1425573254
C   C72       1.0  0.92030  0.37970  0.81920  1.0000 0.5786988559
C   C73       1.0  0.93220  0.57760  0.91420  1.0000 0.5786988559
C   C74       1.0  0.88717  0.60643  0.88146  1.0000 -0.059326472
C   C75       1.0  0.88350  0.58310  0.83720  1.0000 -0.079870679
C   C76       1.0  0.84482  0.61478  0.80558  1.0000 -0.1508245131
C   C77       1.0  0.80991  0.66989  0.81822  1.0000 0.100218186
C   C78       1.0  0.81359  0.69321  0.86248  1.0000 -0.1508245131
C   C79       1.0  0.85226  0.66154  0.89410  1.0000 -0.0901496532
C   C80       1.0  0.58260  0.74580  0.78490  1.0000 0.2887694619
C   C81       1.0  0.76555  0.70245  0.78468  1.0000 -0.0190373663
C   C82       1.0  0.78881  0.72819  0.74350  1.0000 0.1113251537
C   C83       1.0  0.74599  0.76121  0.71530  1.0000 -0.0901496532
C   C84       1.0  0.68000  0.76860  0.72829  1.0000 0.2220767396
C   C85       1.0  0.65674  0.74286  0.76948  1.0000 -0.059326472
C   C86       1.0  0.69956  0.70984  0.79767  1.0000 -0.1702956898
C   C87       1.0  0.56530  0.69710  0.82230  1.0000 -0.4411981968
C   C88       1.0  0.56950  0.81770  0.80380  1.0000 -0.4578015262
C   C89       1.0  0.52980  0.73580  0.74750  1.0000 -0.4411981968
C   C90       1.0  0.86610  0.73110  0.73370  1.0000 -0.4411981968
C   C91       1.0  0.76903  0.78155  0.66758  1.0000 -0.059326472
C   C92       1.0  0.79803  0.73705  0.63844  1.0000 0.0912837964
C   C93       1.0  0.82854  0.76046  0.59874  1.0000 -0.0128308082
C   C94       1.0  0.83006  0.82838  0.58819  1.0000 -0.181835823
C   C95       1.0  0.80106  0.87288  0.61733  1.0000 -0.0416851436
C   C96       1.0  0.77055  0.84947  0.65702  1.0000 0.1914152734
C   C97       1.0  0.80900  0.94960  0.60600  1.0000 0.2887694619
C   C98       1.0  0.85080  0.98640  0.64350  1.0000 -0.4411981968
C   C99       1.0  0.84440  0.96360  0.56110  1.0000 -0.4578015262
C   C100      1.0  0.74140  0.98220  0.60350  1.0000 -0.4741967586
C   C101      1.0  0.78400  0.66180  0.64810  1.0000 -0.4411981968
C   C102      1.0  0.86390  0.71510  0.56759  1.0000 0.0912837964
C   C103      1.0  0.84546  0.70994  0.52233  1.0000 -0.1561397431
C   C104      1.0  0.87708  0.66632  0.49392  1.0000 -0.0702959317
C   C105      1.0  0.92703  0.62777  0.51077  1.0000 -0.0483403845
C   C106      1.0  0.94536  0.63284  0.55604  1.0000 -0.0968394992
C   C107      1.0  0.91385  0.67655  0.58445  1.0000 -0.1508245131
C   C108      1.0  0.95610  0.57650  0.48220  1.0000 0.5786988559
C   C109      1.0  0.06100  0.52620  0.75480  1.0000 0.5714031639
C   C110      1.0  0.09442  0.58422  0.72892  1.0000 -0.0331932897
C   C111      1.0  0.06962  0.60202  0.68700  1.0000 -0.1093721879
C   C112      1.0  0.10364  0.65184  0.66153  1.0000 -0.1425573254
C   C113      1.0  0.16256  0.68376  0.67799  1.0000 0.083199996
C   C114      1.0  0.18740  0.66592  0.71991  1.0000 -0.1508245131
C   C115      1.0  0.15332  0.61616  0.74538  1.0000 -0.0901496532
C   C116      1.0  0.24920  0.92340  0.65830  1.0000 0.2887694619
C   C117      1.0  0.20042  0.73642  0.64874  1.0000 -0.0128308082
C   C118      1.0  0.22700  0.72100  0.60685  1.0000 0.100218186
C   C119      1.0  0.26357  0.77015  0.58232  1.0000 -0.0702959317
C   C120      1.0  0.27357  0.83471  0.59966  1.0000 0.1914152734
C   C121      1.0  0.24699  0.85015  0.64155  1.0000 -0.0416851436
C   C122      1.0  0.21039  0.80103  0.66609  1.0000 -0.181835823
C   C123      1.0  0.21420  0.96760  0.62330  1.0000 -0.4411981968
C   C124      1.0  0.32010  0.95430  0.66610  1.0000 -0.4779321668
C   C125      1.0  0.21160  0.93240  0.70260  1.0000 -0.4578015262
C   C126      1.0  0.22250  0.64690  0.59150  1.0000 -0.4300496785
C   C127      1.0  0.28506  0.75746  0.53409  1.0000 -0.0702959317
C   C128      1.0  0.23823  0.73423  0.50204  1.0000 0.100218186
C   C129      1.0  0.25949  0.71349  0.45985  1.0000 -0.0190373663
C   C130      1.0  0.32757  0.71597  0.44969  1.0000 -0.181835823
C   C131      1.0  0.37440  0.73920  0.48173  1.0000 -0.0416851436
C   C132      1.0  0.35314  0.75994  0.52393  1.0000 0.1845069112
C   C133      1.0  0.44860  0.72980  0.47300  1.0000 0.2736634197
C   C134      1.0  0.46520  0.69980  0.42810  1.0000 -0.4300496785
C   C135      1.0  0.49410  0.79350  0.47640  1.0000 -0.4578015262
C   C136      1.0  0.47570  0.67930  0.50810  1.0000 -0.4300496785
C   C137      1.0  0.16130  0.73690  0.51250  1.0000 -0.4411981968
C   C138      1.0  0.21296  0.69056  0.42339  1.0000 0.0912837964
C   C139      1.0  0.21800  0.71900  0.38053  1.0000 -0.1508245131
C   C140      1.0  0.17527  0.69527  0.34618  1.0000 -0.0901496532
C   C141      1.0  0.12761  0.64301  0.35469  1.0000 -0.0416851436
C   C142      1.0  0.12258  0.61458  0.39755  1.0000 -0.079870679
C   C143      1.0  0.16520  0.63840  0.43190  1.0000 -0.1425573254
C   C144      1.0  0.07970  0.62030  0.31920  1.0000 0.5786988559
C   C145      1.0  0.57760  0.93220  0.08580  1.0000 0.5786988559
C   C146      1.0  0.60643  0.88717  0.11854  1.0000 -0.059326472
C   C147      1.0  0.58310  0.88350  0.16280  1.0000 -0.079870679
C   C148      1.0  0.61478  0.84482  0.19442  1.0000 -0.1508245131
C   C149      1.0  0.66989  0.80991  0.18178  1.0000 0.100218186
C   C150      1.0  0.69321  0.81359  0.13752  1.0000 -0.1508245131
C   C151      1.0  0.66154  0.85226  0.10590  1.0000 -0.0901496532
C   C152      1.0  0.74580  0.58260  0.21510  1.0000 0.2887694619
C   C153      1.0  0.70245  0.76555  0.21532  1.0000 -0.0190373663
C   C154      1.0  0.72819  0.78881  0.25650  1.0000 0.1113251537
C   C155      1.0  0.76121  0.74599  0.28470  1.0000 -0.0901496532
C   C156      1.0  0.76860  0.68000  0.27171  1.0000 0.2220767396
C   C157      1.0  0.74286  0.65674  0.23052  1.0000 -0.059326472
C   C158      1.0  0.70984  0.69956  0.20233  1.0000 -0.1702956898
C   C159      1.0  0.69710  0.56530  0.17770  1.0000 -0.4411981968
C   C160      1.0  0.81770  0.56950  0.19620  1.0000 -0.4578015262
C   C161      1.0  0.73580  0.52980  0.25250  1.0000 -0.4411981968
C   C162      1.0  0.73110  0.86610  0.26630  1.0000 -0.4411981968
C   C163      1.0  0.78155  0.76903  0.33242  1.0000 -0.059326472
C   C164      1.0  0.73705  0.79803  0.36156  1.0000 0.0912837964
C   C165      1.0  0.76046  0.82854  0.40126  1.0000 -0.0128308082
C   C166      1.0  0.82838  0.83006  0.41181  1.0000 -0.181835823
C   C167      1.0  0.87288  0.80106  0.38267  1.0000 -0.0331932897
C   C168      1.0  0.84947  0.77055  0.34298  1.0000 0.1914152734
C   C169      1.0  0.94960  0.80900  0.39400  1.0000 0.2887694619
C   C170      1.0  0.98640  0.85080  0.35650  1.0000 -0.4411981968
C   C171      1.0  0.96360  0.84440  0.43890  1.0000 -0.4578015262
C   C172      1.0  0.98220  0.74140  0.39650  1.0000 -0.4741967586
C   C173      1.0  0.66180  0.78400  0.35190  1.0000 -0.4411981968
C   C174      1.0  0.71510  0.86390  0.43241  1.0000 0.0912837964
C   C175      1.0  0.70994  0.84546  0.47767  1.0000 -0.1561397431
C   C176      1.0  0.66632  0.87708  0.50608  1.0000 -0.0702959317
C   C177      1.0  0.62777  0.92703  0.48923  1.0000 -0.0483403845
C   C178      1.0  0.63284  0.94536  0.44396  1.0000 -0.0968394992
C   C179      1.0  0.67655  0.91385  0.41555  1.0000 -0.1508245131
C   C180      1.0  0.57650  0.95610  0.51780  1.0000 0.5786988559
C   C181      1.0  0.52620  0.06100  0.24520  1.0000 0.5714031639
C   C182      1.0  0.58422  0.09442  0.27108  1.0000 -0.0331932897
C   C183      1.0  0.60202  0.06962  0.31300  1.0000 -0.1093721879
C   C184      1.0  0.65184  0.10364  0.33847  1.0000 -0.1425573254
C   C185      1.0  0.68376  0.16256  0.32201  1.0000 0.083199996
C   C186      1.0  0.66592  0.18740  0.28009  1.0000 -0.1508245131
C   C187      1.0  0.61616  0.15332  0.25462  1.0000 -0.0901496532
C   C188      1.0  0.92340  0.24920  0.34170  1.0000 0.2887694619
C   C189      1.0  0.73642  0.20042  0.35126  1.0000 -0.0128308082
C   C190      1.0  0.72100  0.22700  0.39315  1.0000 0.100218186
C   C191      1.0  0.77015  0.26357  0.41768  1.0000 -0.0702959317
C   C192      1.0  0.83471  0.27357  0.40034  1.0000 0.1914152734
C   C193      1.0  0.85015  0.24699  0.35845  1.0000 -0.0416851436
C   C194      1.0  0.80103  0.21039  0.33391  1.0000 -0.181835823
C   C195      1.0  0.96760  0.21420  0.37670  1.0000 -0.4411981968
C   C196      1.0  0.95430  0.32010  0.33390  1.0000 -0.4779321668
C   C197      1.0  0.93240  0.21160  0.29740  1.0000 -0.4578015262
C   C198      1.0  0.64690  0.22250  0.40850  1.0000 -0.4300496785
C   C199      1.0  0.75746  0.28506  0.46591  1.0000 -0.0702959317
C   C200      1.0  0.73423  0.23823  0.49796  1.0000 0.100218186
C   C201      1.0  0.71349  0.25949  0.54015  1.0000 -0.0190373663
C   C202      1.0  0.71597  0.32757  0.55031  1.0000 -0.181835823
C   C203      1.0  0.73920  0.37440  0.51827  1.0000 -0.0416851436
C   C204      1.0  0.75994  0.35314  0.47607  1.0000 0.1845069112
C   C205      1.0  0.72980  0.44860  0.52700  1.0000 0.2736634197
C   C206      1.0  0.69980  0.46520  0.57190  1.0000 -0.4300496785
C   C207      1.0  0.79350  0.49410  0.52360  1.0000 -0.4578015262
C   C208      1.0  0.67930  0.47570  0.49190  1.0000 -0.4300496785
C   C209      1.0  0.73690  0.16130  0.48750  1.0000 -0.4411981968
C   C210      1.0  0.69056  0.21296  0.57661  1.0000 0.0912837964
C   C211      1.0  0.71900  0.21800  0.61947  1.0000 -0.1508245131
C   C212      1.0  0.69527  0.17527  0.65382  1.0000 -0.0901496532
C   C213      1.0  0.64301  0.12761  0.64531  1.0000 -0.0416851436
C   C214      1.0  0.61458  0.12258  0.60245  1.0000 -0.079870679
C   C215      1.0  0.63840  0.16520  0.56810  1.0000 -0.1425573254
C   C216      1.0  0.62030  0.07970  0.68080  1.0000 0.5786988559
C   C217      1.0  0.42240  0.06780  0.58580  1.0000 0.5853250208
C   C218      1.0  0.39357  0.11283  0.61854  1.0000 -0.059326472
C   C219      1.0  0.41690  0.11650  0.66280  1.0000 -0.079870679
C   C220      1.0  0.38522  0.15518  0.69442  1.0000 -0.1508245131
C   C221      1.0  0.33011  0.19009  0.68178  1.0000 0.100218186
C   C222      1.0  0.30679  0.18641  0.63752  1.0000 -0.1508245131
C   C223      1.0  0.33846  0.14774  0.60590  1.0000 -0.0901496532
C   C224      1.0  0.25420  0.41740  0.71510  1.0000 0.2887694619
C   C225      1.0  0.29755  0.23445  0.71532  1.0000 -0.0190373663
C   C226      1.0  0.27181  0.21119  0.75650  1.0000 0.1113251537
C   C227      1.0  0.23879  0.25401  0.78470  1.0000 -0.0901496532
C   C228      1.0  0.23140  0.32000  0.77171  1.0000 0.2220767396
C   C229      1.0  0.25714  0.34326  0.73052  1.0000 -0.059326472
C   C230      1.0  0.29016  0.30044  0.70233  1.0000 -0.1702956898
C   C231      1.0  0.30290  0.43470  0.67770  1.0000 -0.4411981968
C   C232      1.0  0.18230  0.43050  0.69620  1.0000 -0.4578015262
C   C233      1.0  0.26420  0.47020  0.75250  1.0000 -0.4411981968
C   C234      1.0  0.26890  0.13390  0.76630  1.0000 -0.4411981968
C   C235      1.0  0.21845  0.23097  0.83242  1.0000 -0.059326472
C   C236      1.0  0.26295  0.20197  0.86156  1.0000 0.0912837964
C   C237      1.0  0.23954  0.17146  0.90126  1.0000 -0.0128308082
C   C238      1.0  0.17162  0.16994  0.91181  1.0000 -0.181835823
C   C239      1.0  0.12712  0.19894  0.88267  1.0000 -0.0331932897
C   C240      1.0  0.15053  0.22945  0.84298  1.0000 0.1914152734
C   C241      1.0  0.05040  0.19100  0.89400  1.0000 0.2887694619
C   C242      1.0  0.01360  0.14920  0.85650  1.0000 -0.4411981968
C   C243      1.0  0.03640  0.15560  0.93890  1.0000 -0.4548337279
C   C244      1.0  0.01780  0.25860  0.89650  1.0000 -0.4741967586
C   C245      1.0  0.33820  0.21600  0.85190  1.0000 -0.4411981968
C   C246      1.0  0.28490  0.13610  0.93241  1.0000 0.0912837964
C   C247      1.0  0.29006  0.15454  0.97767  1.0000 -0.1561397431
C   C248      1.0  0.33368  0.12292  0.00608  1.0000 -0.0702959317
C   C249      1.0  0.37223  0.07297  0.98923  1.0000 -0.0483403845
C   C250      1.0  0.36716  0.05464  0.94396  1.0000 -0.0968394992
C   C251      1.0  0.32345  0.08615  0.91555  1.0000 -0.1508245131
C   C252      1.0  0.42350  0.04390  0.01780  1.0000 0.5786988559
C   C253      1.0  0.47380  0.93900  0.74520  1.0000 0.5714031639
C   C254      1.0  0.41578  0.90558  0.77108  1.0000 -0.0331932897
C   C255      1.0  0.39798  0.93038  0.81300  1.0000 -0.1093721879
C   C256      1.0  0.34816  0.89636  0.83847  1.0000 -0.1425573254
C   C257      1.0  0.31624  0.83744  0.82201  1.0000 0.083199996
C   C258      1.0  0.33408  0.81260  0.78009  1.0000 -0.1508245131
C   C259      1.0  0.38384  0.84668  0.75462  1.0000 -0.0901496532
C   C260      1.0  0.07660  0.75080  0.84170  1.0000 0.2887694619
C   C261      1.0  0.26358  0.79958  0.85126  1.0000 -0.0128308082
C   C262      1.0  0.27900  0.77300  0.89315  1.0000 0.100218186
C   C263      1.0  0.22985  0.73643  0.91768  1.0000 -0.0702959317
C   C264      1.0  0.16529  0.72643  0.90034  1.0000 0.1914152734
C   C265      1.0  0.14985  0.75301  0.85845  1.0000 -0.0416851436
C   C266      1.0  0.19897  0.78961  0.83391  1.0000 -0.181835823
C   C267      1.0  0.03240  0.78580  0.87670  1.0000 -0.4411981968
C   C268      1.0  0.04570  0.67990  0.83390  1.0000 -0.4779321668
C   C269      1.0  0.06760  0.78840  0.79740  1.0000 -0.4578015262
C   C270      1.0  0.35310  0.77750  0.90850  1.0000 -0.4300496785
C   C271      1.0  0.24254  0.71494  0.96591  1.0000 -0.0702959317
C   C272      1.0  0.26577  0.76177  0.99796  1.0000 0.100218186
C   C273      1.0  0.28651  0.74051  0.04015  1.0000 -0.0190373663
C   C274      1.0  0.28403  0.67243  0.05031  1.0000 -0.181835823
C   C275      1.0  0.26080  0.62560  0.01827  1.0000 -0.0416851436
C   C276      1.0  0.24006  0.64686  0.97607  1.0000 0.1845069112
C   C277      1.0  0.27020  0.55140  0.02700  1.0000 0.2736634197
C   C278      1.0  0.30020  0.53480  0.07190  1.0000 -0.4300496785
C   C279      1.0  0.20650  0.50590  0.02360  1.0000 -0.4578015262
C   C280      1.0  0.32070  0.52430  0.99190  1.0000 -0.4300496785
C   C281      1.0  0.26310  0.83870  0.98750  1.0000 -0.4411981968
C   C282      1.0  0.30944  0.78704  0.07661  1.0000 0.0912837964
C   C283      1.0  0.28100  0.78200  0.11947  1.0000 -0.1508245131
C   C284      1.0  0.30473  0.82473  0.15382  1.0000 -0.0901496532
C   C285      1.0  0.35699  0.87239  0.14531  1.0000 -0.0416851436
C   C286      1.0  0.38542  0.87742  0.10245  1.0000 -0.079870679
C   C287      1.0  0.36160  0.83480  0.06810  1.0000 -0.1425573254
C   C288      1.0  0.37970  0.92030  0.18080  1.0000 0.5786988559
O   O1        1.0  0.06908  0.40332  0.45560  1.0000 -0.5491101561
O   O2        1.0  0.02592  0.46408  0.40112  1.0000 -0.5797403018
O   O3        1.0  0.35708  0.19552  0.20208  1.0000 -0.3932279614
O   O4        1.0  0.26203  0.10897  0.18518  1.0000 -0.4300496785
O   O5        1.0  0.35150  0.07730  0.23376  1.0000 -0.7735088286
O   O6        1.0  0.37936  0.10464  0.15112  1.0000 -0.7386835335
O   O7        1.0  0.00249  0.46175  0.00052  1.0000 -0.5797403018
O   O8        1.0  0.06199  0.42861  0.94084  1.0000 -0.5562051949
O   O9        1.0  0.98426  0.51006  0.23354  1.0000 -0.5739549814
O   O10       1.0  0.92184  0.48344  0.29457  1.0000 -0.5306738583
O   O11       1.0  0.68440  0.12120  0.07585  1.0000 -0.4240344879
O   O12       1.0  0.60420  0.21200  0.05646  1.0000 -0.4300496785
O   O13       1.0  0.59109  0.09069  0.02664  1.0000 -0.7797023175
O   O14       1.0  0.56534  0.12494  0.10857  1.0000 -0.7386835335
O   O15       1.0  0.91553  0.35653  0.77951  1.0000 -0.5354213534
O   O16       1.0  0.96590  0.42450  0.82841  1.0000 -0.5739549814
O   O17       1.0  0.93092  0.59668  0.95560  1.0000 -0.5491101561
O   O18       1.0  0.97408  0.53592  0.90112  1.0000 -0.5797403018
O   O19       1.0  0.64292  0.80448  0.70208  1.0000 -0.3932279614
O   O20       1.0  0.73797  0.89103  0.68518  1.0000 -0.4300496785
O   O21       1.0  0.64850  0.92270  0.73376  1.0000 -0.7735088286
O   O22       1.0  0.62064  0.89536  0.65112  1.0000 -0.7386835335
O   O23       1.0  0.99751  0.53825  0.50052  1.0000 -0.5797403018
O   O24       1.0  0.93801  0.57139  0.44084  1.0000 -0.5562051949
O   O25       1.0  0.01574  0.48994  0.73354  1.0000 -0.5739549814
O   O26       1.0  0.07816  0.51656  0.79457  1.0000 -0.5306738583
O   O27       1.0  0.31560  0.87880  0.57585  1.0000 -0.4300496785
O   O28       1.0  0.39580  0.78800  0.55646  1.0000 -0.4300496785
O   O29       1.0  0.40891  0.90931  0.52664  1.0000 -0.7797023175
O   O30       1.0  0.43466  0.87506  0.60857  1.0000 -0.7386835335
O   O31       1.0  0.08447  0.64347  0.27951  1.0000 -0.5354213534
O   O32       1.0  0.03410  0.57550  0.32841  1.0000 -0.5739549814
O   O33       1.0  0.59668  0.93092  0.04440  1.0000 -0.5491101561
O   O34       1.0  0.53592  0.97408  0.09888  1.0000 -0.5797403018
O   O35       1.0  0.80448  0.64292  0.29792  1.0000 -0.3932279614
O   O36       1.0  0.89103  0.73797  0.31482  1.0000 -0.4240344879
O   O37       1.0  0.92270  0.64850  0.26624  1.0000 -0.7735088286
O   O38       1.0  0.89536  0.62064  0.34888  1.0000 -0.7386835335
O   O39       1.0  0.53825  0.99751  0.49948  1.0000 -0.5797403018
O   O40       1.0  0.57139  0.93801  0.55916  1.0000 -0.5562051949
O   O41       1.0  0.48994  0.01574  0.26646  1.0000 -0.5739549814
O   O42       1.0  0.51656  0.07816  0.20543  1.0000 -0.5306738583
O   O43       1.0  0.87880  0.31560  0.42415  1.0000 -0.4240344879
O   O44       1.0  0.78800  0.39580  0.44354  1.0000 -0.4300496785
O   O45       1.0  0.90931  0.40891  0.47336  1.0000 -0.7797023175
O   O46       1.0  0.87506  0.43466  0.39143  1.0000 -0.7386835335
O   O47       1.0  0.64347  0.08447  0.72049  1.0000 -0.5354213534
O   O48       1.0  0.57550  0.03410  0.67159  1.0000 -0.5739549814
O   O49       1.0  0.40332  0.06908  0.54440  1.0000 -0.5491101561
O   O50       1.0  0.46408  0.02592  0.59888  1.0000 -0.585635942
O   O51       1.0  0.19552  0.35708  0.79792  1.0000 -0.3932279614
O   O52       1.0  0.10897  0.26203  0.81482  1.0000 -0.4300496785
O   O53       1.0  0.07730  0.35150  0.76624  1.0000 -0.7735088286
O   O54       1.0  0.10464  0.37936  0.84888  1.0000 -0.7386835335
O   O55       1.0  0.46175  0.00249  0.99948  1.0000 -0.5797403018
O   O56       1.0  0.42861  0.06199  0.05916  1.0000 -0.5562051949
O   O57       1.0  0.51006  0.98426  0.76646  1.0000 -0.5739549814
O   O58       1.0  0.48344  0.92184  0.70543  1.0000 -0.5306738583
O   O59       1.0  0.12120  0.68440  0.92415  1.0000 -0.4240344879
O   O60       1.0  0.21200  0.60420  0.94354  1.0000 -0.4300496785
O   O61       1.0  0.09069  0.59109  0.97336  1.0000 -0.7797023175
O   O62       1.0  0.12494  0.56534  0.89143  1.0000 -0.7386835335
O   O63       1.0  0.35653  0.91553  0.22049  1.0000 -0.5354213534
O   O64       1.0  0.42450  0.96590  0.17159  1.0000 -0.5739549814
