# DDEC6 charges by PACMAN v1.1 (https://github.com/mtap-research/PACMAN-charge/)
data_2018[Zn][hmc]3[ASR]1
_chemical_formula_sum              "Zn28 H72 C216 N24 O120"
_cell_length_a       27.6348
_cell_length_b       27.6348
_cell_length_c       27.6348
_cell_angle_alpha    60
_cell_angle_beta     60
_cell_angle_gamma    60

_symmetry_space_group_name_H-M    "P 1"
_symmetry_Int_Tables_number       1

loop_
  _symmetry_equiv_pos_as_xyz
  'x, y, z'

loop_
  _atom_site_type_symbol
  _atom_site_label
  _atom_site_symmetry_multiplicity
  _atom_site_fract_x
  _atom_site_fract_y
  _atom_site_fract_z
  _atom_site_occupancy
  _atom_site_charge
Zn  Zn1       1.0  0.78025  0.78025  0.21975  1.0000 0.9589161563
Zn  Zn2       1.0  0.70365  0.70365  0.29635  1.0000 0.9589161563
Zn  Zn3       1.0  0.21975  0.21975  0.78025  1.0000 0.9589161563
Zn  Zn4       1.0  0.29635  0.29635  0.70365  1.0000 0.9589161563
Zn  Zn5       1.0  0.78025  0.21975  0.78025  1.0000 0.9589161563
Zn  Zn6       1.0  0.70365  0.29635  0.70365  1.0000 0.9589161563
Zn  Zn7       1.0  0.21975  0.78025  0.21975  1.0000 0.9589161563
Zn  Zn8       1.0  0.29635  0.70365  0.29635  1.0000 0.9589161563
Zn  Zn9       1.0  0.21975  0.78025  0.78025  1.0000 0.9589161563
Zn  Zn10      1.0  0.29635  0.70365  0.70365  1.0000 0.9589161563
Zn  Zn11      1.0  0.78025  0.21975  0.21975  1.0000 0.9589161563
Zn  Zn12      1.0  0.70365  0.29635  0.29635  1.0000 0.9589161563
Zn  Zn13      1.0  0.87476  0.87476  0.37572  1.0000 0.9589161563
Zn  Zn14      1.0  0.82368  0.82368  0.52896  1.0000 0.9589161563
Zn  Zn15      1.0  0.37572  0.87476  0.87476  1.0000 0.9589161563
Zn  Zn16      1.0  0.52896  0.82368  0.82368  1.0000 0.9589161563
Zn  Zn17      1.0  0.87476  0.87476  0.87476  1.0000 0.9589161563
Zn  Zn18      1.0  0.82368  0.82368  0.82368  1.0000 0.9589161563
Zn  Zn19      1.0  0.87476  0.37572  0.87476  1.0000 0.9589161563
Zn  Zn20      1.0  0.82368  0.52896  0.82368  1.0000 0.9589161563
Zn  Zn21      1.0  0.12524  0.12524  0.62428  1.0000 0.9589161563
Zn  Zn22      1.0  0.17632  0.17632  0.47104  1.0000 0.9589161563
Zn  Zn23      1.0  0.62428  0.12524  0.12524  1.0000 0.9589161563
Zn  Zn24      1.0  0.47104  0.17632  0.17632  1.0000 0.9589161563
Zn  Zn25      1.0  0.12524  0.62428  0.12524  1.0000 0.9589161563
Zn  Zn26      1.0  0.17632  0.47104  0.17632  1.0000 0.9589161563
Zn  Zn27      1.0  0.12524  0.12524  0.12524  1.0000 0.9589161563
Zn  Zn28      1.0  0.17632  0.17632  0.17632  1.0000 0.9589161563
H   H1        1.0  0.69530  0.77970  0.54160  1.0000 0.1438734478
H   H2        1.0  0.64500  0.73380  0.45922  1.0000 0.1453475809
H   H3        1.0  0.78368  0.79644  0.36534  1.0000 0.1285085401
H   H4        1.0  0.54160  0.98340  0.69530  1.0000 0.1438734478
H   H5        1.0  0.45922  0.16198  0.64500  1.0000 0.1453475809
H   H6        1.0  0.36534  0.05454  0.78368  1.0000 0.1285085401
H   H7        1.0  0.77970  0.69530  0.98340  1.0000 0.1438734478
H   H8        1.0  0.73380  0.64500  0.16198  1.0000 0.1453475809
H   H9        1.0  0.79644  0.78368  0.05454  1.0000 0.1285085401
H   H10       1.0  0.98340  0.54160  0.77970  1.0000 0.1453475809
H   H11       1.0  0.16198  0.45922  0.73380  1.0000 0.1453475809
H   H12       1.0  0.05454  0.36534  0.79644  1.0000 0.1285085401
H   H13       1.0  0.77970  0.54160  0.69530  1.0000 0.1438734478
H   H14       1.0  0.73380  0.45922  0.64500  1.0000 0.1453475809
H   H15       1.0  0.79644  0.36534  0.78368  1.0000 0.1285085401
H   H16       1.0  0.98340  0.69530  0.54160  1.0000 0.1438734478
H   H17       1.0  0.16198  0.64500  0.45922  1.0000 0.1453475809
H   H18       1.0  0.05454  0.78368  0.36534  1.0000 0.1285085401
H   H19       1.0  0.69530  0.98340  0.77970  1.0000 0.1438734478
H   H20       1.0  0.64500  0.16198  0.73380  1.0000 0.1453475809
H   H21       1.0  0.78368  0.05454  0.79644  1.0000 0.1285085401
H   H22       1.0  0.54160  0.77970  0.98340  1.0000 0.1438734478
H   H23       1.0  0.45922  0.73380  0.16198  1.0000 0.1453475809
H   H24       1.0  0.36534  0.79644  0.05454  1.0000 0.1285085401
H   H25       1.0  0.54160  0.69530  0.77970  1.0000 0.1438734478
H   H26       1.0  0.45922  0.64500  0.73380  1.0000 0.1453475809
H   H27       1.0  0.36534  0.78368  0.79644  1.0000 0.1285085401
H   H28       1.0  0.69530  0.54160  0.98340  1.0000 0.1438734478
H   H29       1.0  0.64500  0.45922  0.16198  1.0000 0.1453475809
H   H30       1.0  0.78368  0.36534  0.05454  1.0000 0.1285085401
H   H31       1.0  0.98340  0.77970  0.69530  1.0000 0.1438734478
H   H32       1.0  0.16198  0.73380  0.64500  1.0000 0.1453475809
H   H33       1.0  0.05454  0.79644  0.78368  1.0000 0.1285085401
H   H34       1.0  0.77970  0.98340  0.54160  1.0000 0.1438734478
H   H35       1.0  0.73380  0.16198  0.45922  1.0000 0.1453475809
H   H36       1.0  0.79644  0.05454  0.36534  1.0000 0.1285085401
H   H37       1.0  0.30470  0.01660  0.45840  1.0000 0.1438734478
H   H38       1.0  0.35500  0.83802  0.54078  1.0000 0.1453475809
H   H39       1.0  0.21632  0.94546  0.63466  1.0000 0.1285085401
H   H40       1.0  0.45840  0.22030  0.30470  1.0000 0.1438734478
H   H41       1.0  0.54078  0.26620  0.35500  1.0000 0.1453475809
H   H42       1.0  0.63466  0.20356  0.21632  1.0000 0.1285085401
H   H43       1.0  0.22030  0.45840  0.01660  1.0000 0.1438734478
H   H44       1.0  0.26620  0.54078  0.83802  1.0000 0.1453475809
H   H45       1.0  0.20356  0.63466  0.94546  1.0000 0.1285085401
H   H46       1.0  0.01660  0.30470  0.22030  1.0000 0.1438734478
H   H47       1.0  0.83802  0.35500  0.26620  1.0000 0.1453475809
H   H48       1.0  0.94546  0.21632  0.20356  1.0000 0.1285085401
H   H49       1.0  0.22030  0.01660  0.30470  1.0000 0.1438734478
H   H50       1.0  0.26620  0.83802  0.35500  1.0000 0.1453475809
H   H51       1.0  0.20356  0.94546  0.21632  1.0000 0.1285085401
H   H52       1.0  0.01660  0.22030  0.45840  1.0000 0.1438734478
H   H53       1.0  0.83802  0.26620  0.54078  1.0000 0.1453475809
H   H54       1.0  0.94546  0.20356  0.63466  1.0000 0.1285085401
H   H55       1.0  0.30470  0.45840  0.22030  1.0000 0.1438734478
H   H56       1.0  0.35500  0.54078  0.26620  1.0000 0.1453475809
H   H57       1.0  0.21632  0.63466  0.20356  1.0000 0.1285085401
H   H58       1.0  0.45840  0.30470  0.01660  1.0000 0.1438734478
H   H59       1.0  0.54078  0.35500  0.83802  1.0000 0.1453475809
H   H60       1.0  0.63466  0.21632  0.94546  1.0000 0.1285085401
H   H61       1.0  0.45840  0.01660  0.22030  1.0000 0.1438734478
H   H62       1.0  0.54078  0.83802  0.26620  1.0000 0.1453475809
H   H63       1.0  0.63466  0.94546  0.20356  1.0000 0.1285085401
H   H64       1.0  0.30470  0.22030  0.01660  1.0000 0.1438734478
H   H65       1.0  0.35500  0.26620  0.83802  1.0000 0.1453475809
H   H66       1.0  0.21632  0.20356  0.94546  1.0000 0.1285085401
H   H67       1.0  0.01660  0.45840  0.30470  1.0000 0.1438734478
H   H68       1.0  0.83802  0.54078  0.35500  1.0000 0.1453475809
H   H69       1.0  0.94546  0.63466  0.21632  1.0000 0.1285085401
H   H70       1.0  0.22030  0.30470  0.45840  1.0000 0.1438734478
H   H71       1.0  0.26620  0.35500  0.54078  1.0000 0.1453475809
H   H72       1.0  0.20356  0.21632  0.63466  1.0000 0.1285085401
C   C1        1.0  0.74540  0.79460  0.45180  1.0000 -0.0351778697
C   C2        1.0  0.70080  0.77720  0.50600  1.0000 -0.187502669
C   C3        1.0  0.66510  0.75590  0.50390  1.0000 0.2365262213
C   C4        1.0  0.67080  0.74860  0.45700  1.0000 -0.1837762747
C   C5        1.0  0.71770  0.76410  0.40250  1.0000 -0.0554577539
C   C6        1.0  0.75290  0.78630  0.40130  1.0000 -0.0780840042
C   C7        1.0  0.78750  0.81170  0.45230  1.0000 0.6007324999
C   C8        1.0  0.72700  0.75640  0.35040  1.0000 0.5835316078
C   C9        1.0  0.63200  0.68900  0.59600  1.0000 0.5565453018
C   C10       1.0  0.45180  0.00820  0.74540  1.0000 -0.0342170594
C   C11       1.0  0.50600  0.01600  0.70080  1.0000 -0.187502669
C   C12       1.0  0.50390  0.07510  0.66510  1.0000 0.2365262213
C   C13       1.0  0.45700  0.12360  0.67080  1.0000 -0.1837762747
C   C14       1.0  0.40250  0.11570  0.71770  1.0000 -0.0554577539
C   C15       1.0  0.40130  0.05950  0.75290  1.0000 -0.0780840042
C   C16       1.0  0.45230  0.94850  0.78750  1.0000 0.6007324999
C   C17       1.0  0.35040  0.16620  0.72700  1.0000 0.5835316078
C   C18       1.0  0.59600  0.08300  0.63200  1.0000 0.5565453018
C   C19       1.0  0.79460  0.74540  0.00820  1.0000 -0.0342170594
C   C20       1.0  0.77720  0.70080  0.01600  1.0000 -0.187502669
C   C21       1.0  0.75590  0.66510  0.07510  1.0000 0.2365262213
C   C22       1.0  0.74860  0.67080  0.12360  1.0000 -0.1837762747
C   C23       1.0  0.76410  0.71770  0.11570  1.0000 -0.0554577539
C   C24       1.0  0.78630  0.75290  0.05950  1.0000 -0.0780840042
C   C25       1.0  0.81170  0.78750  0.94850  1.0000 0.6007324999
C   C26       1.0  0.75640  0.72700  0.16620  1.0000 0.5835316078
C   C27       1.0  0.68900  0.63200  0.08300  1.0000 0.5565453018
C   C28       1.0  0.00820  0.45180  0.79460  1.0000 -0.0342170594
C   C29       1.0  0.01600  0.50600  0.77720  1.0000 -0.187502669
C   C30       1.0  0.07510  0.50390  0.75590  1.0000 0.2365262213
C   C31       1.0  0.12360  0.45700  0.74860  1.0000 -0.1837762747
C   C32       1.0  0.11570  0.40250  0.76410  1.0000 -0.0554577539
C   C33       1.0  0.05950  0.40130  0.78630  1.0000 -0.0780840042
C   C34       1.0  0.94850  0.45230  0.81170  1.0000 0.6007324999
C   C35       1.0  0.16620  0.35040  0.75640  1.0000 0.5835316078
C   C36       1.0  0.08300  0.59600  0.68900  1.0000 0.5565453018
C   C37       1.0  0.79460  0.45180  0.74540  1.0000 -0.0342170594
C   C38       1.0  0.77720  0.50600  0.70080  1.0000 -0.187502669
C   C39       1.0  0.75590  0.50390  0.66510  1.0000 0.2365262213
C   C40       1.0  0.74860  0.45700  0.67080  1.0000 -0.1837762747
C   C41       1.0  0.76410  0.40250  0.71770  1.0000 -0.0554577539
C   C42       1.0  0.78630  0.40130  0.75290  1.0000 -0.0780840042
C   C43       1.0  0.81170  0.45230  0.78750  1.0000 0.6007324999
C   C44       1.0  0.75640  0.35040  0.72700  1.0000 0.5835316078
C   C45       1.0  0.68900  0.59600  0.63200  1.0000 0.5565453018
C   C46       1.0  0.00820  0.74540  0.45180  1.0000 -0.0351778697
C   C47       1.0  0.01600  0.70080  0.50600  1.0000 -0.187502669
C   C48       1.0  0.07510  0.66510  0.50390  1.0000 0.2365262213
C   C49       1.0  0.12360  0.67080  0.45700  1.0000 -0.1837762747
C   C50       1.0  0.11570  0.71770  0.40250  1.0000 -0.0554577539
C   C51       1.0  0.05950  0.75290  0.40130  1.0000 -0.0780840042
C   C52       1.0  0.94850  0.78750  0.45230  1.0000 0.6007324999
C   C53       1.0  0.16620  0.72700  0.35040  1.0000 0.5835316078
C   C54       1.0  0.08300  0.63200  0.59600  1.0000 0.5565453018
C   C55       1.0  0.74540  0.00820  0.79460  1.0000 -0.0342170594
C   C56       1.0  0.70080  0.01600  0.77720  1.0000 -0.187502669
C   C57       1.0  0.66510  0.07510  0.75590  1.0000 0.2365262213
C   C58       1.0  0.67080  0.12360  0.74860  1.0000 -0.1837762747
C   C59       1.0  0.71770  0.11570  0.76410  1.0000 -0.0554577539
C   C60       1.0  0.75290  0.05950  0.78630  1.0000 -0.0780840042
C   C61       1.0  0.78750  0.94850  0.81170  1.0000 0.6007324999
C   C62       1.0  0.72700  0.16620  0.75640  1.0000 0.5835316078
C   C63       1.0  0.63200  0.08300  0.68900  1.0000 0.5565453018
C   C64       1.0  0.45180  0.79460  0.00820  1.0000 -0.0342170594
C   C65       1.0  0.50600  0.77720  0.01600  1.0000 -0.187502669
C   C66       1.0  0.50390  0.75590  0.07510  1.0000 0.2365262213
C   C67       1.0  0.45700  0.74860  0.12360  1.0000 -0.1837762747
C   C68       1.0  0.40250  0.76410  0.11570  1.0000 -0.0554577539
C   C69       1.0  0.40130  0.78630  0.05950  1.0000 -0.0780840042
C   C70       1.0  0.45230  0.81170  0.94850  1.0000 0.6007324999
C   C71       1.0  0.35040  0.75640  0.16620  1.0000 0.5835316078
C   C72       1.0  0.59600  0.68900  0.08300  1.0000 0.5565453018
C   C73       1.0  0.45180  0.74540  0.79460  1.0000 -0.0342170594
C   C74       1.0  0.50600  0.70080  0.77720  1.0000 -0.187502669
C   C75       1.0  0.50390  0.66510  0.75590  1.0000 0.2365262213
C   C76       1.0  0.45700  0.67080  0.74860  1.0000 -0.1837762747
C   C77       1.0  0.40250  0.71770  0.76410  1.0000 -0.0554577539
C   C78       1.0  0.40130  0.75290  0.78630  1.0000 -0.0780840042
C   C79       1.0  0.45230  0.78750  0.81170  1.0000 0.6007324999
C   C80       1.0  0.35040  0.72700  0.75640  1.0000 0.5835316078
C   C81       1.0  0.59600  0.63200  0.68900  1.0000 0.5565453018
C   C82       1.0  0.74540  0.45180  0.00820  1.0000 -0.0342170594
C   C83       1.0  0.70080  0.50600  0.01600  1.0000 -0.187502669
C   C84       1.0  0.66510  0.50390  0.07510  1.0000 0.2365262213
C   C85       1.0  0.67080  0.45700  0.12360  1.0000 -0.1837762747
C   C86       1.0  0.71770  0.40250  0.11570  1.0000 -0.0554577539
C   C87       1.0  0.75290  0.40130  0.05950  1.0000 -0.0780840042
C   C88       1.0  0.78750  0.45230  0.94850  1.0000 0.6007324999
C   C89       1.0  0.72700  0.35040  0.16620  1.0000 0.5835316078
C   C90       1.0  0.63200  0.59600  0.08300  1.0000 0.5565453018
C   C91       1.0  0.00820  0.79460  0.74540  1.0000 -0.0342170594
C   C92       1.0  0.01600  0.77720  0.70080  1.0000 -0.187502669
C   C93       1.0  0.07510  0.75590  0.66510  1.0000 0.2365262213
C   C94       1.0  0.12360  0.74860  0.67080  1.0000 -0.1837762747
C   C95       1.0  0.11570  0.76410  0.71770  1.0000 -0.0554577539
C   C96       1.0  0.05950  0.78630  0.75290  1.0000 -0.0780840042
C   C97       1.0  0.94850  0.81170  0.78750  1.0000 0.6007324999
C   C98       1.0  0.16620  0.75640  0.72700  1.0000 0.5835316078
C   C99       1.0  0.08300  0.68900  0.63200  1.0000 0.5565453018
C   C100      1.0  0.79460  0.00820  0.45180  1.0000 -0.0351778697
C   C101      1.0  0.77720  0.01600  0.50600  1.0000 -0.187502669
C   C102      1.0  0.75590  0.07510  0.50390  1.0000 0.2365262213
C   C103      1.0  0.74860  0.12360  0.45700  1.0000 -0.1837762747
C   C104      1.0  0.76410  0.11570  0.40250  1.0000 -0.0554577539
C   C105      1.0  0.78630  0.05950  0.40130  1.0000 -0.0780840042
C   C106      1.0  0.81170  0.94850  0.45230  1.0000 0.6007324999
C   C107      1.0  0.75640  0.16620  0.35040  1.0000 0.5835316078
C   C108      1.0  0.68900  0.08300  0.59600  1.0000 0.5565453018
C   C109      1.0  0.25460  0.99180  0.54820  1.0000 -0.0351778697
C   C110      1.0  0.29920  0.98400  0.49400  1.0000 -0.187502669
C   C111      1.0  0.33490  0.92490  0.49610  1.0000 0.2365262213
C   C112      1.0  0.32920  0.87640  0.54300  1.0000 -0.1837762747
C   C113      1.0  0.28230  0.88430  0.59750  1.0000 -0.0554577539
C   C114      1.0  0.24710  0.94050  0.59870  1.0000 -0.0780840042
C   C115      1.0  0.21250  0.05150  0.54770  1.0000 0.6007324999
C   C116      1.0  0.27300  0.83380  0.64960  1.0000 0.5835316078
C   C117      1.0  0.36800  0.91700  0.40400  1.0000 0.5565453018
C   C118      1.0  0.54820  0.20540  0.25460  1.0000 -0.0342170594
C   C119      1.0  0.49400  0.22280  0.29920  1.0000 -0.187502669
C   C120      1.0  0.49610  0.24410  0.33490  1.0000 0.2365262213
C   C121      1.0  0.54300  0.25140  0.32920  1.0000 -0.1837762747
C   C122      1.0  0.59750  0.23590  0.28230  1.0000 -0.0554577539
C   C123      1.0  0.59870  0.21370  0.24710  1.0000 -0.0780840042
C   C124      1.0  0.54770  0.18830  0.21250  1.0000 0.6007324999
C   C125      1.0  0.64960  0.24360  0.27300  1.0000 0.5835316078
C   C126      1.0  0.40400  0.31100  0.36800  1.0000 0.5565453018
C   C127      1.0  0.20540  0.54820  0.99180  1.0000 -0.0351778697
C   C128      1.0  0.22280  0.49400  0.98400  1.0000 -0.187502669
C   C129      1.0  0.24410  0.49610  0.92490  1.0000 0.2365262213
C   C130      1.0  0.25140  0.54300  0.87640  1.0000 -0.1837762747
C   C131      1.0  0.23590  0.59750  0.88430  1.0000 -0.0554577539
C   C132      1.0  0.21370  0.59870  0.94050  1.0000 -0.0780840042
C   C133      1.0  0.18830  0.54770  0.05150  1.0000 0.6007324999
C   C134      1.0  0.24360  0.64960  0.83380  1.0000 0.5835316078
C   C135      1.0  0.31100  0.40400  0.91700  1.0000 0.5565453018
C   C136      1.0  0.99180  0.25460  0.20540  1.0000 -0.0342170594
C   C137      1.0  0.98400  0.29920  0.22280  1.0000 -0.187502669
C   C138      1.0  0.92490  0.33490  0.24410  1.0000 0.2365262213
C   C139      1.0  0.87640  0.32920  0.25140  1.0000 -0.1837762747
C   C140      1.0  0.88430  0.28230  0.23590  1.0000 -0.0554577539
C   C141      1.0  0.94050  0.24710  0.21370  1.0000 -0.0780840042
C   C142      1.0  0.05150  0.21250  0.18830  1.0000 0.6007324999
C   C143      1.0  0.83380  0.27300  0.24360  1.0000 0.5835316078
C   C144      1.0  0.91700  0.36800  0.31100  1.0000 0.5565453018
C   C145      1.0  0.20540  0.99180  0.25460  1.0000 -0.0351778697
C   C146      1.0  0.22280  0.98400  0.29920  1.0000 -0.187502669
C   C147      1.0  0.24410  0.92490  0.33490  1.0000 0.2365262213
C   C148      1.0  0.25140  0.87640  0.32920  1.0000 -0.1837762747
C   C149      1.0  0.23590  0.88430  0.28230  1.0000 -0.0554577539
C   C150      1.0  0.21370  0.94050  0.24710  1.0000 -0.0780840042
C   C151      1.0  0.18830  0.05150  0.21250  1.0000 0.6007324999
C   C152      1.0  0.24360  0.83380  0.27300  1.0000 0.5835316078
C   C153      1.0  0.31100  0.91700  0.36800  1.0000 0.5565453018
C   C154      1.0  0.99180  0.20540  0.54820  1.0000 -0.0351778697
C   C155      1.0  0.98400  0.22280  0.49400  1.0000 -0.187502669
C   C156      1.0  0.92490  0.24410  0.49610  1.0000 0.2365262213
C   C157      1.0  0.87640  0.25140  0.54300  1.0000 -0.1837762747
C   C158      1.0  0.88430  0.23590  0.59750  1.0000 -0.0554577539
C   C159      1.0  0.94050  0.21370  0.59870  1.0000 -0.0780840042
C   C160      1.0  0.05150  0.18830  0.54770  1.0000 0.6007324999
C   C161      1.0  0.83380  0.24360  0.64960  1.0000 0.5835316078
C   C162      1.0  0.91700  0.31100  0.40400  1.0000 0.5565453018
C   C163      1.0  0.25460  0.54820  0.20540  1.0000 -0.0351778697
C   C164      1.0  0.29920  0.49400  0.22280  1.0000 -0.187502669
C   C165      1.0  0.33490  0.49610  0.24410  1.0000 0.2365262213
C   C166      1.0  0.32920  0.54300  0.25140  1.0000 -0.1837762747
C   C167      1.0  0.28230  0.59750  0.23590  1.0000 -0.0554577539
C   C168      1.0  0.24710  0.59870  0.21370  1.0000 -0.0780840042
C   C169      1.0  0.21250  0.54770  0.18830  1.0000 0.6007324999
C   C170      1.0  0.27300  0.64960  0.24360  1.0000 0.5835316078
C   C171      1.0  0.36800  0.40400  0.31100  1.0000 0.5565453018
C   C172      1.0  0.54820  0.25460  0.99180  1.0000 -0.0351778697
C   C173      1.0  0.49400  0.29920  0.98400  1.0000 -0.187502669
C   C174      1.0  0.49610  0.33490  0.92490  1.0000 0.2365262213
C   C175      1.0  0.54300  0.32920  0.87640  1.0000 -0.1837762747
C   C176      1.0  0.59750  0.28230  0.88430  1.0000 -0.0554577539
C   C177      1.0  0.59870  0.24710  0.94050  1.0000 -0.0780840042
C   C178      1.0  0.54770  0.21250  0.05150  1.0000 0.6007324999
C   C179      1.0  0.64960  0.27300  0.83380  1.0000 0.5835316078
C   C180      1.0  0.40400  0.36800  0.91700  1.0000 0.5565453018
C   C181      1.0  0.54820  0.99180  0.20540  1.0000 -0.0351778697
C   C182      1.0  0.49400  0.98400  0.22280  1.0000 -0.187502669
C   C183      1.0  0.49610  0.92490  0.24410  1.0000 0.2365262213
C   C184      1.0  0.54300  0.87640  0.25140  1.0000 -0.1837762747
C   C185      1.0  0.59750  0.88430  0.23590  1.0000 -0.0554577539
C   C186      1.0  0.59870  0.94050  0.21370  1.0000 -0.0780840042
C   C187      1.0  0.54770  0.05150  0.18830  1.0000 0.6007324999
C   C188      1.0  0.64960  0.83380  0.24360  1.0000 0.5835316078
C   C189      1.0  0.40400  0.91700  0.31100  1.0000 0.5565453018
C   C190      1.0  0.25460  0.20540  0.99180  1.0000 -0.0351778697
C   C191      1.0  0.29920  0.22280  0.98400  1.0000 -0.187502669
C   C192      1.0  0.33490  0.24410  0.92490  1.0000 0.2365262213
C   C193      1.0  0.32920  0.25140  0.87640  1.0000 -0.1837762747
C   C194      1.0  0.28230  0.23590  0.88430  1.0000 -0.0554577539
C   C195      1.0  0.24710  0.21370  0.94050  1.0000 -0.0780840042
C   C196      1.0  0.21250  0.18830  0.05150  1.0000 0.6007324999
C   C197      1.0  0.27300  0.24360  0.83380  1.0000 0.5835316078
C   C198      1.0  0.36800  0.31100  0.91700  1.0000 0.5565453018
C   C199      1.0  0.99180  0.54820  0.25460  1.0000 -0.0342170594
C   C200      1.0  0.98400  0.49400  0.29920  1.0000 -0.187502669
C   C201      1.0  0.92490  0.49610  0.33490  1.0000 0.2365262213
C   C202      1.0  0.87640  0.54300  0.32920  1.0000 -0.1837762747
C   C203      1.0  0.88430  0.59750  0.28230  1.0000 -0.0554577539
C   C204      1.0  0.94050  0.59870  0.24710  1.0000 -0.0780840042
C   C205      1.0  0.05150  0.54770  0.21250  1.0000 0.6007324999
C   C206      1.0  0.83380  0.64960  0.27300  1.0000 0.5835316078
C   C207      1.0  0.91700  0.40400  0.36800  1.0000 0.5565453018
C   C208      1.0  0.20540  0.25460  0.54820  1.0000 -0.0351778697
C   C209      1.0  0.22280  0.29920  0.49400  1.0000 -0.187502669
C   C210      1.0  0.24410  0.33490  0.49610  1.0000 0.2365262213
C   C211      1.0  0.25140  0.32920  0.54300  1.0000 -0.1837762747
C   C212      1.0  0.23590  0.28230  0.59750  1.0000 -0.0554577539
C   C213      1.0  0.21370  0.24710  0.59870  1.0000 -0.0780840042
C   C214      1.0  0.18830  0.21250  0.54770  1.0000 0.6007324999
C   C215      1.0  0.24360  0.27300  0.64960  1.0000 0.5835316078
C   C216      1.0  0.31100  0.36800  0.40400  1.0000 0.5565453018
N   N1        1.0  0.68640  0.64820  0.58700  1.0000 -0.5056849243
N   N2        1.0  0.58700  0.07840  0.68640  1.0000 -0.5056849243
N   N3        1.0  0.64820  0.68640  0.07840  1.0000 -0.5056849243
N   N4        1.0  0.07840  0.58700  0.64820  1.0000 -0.5056849243
N   N5        1.0  0.64820  0.58700  0.68640  1.0000 -0.5056849243
N   N6        1.0  0.07840  0.68640  0.58700  1.0000 -0.5056849243
N   N7        1.0  0.68640  0.07840  0.64820  1.0000 -0.5056849243
N   N8        1.0  0.58700  0.64820  0.07840  1.0000 -0.5056849243
N   N9        1.0  0.58700  0.68640  0.64820  1.0000 -0.5056849243
N   N10       1.0  0.68640  0.58700  0.07840  1.0000 -0.5056849243
N   N11       1.0  0.07840  0.64820  0.68640  1.0000 -0.5056849243
N   N12       1.0  0.64820  0.07840  0.58700  1.0000 -0.5056849243
N   N13       1.0  0.31360  0.92160  0.41300  1.0000 -0.5056849243
N   N14       1.0  0.41300  0.35180  0.31360  1.0000 -0.5056849243
N   N15       1.0  0.35180  0.41300  0.92160  1.0000 -0.5056849243
N   N16       1.0  0.92160  0.31360  0.35180  1.0000 -0.5056849243
N   N17       1.0  0.35180  0.92160  0.31360  1.0000 -0.5056849243
N   N18       1.0  0.92160  0.35180  0.41300  1.0000 -0.5038387382
N   N19       1.0  0.31360  0.41300  0.35180  1.0000 -0.5056849243
N   N20       1.0  0.41300  0.31360  0.92160  1.0000 -0.5056849243
N   N21       1.0  0.41300  0.92160  0.35180  1.0000 -0.5038387382
N   N22       1.0  0.31360  0.35180  0.92160  1.0000 -0.5056849243
N   N23       1.0  0.92160  0.41300  0.31360  1.0000 -0.5056849243
N   N24       1.0  0.35180  0.31360  0.41300  1.0000 -0.5056849243
O   O1        1.0  0.82350  0.83150  0.40170  1.0000 -0.5807368014
O   O2        1.0  0.78010  0.81470  0.49870  1.0000 -0.556720826
O   O3        1.0  0.76765  0.77125  0.30255  1.0000 -0.5364881783
O   O4        1.0  0.69170  0.73510  0.35410  1.0000 -0.5703966274
O   O5        1.0  0.61830  0.74330  0.55850  1.0000 -0.2252101117
O   O6        1.0  0.40170  0.94330  0.82350  1.0000 -0.5807368014
O   O7        1.0  0.49870  0.90650  0.78010  1.0000 -0.556720826
O   O8        1.0  0.30255  0.15855  0.76765  1.0000 -0.5364881783
O   O9        1.0  0.35410  0.21910  0.69170  1.0000 -0.5703966274
O   O10       1.0  0.55850  0.07990  0.61830  1.0000 -0.2242758179
O   O11       1.0  0.83150  0.82350  0.94330  1.0000 -0.5807368014
O   O12       1.0  0.81470  0.78010  0.90650  1.0000 -0.556720826
O   O13       1.0  0.77125  0.76765  0.15855  1.0000 -0.5364881783
O   O14       1.0  0.73510  0.69170  0.21910  1.0000 -0.5703966274
O   O15       1.0  0.74330  0.61830  0.07990  1.0000 -0.2242758179
O   O16       1.0  0.94330  0.40170  0.83150  1.0000 -0.5807368014
O   O17       1.0  0.90650  0.49870  0.81470  1.0000 -0.556720826
O   O18       1.0  0.15855  0.30255  0.77125  1.0000 -0.5364881783
O   O19       1.0  0.21910  0.35410  0.73510  1.0000 -0.5703966274
O   O20       1.0  0.07990  0.55850  0.74330  1.0000 -0.2242758179
O   O21       1.0  0.83150  0.40170  0.82350  1.0000 -0.5807368014
O   O22       1.0  0.81470  0.49870  0.78010  1.0000 -0.556720826
O   O23       1.0  0.77125  0.30255  0.76765  1.0000 -0.5364881783
O   O24       1.0  0.73510  0.35410  0.69170  1.0000 -0.5703966274
O   O25       1.0  0.74330  0.55850  0.61830  1.0000 -0.2242758179
O   O26       1.0  0.94330  0.82350  0.40170  1.0000 -0.5807368014
O   O27       1.0  0.90650  0.78010  0.49870  1.0000 -0.556720826
O   O28       1.0  0.15855  0.76765  0.30255  1.0000 -0.5364881783
O   O29       1.0  0.21910  0.69170  0.35410  1.0000 -0.5703966274
O   O30       1.0  0.07990  0.61830  0.55850  1.0000 -0.2242758179
O   O31       1.0  0.82350  0.94330  0.83150  1.0000 -0.5807368014
O   O32       1.0  0.78010  0.90650  0.81470  1.0000 -0.556720826
O   O33       1.0  0.76765  0.15855  0.77125  1.0000 -0.5364881783
O   O34       1.0  0.69170  0.21910  0.73510  1.0000 -0.5703966274
O   O35       1.0  0.61830  0.07990  0.74330  1.0000 -0.2242758179
O   O36       1.0  0.40170  0.83150  0.94330  1.0000 -0.5807368014
O   O37       1.0  0.49870  0.81470  0.90650  1.0000 -0.556720826
O   O38       1.0  0.30255  0.77125  0.15855  1.0000 -0.5364881783
O   O39       1.0  0.35410  0.73510  0.21910  1.0000 -0.5703966274
O   O40       1.0  0.55850  0.74330  0.07990  1.0000 -0.2242758179
O   O41       1.0  0.40170  0.82350  0.83150  1.0000 -0.5807368014
O   O42       1.0  0.49870  0.78010  0.81470  1.0000 -0.556720826
O   O43       1.0  0.30255  0.76765  0.77125  1.0000 -0.5364881783
O   O44       1.0  0.35410  0.69170  0.73510  1.0000 -0.5703966274
O   O45       1.0  0.55850  0.61830  0.74330  1.0000 -0.2242758179
O   O46       1.0  0.82350  0.40170  0.94330  1.0000 -0.5807368014
O   O47       1.0  0.78010  0.49870  0.90650  1.0000 -0.556720826
O   O48       1.0  0.76765  0.30255  0.15855  1.0000 -0.5364881783
O   O49       1.0  0.69170  0.35410  0.21910  1.0000 -0.5703966274
O   O50       1.0  0.61830  0.55850  0.07990  1.0000 -0.2242758179
O   O51       1.0  0.94330  0.83150  0.82350  1.0000 -0.5807368014
O   O52       1.0  0.90650  0.81470  0.78010  1.0000 -0.556720826
O   O53       1.0  0.15855  0.77125  0.76765  1.0000 -0.5364881783
O   O54       1.0  0.21910  0.73510  0.69170  1.0000 -0.5703966274
O   O55       1.0  0.07990  0.74330  0.61830  1.0000 -0.2242758179
O   O56       1.0  0.83150  0.94330  0.40170  1.0000 -0.5807368014
O   O57       1.0  0.81470  0.90650  0.49870  1.0000 -0.556720826
O   O58       1.0  0.77125  0.15855  0.30255  1.0000 -0.5364881783
O   O59       1.0  0.73510  0.21910  0.35410  1.0000 -0.5703966274
O   O60       1.0  0.74330  0.07990  0.55850  1.0000 -0.2252101117
O   O61       1.0  0.17650  0.05670  0.59830  1.0000 -0.5807368014
O   O62       1.0  0.21990  0.09350  0.50130  1.0000 -0.556720826
O   O63       1.0  0.23235  0.84145  0.69745  1.0000 -0.5364881783
O   O64       1.0  0.30830  0.78090  0.64590  1.0000 -0.5703966274
O   O65       1.0  0.38170  0.92010  0.44150  1.0000 -0.2242758179
O   O66       1.0  0.59830  0.16850  0.17650  1.0000 -0.5807368014
O   O67       1.0  0.50130  0.18530  0.21990  1.0000 -0.556720826
O   O68       1.0  0.69745  0.22875  0.23235  1.0000 -0.5364881783
O   O69       1.0  0.64590  0.26490  0.30830  1.0000 -0.5703966274
O   O70       1.0  0.44150  0.25670  0.38170  1.0000 -0.2242758179
O   O71       1.0  0.16850  0.59830  0.05670  1.0000 -0.5807368014
O   O72       1.0  0.18530  0.50130  0.09350  1.0000 -0.556720826
O   O73       1.0  0.22875  0.69745  0.84145  1.0000 -0.5364881783
O   O74       1.0  0.26490  0.64590  0.78090  1.0000 -0.5703966274
O   O75       1.0  0.25670  0.44150  0.92010  1.0000 -0.2242758179
O   O76       1.0  0.05670  0.17650  0.16850  1.0000 -0.5807368014
O   O77       1.0  0.09350  0.21990  0.18530  1.0000 -0.556720826
O   O78       1.0  0.84145  0.23235  0.22875  1.0000 -0.5364881783
O   O79       1.0  0.78090  0.30830  0.26490  1.0000 -0.5703966274
O   O80       1.0  0.92010  0.38170  0.25670  1.0000 -0.2252101117
O   O81       1.0  0.16850  0.05670  0.17650  1.0000 -0.5807368014
O   O82       1.0  0.18530  0.09350  0.21990  1.0000 -0.556720826
O   O83       1.0  0.22875  0.84145  0.23235  1.0000 -0.5364881783
O   O84       1.0  0.26490  0.78090  0.30830  1.0000 -0.5703966274
O   O85       1.0  0.25670  0.92010  0.38170  1.0000 -0.2242758179
O   O86       1.0  0.05670  0.16850  0.59830  1.0000 -0.5807368014
O   O87       1.0  0.09350  0.18530  0.50130  1.0000 -0.556720826
O   O88       1.0  0.84145  0.22875  0.69745  1.0000 -0.5364881783
O   O89       1.0  0.78090  0.26490  0.64590  1.0000 -0.5703966274
O   O90       1.0  0.92010  0.25670  0.44150  1.0000 -0.2252101117
O   O91       1.0  0.17650  0.59830  0.16850  1.0000 -0.5807368014
O   O92       1.0  0.21990  0.50130  0.18530  1.0000 -0.556720826
O   O93       1.0  0.23235  0.69745  0.22875  1.0000 -0.5364881783
O   O94       1.0  0.30830  0.64590  0.26490  1.0000 -0.5703966274
O   O95       1.0  0.38170  0.44150  0.25670  1.0000 -0.2242758179
O   O96       1.0  0.59830  0.17650  0.05670  1.0000 -0.5807368014
O   O97       1.0  0.50130  0.21990  0.09350  1.0000 -0.556720826
O   O98       1.0  0.69745  0.23235  0.84145  1.0000 -0.5364881783
O   O99       1.0  0.64590  0.30830  0.78090  1.0000 -0.5703966274
O   O100      1.0  0.44150  0.38170  0.92010  1.0000 -0.2242758179
O   O101      1.0  0.59830  0.05670  0.16850  1.0000 -0.5807368014
O   O102      1.0  0.50130  0.09350  0.18530  1.0000 -0.556720826
O   O103      1.0  0.69745  0.84145  0.22875  1.0000 -0.5364881783
O   O104      1.0  0.64590  0.78090  0.26490  1.0000 -0.5703966274
O   O105      1.0  0.44150  0.92010  0.25670  1.0000 -0.2242758179
O   O106      1.0  0.17650  0.16850  0.05670  1.0000 -0.5807368014
O   O107      1.0  0.21990  0.18530  0.09350  1.0000 -0.556720826
O   O108      1.0  0.23235  0.22875  0.84145  1.0000 -0.5364881783
O   O109      1.0  0.30830  0.26490  0.78090  1.0000 -0.5703966274
O   O110      1.0  0.38170  0.25670  0.92010  1.0000 -0.2242758179
O   O111      1.0  0.05670  0.59830  0.17650  1.0000 -0.5807368014
O   O112      1.0  0.09350  0.50130  0.21990  1.0000 -0.556720826
O   O113      1.0  0.84145  0.69745  0.23235  1.0000 -0.5364881783
O   O114      1.0  0.78090  0.64590  0.30830  1.0000 -0.5703966274
O   O115      1.0  0.92010  0.44150  0.38170  1.0000 -0.2252101117
O   O116      1.0  0.16850  0.17650  0.59830  1.0000 -0.5807368014
O   O117      1.0  0.18530  0.21990  0.50130  1.0000 -0.556720826
O   O118      1.0  0.22875  0.23235  0.69745  1.0000 -0.5364881783
O   O119      1.0  0.26490  0.30830  0.64590  1.0000 -0.5703966274
O   O120      1.0  0.25670  0.38170  0.44150  1.0000 -0.2242758179
