# DDEC6 charges by PACMAN v1.1 (https://github.com/mtap-research/PACMAN-charge/)
data_2018[Zn][nan]3[ASR]14
_chemical_formula_sum              "Zn24 H96 C240 N84 O120"
_cell_length_a       24.1975
_cell_length_b       24.1975
_cell_length_c       24.1975
_cell_angle_alpha    109.471
_cell_angle_beta     109.471
_cell_angle_gamma    109.471

_symmetry_space_group_name_H-M    "P 1"
_symmetry_Int_Tables_number       1

loop_
  _symmetry_equiv_pos_as_xyz
  'x, y, z'

loop_
  _atom_site_type_symbol
  _atom_site_label
  _atom_site_symmetry_multiplicity
  _atom_site_fract_x
  _atom_site_fract_y
  _atom_site_fract_z
  _atom_site_occupancy
  _atom_site_charge
Zn  Zn1       1.0  0.80161  0.19839  0.00000  1.0000 0.9631823
Zn  Zn2       1.0  0.72648  0.27352  0.00000  1.0000 0.8526799725
Zn  Zn3       1.0  0.80161  0.80161  0.60322  1.0000 0.9631823
Zn  Zn4       1.0  0.72648  0.72648  0.45296  1.0000 0.8526799725
Zn  Zn5       1.0  0.19839  0.19839  0.39678  1.0000 0.9631823
Zn  Zn6       1.0  0.27352  0.27352  0.54704  1.0000 0.8526799725
Zn  Zn7       1.0  0.19839  0.80161  0.00000  1.0000 0.9631823
Zn  Zn8       1.0  0.27352  0.72648  0.00000  1.0000 0.8526799725
Zn  Zn9       1.0  0.60322  0.80161  0.80161  1.0000 0.9631823
Zn  Zn10      1.0  0.45296  0.72648  0.72648  1.0000 0.8526799725
Zn  Zn11      1.0  1.00000  0.80161  0.19839  1.0000 0.9631823
Zn  Zn12      1.0  0.00000  0.72648  0.27352  1.0000 0.8526799725
Zn  Zn13      1.0  1.00000  0.19839  0.80161  1.0000 0.9631823
Zn  Zn14      1.0  0.00000  0.27352  0.72648  1.0000 0.8526799725
Zn  Zn15      1.0  0.39678  0.19839  0.19839  1.0000 0.9631823
Zn  Zn16      1.0  0.54704  0.27352  0.27352  1.0000 0.8526799725
Zn  Zn17      1.0  0.80161  0.00000  0.19839  1.0000 0.9631823
Zn  Zn18      1.0  0.72648  0.00000  0.27352  1.0000 0.8526799725
Zn  Zn19      1.0  0.19839  0.39678  0.19839  1.0000 0.9631823
Zn  Zn20      1.0  0.27352  0.54704  0.27352  1.0000 0.8526799725
Zn  Zn21      1.0  0.80161  0.60322  0.80161  1.0000 0.9631823
Zn  Zn22      1.0  0.72648  0.45296  0.72648  1.0000 0.8526799725
Zn  Zn23      1.0  0.19839  0.00000  0.80161  1.0000 0.9631823
Zn  Zn24      1.0  0.27352  0.00000  0.72648  1.0000 0.8526799725
H   H1        1.0  0.52940  0.10150  0.83930  1.0000 0.1502652419
H   H2        1.0  0.73780  0.89850  0.42790  1.0000 0.1502652419
H   H3        1.0  0.47060  0.30990  0.57210  1.0000 0.1502652419
H   H4        1.0  0.26220  0.69010  0.16070  1.0000 0.1502652419
H   H5        1.0  0.42790  0.73780  0.89850  1.0000 0.1502652419
H   H6        1.0  0.83930  0.52940  0.10150  1.0000 0.1502652419
H   H7        1.0  0.16070  0.26220  0.69010  1.0000 0.1502652419
H   H8        1.0  0.57210  0.47060  0.30990  1.0000 0.1502652419
H   H9        1.0  0.69010  0.16070  0.26220  1.0000 0.1502652419
H   H10       1.0  0.30990  0.57210  0.47060  1.0000 0.1502652419
H   H11       1.0  0.89850  0.42790  0.73780  1.0000 0.1502652419
H   H12       1.0  0.10150  0.83930  0.52940  1.0000 0.1502652419
H   H13       1.0  0.16070  0.89850  0.47060  1.0000 0.1502652419
H   H14       1.0  0.57210  0.10150  0.26220  1.0000 0.1502652419
H   H15       1.0  0.42790  0.69010  0.52940  1.0000 0.1502652419
H   H16       1.0  0.83930  0.30990  0.73780  1.0000 0.1502652419
H   H17       1.0  0.10150  0.26220  0.57210  1.0000 0.1502652419
H   H18       1.0  0.89850  0.47060  0.16070  1.0000 0.1502652419
H   H19       1.0  0.30990  0.73780  0.83930  1.0000 0.1502652419
H   H20       1.0  0.69010  0.52940  0.42790  1.0000 0.1502652419
H   H21       1.0  0.73780  0.83930  0.30990  1.0000 0.1502652419
H   H22       1.0  0.52940  0.42790  0.69010  1.0000 0.1502652419
H   H23       1.0  0.26220  0.57210  0.10150  1.0000 0.1502652419
H   H24       1.0  0.47060  0.16070  0.89850  1.0000 0.1502652419
H   H25       1.0  0.47060  0.89850  0.16070  1.0000 0.1502652419
H   H26       1.0  0.26220  0.10150  0.57210  1.0000 0.1502652419
H   H27       1.0  0.52940  0.69010  0.42790  1.0000 0.1502652419
H   H28       1.0  0.73780  0.30990  0.83930  1.0000 0.1502652419
H   H29       1.0  0.57210  0.26220  0.10150  1.0000 0.1502652419
H   H30       1.0  0.16070  0.47060  0.89850  1.0000 0.1502652419
H   H31       1.0  0.83930  0.73780  0.30990  1.0000 0.1502652419
H   H32       1.0  0.42790  0.52940  0.69010  1.0000 0.1502652419
H   H33       1.0  0.30990  0.83930  0.73780  1.0000 0.1502652419
H   H34       1.0  0.69010  0.42790  0.52940  1.0000 0.1502652419
H   H35       1.0  0.10150  0.57210  0.26220  1.0000 0.1502652419
H   H36       1.0  0.89850  0.16070  0.47060  1.0000 0.1502652419
H   H37       1.0  0.83930  0.10150  0.52940  1.0000 0.1502652419
H   H38       1.0  0.42790  0.89850  0.73780  1.0000 0.1502652419
H   H39       1.0  0.57210  0.30990  0.47060  1.0000 0.1502652419
H   H40       1.0  0.16070  0.69010  0.26220  1.0000 0.1502652419
H   H41       1.0  0.89850  0.73780  0.42790  1.0000 0.1502652419
H   H42       1.0  0.10150  0.52940  0.83930  1.0000 0.1502652419
H   H43       1.0  0.69010  0.26220  0.16070  1.0000 0.1502652419
H   H44       1.0  0.30990  0.47060  0.57210  1.0000 0.1502652419
H   H45       1.0  0.26220  0.16070  0.69010  1.0000 0.1502652419
H   H46       1.0  0.47060  0.57210  0.30990  1.0000 0.1502652419
H   H47       1.0  0.73780  0.42790  0.89850  1.0000 0.1502652419
H   H48       1.0  0.52940  0.83930  0.10150  1.0000 0.1502652419
H   H49       1.0  0.63000  0.00000  0.86360  1.0000 0.1502652419
H   H50       1.0  0.38520  0.00000  0.77420  1.0000 0.3155956669
H   H51       1.0  0.86360  0.00000  0.63000  1.0000 0.1502652419
H   H52       1.0  0.77420  0.00000  0.38520  1.0000 0.3155956669
H   H53       1.0  0.37000  0.23360  0.37000  1.0000 0.1502652419
H   H54       1.0  0.61480  0.38900  0.61480  1.0000 0.3155956669
H   H55       1.0  0.13640  0.76640  0.13640  1.0000 0.1502652419
H   H56       1.0  0.22580  0.61100  0.22580  1.0000 0.3155956669
H   H57       1.0  0.63000  0.86360  0.00000  1.0000 0.1502652419
H   H58       1.0  0.38520  0.77420  0.00000  1.0000 0.3155956669
H   H59       1.0  0.86360  0.63000  0.00000  1.0000 0.1502652419
H   H60       1.0  0.77420  0.38520  0.00000  1.0000 0.3155956669
H   H61       1.0  0.13640  0.13640  0.76640  1.0000 0.1502652419
H   H62       1.0  0.22580  0.22580  0.61100  1.0000 0.3155956669
H   H63       1.0  0.37000  0.37000  0.23360  1.0000 0.1502652419
H   H64       1.0  0.61480  0.61480  0.38900  1.0000 0.3155956669
H   H65       1.0  0.76640  0.13640  0.13640  1.0000 0.1502652419
H   H66       1.0  0.61100  0.22580  0.22580  1.0000 0.3155956669
H   H67       1.0  0.23360  0.37000  0.37000  1.0000 0.1502652419
H   H68       1.0  0.38900  0.61480  0.61480  1.0000 0.314716751
H   H69       1.0  0.00000  0.63000  0.86360  1.0000 0.1502652419
H   H70       1.0  0.00000  0.38520  0.77420  1.0000 0.3155956669
H   H71       1.0  0.00000  0.86360  0.63000  1.0000 0.1502652419
H   H72       1.0  0.00000  0.77420  0.38520  1.0000 0.3155956669
H   H73       1.0  0.13640  0.00000  0.37000  1.0000 0.1502652419
H   H74       1.0  0.22580  0.00000  0.61480  1.0000 0.3155956669
H   H75       1.0  0.37000  0.00000  0.13640  1.0000 0.1502652419
H   H76       1.0  0.61480  0.00000  0.22580  1.0000 0.3155956669
H   H77       1.0  0.63000  0.76640  0.63000  1.0000 0.1502652419
H   H78       1.0  0.38520  0.61100  0.38520  1.0000 0.3155956669
H   H79       1.0  0.86360  0.23360  0.86360  1.0000 0.1502652419
H   H80       1.0  0.77420  0.38900  0.77420  1.0000 0.3155956669
H   H81       1.0  1.00000  0.13640  0.37000  1.0000 0.1502652419
H   H82       1.0  0.00000  0.22580  0.61480  1.0000 0.3155956669
H   H83       1.0  0.00000  0.37000  0.13640  1.0000 0.1502652419
H   H84       1.0  0.00000  0.61480  0.22580  1.0000 0.3155956669
H   H85       1.0  0.23360  0.86360  0.86360  1.0000 0.1502652419
H   H86       1.0  0.38900  0.77420  0.77420  1.0000 0.3155956669
H   H87       1.0  0.76640  0.63000  0.63000  1.0000 0.1502652419
H   H88       1.0  0.61100  0.38520  0.38520  1.0000 0.3155956669
H   H89       1.0  0.86360  0.86360  0.23360  1.0000 0.1502652419
H   H90       1.0  0.77420  0.77420  0.38900  1.0000 0.3155956669
H   H91       1.0  0.63000  0.63000  0.76640  1.0000 0.1502652419
H   H92       1.0  0.38520  0.38520  0.61100  1.0000 0.3155956669
H   H93       1.0  0.13640  0.37000  0.00000  1.0000 0.1502652419
H   H94       1.0  0.22580  0.61480  0.00000  1.0000 0.3155956669
H   H95       1.0  0.37000  0.13640  0.00000  1.0000 0.1502652419
H   H96       1.0  0.61480  0.22580  0.00000  1.0000 0.3155956669
C   C1        1.0  0.65340  0.12580  0.91000  1.0000 0.6030716755
C   C2        1.0  0.58930  0.06070  0.85900  1.0000 -0.001975856
C   C3        1.0  0.52930  0.05990  0.82860  1.0000 -0.1614622845
C   C4        1.0  0.78420  0.87420  0.52760  1.0000 0.6030716755
C   C5        1.0  0.79830  0.93930  0.52860  1.0000 -0.001975856
C   C6        1.0  0.76870  0.94010  0.46940  1.0000 -0.1614622845
C   C7        1.0  0.34660  0.25660  0.47240  1.0000 0.6030716755
C   C8        1.0  0.41070  0.26970  0.47140  1.0000 -0.001975856
C   C9        1.0  0.47070  0.29930  0.53060  1.0000 -0.1614622845
C   C10       1.0  0.21580  0.74340  0.09000  1.0000 0.6030716755
C   C11       1.0  0.20170  0.73030  0.14100  1.0000 -0.001975856
C   C12       1.0  0.23130  0.70070  0.17140  1.0000 -0.1614622845
C   C13       1.0  0.52760  0.78420  0.87420  1.0000 0.6030716755
C   C14       1.0  0.52860  0.79830  0.93930  1.0000 -0.001975856
C   C15       1.0  0.46940  0.76870  0.94010  1.0000 -0.1614622845
C   C16       1.0  0.91000  0.65340  0.12580  1.0000 0.6030716755
C   C17       1.0  0.85900  0.58930  0.06070  1.0000 -0.001975856
C   C18       1.0  0.82860  0.52930  0.05990  1.0000 -0.1614622845
C   C19       1.0  0.09000  0.21580  0.74340  1.0000 0.6030716755
C   C20       1.0  0.14100  0.20170  0.73030  1.0000 -0.001975856
C   C21       1.0  0.17140  0.23130  0.70070  1.0000 -0.1614622845
C   C22       1.0  0.47240  0.34660  0.25660  1.0000 0.6030716755
C   C23       1.0  0.47140  0.41070  0.26970  1.0000 -0.001975856
C   C24       1.0  0.53060  0.47070  0.29930  1.0000 -0.1614622845
C   C25       1.0  0.74340  0.09000  0.21580  1.0000 0.6030716755
C   C26       1.0  0.73030  0.14100  0.20170  1.0000 -0.001975856
C   C27       1.0  0.70070  0.17140  0.23130  1.0000 -0.1614622845
C   C28       1.0  0.25660  0.47240  0.34660  1.0000 0.6030716755
C   C29       1.0  0.26970  0.47140  0.41070  1.0000 -0.001975856
C   C30       1.0  0.29930  0.53060  0.47070  1.0000 -0.1614622845
C   C31       1.0  0.87420  0.52760  0.78420  1.0000 0.6030716755
C   C32       1.0  0.93930  0.52860  0.79830  1.0000 -0.001975856
C   C33       1.0  0.94010  0.46940  0.76870  1.0000 -0.1614622845
C   C34       1.0  0.12580  0.91000  0.65340  1.0000 0.6030716755
C   C35       1.0  0.06070  0.85900  0.58930  1.0000 -0.001975856
C   C36       1.0  0.05990  0.82860  0.52930  1.0000 -0.1614622845
C   C37       1.0  0.09000  0.87420  0.34660  1.0000 0.6030716755
C   C38       1.0  0.14100  0.93930  0.41070  1.0000 -0.001975856
C   C39       1.0  0.17140  0.94010  0.47070  1.0000 -0.1614622845
C   C40       1.0  0.47240  0.12580  0.21580  1.0000 0.6030716755
C   C41       1.0  0.47140  0.06070  0.20170  1.0000 -0.001975856
C   C42       1.0  0.53060  0.05990  0.23130  1.0000 -0.1614622845
C   C43       1.0  0.52760  0.74340  0.65340  1.0000 0.6030716755
C   C44       1.0  0.52860  0.73030  0.58930  1.0000 -0.001975856
C   C45       1.0  0.46940  0.70070  0.52930  1.0000 -0.1614622845
C   C46       1.0  0.91000  0.25660  0.78420  1.0000 0.6030716755
C   C47       1.0  0.85900  0.26970  0.79830  1.0000 -0.001975856
C   C48       1.0  0.82860  0.29930  0.76870  1.0000 -0.1614622845
C   C49       1.0  0.12580  0.21580  0.47240  1.0000 0.6030716755
C   C50       1.0  0.06070  0.20170  0.47140  1.0000 -0.001975856
C   C51       1.0  0.05990  0.23130  0.53060  1.0000 -0.1614622845
C   C52       1.0  0.87420  0.34660  0.09000  1.0000 0.6030716755
C   C53       1.0  0.93930  0.41070  0.14100  1.0000 -0.001975856
C   C54       1.0  0.94010  0.47070  0.17140  1.0000 -0.1614622845
C   C55       1.0  0.25660  0.78420  0.91000  1.0000 0.6030716755
C   C56       1.0  0.26970  0.79830  0.85900  1.0000 -0.001975856
C   C57       1.0  0.29930  0.76870  0.82860  1.0000 -0.1614622845
C   C58       1.0  0.74340  0.65340  0.52760  1.0000 0.6030716755
C   C59       1.0  0.73030  0.58930  0.52860  1.0000 -0.001975856
C   C60       1.0  0.70070  0.52930  0.46940  1.0000 -0.1614622845
C   C61       1.0  0.78420  0.91000  0.25660  1.0000 0.6030716755
C   C62       1.0  0.79830  0.85900  0.26970  1.0000 -0.001975856
C   C63       1.0  0.76870  0.82860  0.29930  1.0000 -0.1614622845
C   C64       1.0  0.65340  0.52760  0.74340  1.0000 0.6030716755
C   C65       1.0  0.58930  0.52860  0.73030  1.0000 -0.001975856
C   C66       1.0  0.52930  0.46940  0.70070  1.0000 -0.1614622845
C   C67       1.0  0.21580  0.47240  0.12580  1.0000 0.6030716755
C   C68       1.0  0.20170  0.47140  0.06070  1.0000 -0.001975856
C   C69       1.0  0.23130  0.53060  0.05990  1.0000 -0.1614622845
C   C70       1.0  0.34660  0.09000  0.87420  1.0000 0.6030716755
C   C71       1.0  0.41070  0.14100  0.93930  1.0000 -0.001975856
C   C72       1.0  0.47070  0.17140  0.94010  1.0000 -0.1614622845
C   C73       1.0  0.34660  0.87420  0.09000  1.0000 0.6030716755
C   C74       1.0  0.41070  0.93930  0.14100  1.0000 -0.001975856
C   C75       1.0  0.47070  0.94010  0.17140  1.0000 -0.1614622845
C   C76       1.0  0.21580  0.12580  0.47240  1.0000 0.6030716755
C   C77       1.0  0.20170  0.06070  0.47140  1.0000 -0.001975856
C   C78       1.0  0.23130  0.05990  0.53060  1.0000 -0.1614622845
C   C79       1.0  0.65340  0.74340  0.52760  1.0000 0.6030716755
C   C80       1.0  0.58930  0.73030  0.52860  1.0000 -0.001975856
C   C81       1.0  0.52930  0.70070  0.46940  1.0000 -0.1614622845
C   C82       1.0  0.78420  0.25660  0.91000  1.0000 0.6030716755
C   C83       1.0  0.79830  0.26970  0.85900  1.0000 -0.001975856
C   C84       1.0  0.76870  0.29930  0.82860  1.0000 -0.1614622845
C   C85       1.0  0.47240  0.21580  0.12580  1.0000 0.6030716755
C   C86       1.0  0.47140  0.20170  0.06070  1.0000 -0.001975856
C   C87       1.0  0.53060  0.23130  0.05990  1.0000 -0.1614622845
C   C88       1.0  0.09000  0.34660  0.87420  1.0000 0.6030716755
C   C89       1.0  0.14100  0.41070  0.93930  1.0000 -0.001975856
C   C90       1.0  0.17140  0.47070  0.94010  1.0000 -0.1614622845
C   C91       1.0  0.91000  0.78420  0.25660  1.0000 0.6030716755
C   C92       1.0  0.85900  0.79830  0.26970  1.0000 -0.001975856
C   C93       1.0  0.82860  0.76870  0.29930  1.0000 -0.1614622845
C   C94       1.0  0.52760  0.65340  0.74340  1.0000 0.6030716755
C   C95       1.0  0.52860  0.58930  0.73030  1.0000 -0.001975856
C   C96       1.0  0.46940  0.52930  0.70070  1.0000 -0.1614622845
C   C97       1.0  0.25660  0.91000  0.78420  1.0000 0.6030716755
C   C98       1.0  0.26970  0.85900  0.79830  1.0000 -0.001975856
C   C99       1.0  0.29930  0.82860  0.76870  1.0000 -0.1614622845
C   C100      1.0  0.74340  0.52760  0.65340  1.0000 0.6030716755
C   C101      1.0  0.73030  0.52860  0.58930  1.0000 -0.001975856
C   C102      1.0  0.70070  0.46940  0.52930  1.0000 -0.1614622845
C   C103      1.0  0.12580  0.47240  0.21580  1.0000 0.6030716755
C   C104      1.0  0.06070  0.47140  0.20170  1.0000 -0.001975856
C   C105      1.0  0.05990  0.53060  0.23130  1.0000 -0.1614622845
C   C106      1.0  0.87420  0.09000  0.34660  1.0000 0.6030716755
C   C107      1.0  0.93930  0.14100  0.41070  1.0000 -0.001975856
C   C108      1.0  0.94010  0.17140  0.47070  1.0000 -0.1614622845
C   C109      1.0  0.91000  0.12580  0.65340  1.0000 0.6030716755
C   C110      1.0  0.85900  0.06070  0.58930  1.0000 -0.001975856
C   C111      1.0  0.82860  0.05990  0.52930  1.0000 -0.1614622845
C   C112      1.0  0.52760  0.87420  0.78420  1.0000 0.6030716755
C   C113      1.0  0.52860  0.93930  0.79830  1.0000 -0.001975856
C   C114      1.0  0.46940  0.94010  0.76870  1.0000 -0.1614622845
C   C115      1.0  0.47240  0.25660  0.34660  1.0000 0.6030716755
C   C116      1.0  0.47140  0.26970  0.41070  1.0000 -0.001975856
C   C117      1.0  0.53060  0.29930  0.47070  1.0000 -0.1614622845
C   C118      1.0  0.09000  0.74340  0.21580  1.0000 0.6030716755
C   C119      1.0  0.14100  0.73030  0.20170  1.0000 -0.001975856
C   C120      1.0  0.17140  0.70070  0.23130  1.0000 -0.1614622845
C   C121      1.0  0.87420  0.78420  0.52760  1.0000 0.6030716755
C   C122      1.0  0.93930  0.79830  0.52860  1.0000 -0.001975856
C   C123      1.0  0.94010  0.76870  0.46940  1.0000 -0.1614622845
C   C124      1.0  0.12580  0.65340  0.91000  1.0000 0.6030716755
C   C125      1.0  0.06070  0.58930  0.85900  1.0000 -0.001975856
C   C126      1.0  0.05990  0.52930  0.82860  1.0000 -0.1614622845
C   C127      1.0  0.74340  0.21580  0.09000  1.0000 0.6030716755
C   C128      1.0  0.73030  0.20170  0.14100  1.0000 -0.001975856
C   C129      1.0  0.70070  0.23130  0.17140  1.0000 -0.1614622845
C   C130      1.0  0.25660  0.34660  0.47240  1.0000 0.6030716755
C   C131      1.0  0.26970  0.41070  0.47140  1.0000 -0.001975856
C   C132      1.0  0.29930  0.47070  0.53060  1.0000 -0.1614622845
C   C133      1.0  0.21580  0.09000  0.74340  1.0000 0.6030716755
C   C134      1.0  0.20170  0.14100  0.73030  1.0000 -0.001975856
C   C135      1.0  0.23130  0.17140  0.70070  1.0000 -0.1614622845
C   C136      1.0  0.34660  0.47240  0.25660  1.0000 0.6030716755
C   C137      1.0  0.41070  0.47140  0.26970  1.0000 -0.001975856
C   C138      1.0  0.47070  0.53060  0.29930  1.0000 -0.1614622845
C   C139      1.0  0.78420  0.52760  0.87420  1.0000 0.6030716755
C   C140      1.0  0.79830  0.52860  0.93930  1.0000 -0.001975856
C   C141      1.0  0.76870  0.46940  0.94010  1.0000 -0.1614622845
C   C142      1.0  0.65340  0.91000  0.12580  1.0000 0.6030716755
C   C143      1.0  0.58930  0.85900  0.06070  1.0000 -0.001975856
C   C144      1.0  0.52930  0.82860  0.05990  1.0000 -0.1614622845
C   C145      1.0  0.47000  0.00000  0.78340  1.0000 0.2046412456
C   C146      1.0  0.58900  0.00000  0.84340  1.0000 -0.1084540564
C   C147      1.0  0.38400  0.00000  0.69820  1.0000 0.4700759894
C   C148      1.0  0.78340  0.00000  0.47000  1.0000 0.2046412456
C   C149      1.0  0.84340  0.00000  0.58900  1.0000 -0.1084540564
C   C150      1.0  0.69820  0.00000  0.38400  1.0000 0.4700759894
C   C151      1.0  0.53000  0.31340  0.53000  1.0000 0.2046412456
C   C152      1.0  0.41100  0.25440  0.41100  1.0000 -0.1084540564
C   C153      1.0  0.61600  0.31420  0.61600  1.0000 0.4700759894
C   C154      1.0  0.21660  0.68660  0.21660  1.0000 0.2046412456
C   C155      1.0  0.15660  0.74560  0.15660  1.0000 -0.1084540564
C   C156      1.0  0.30180  0.68580  0.30180  1.0000 0.4700759894
C   C157      1.0  0.47000  0.78340  0.00000  1.0000 0.2046412456
C   C158      1.0  0.58900  0.84340  0.00000  1.0000 -0.1084540564
C   C159      1.0  0.38400  0.69820  0.00000  1.0000 0.4700759894
C   C160      1.0  0.78340  0.47000  0.00000  1.0000 0.2046412456
C   C161      1.0  0.84340  0.58900  0.00000  1.0000 -0.1084540564
C   C162      1.0  0.69820  0.38400  0.00000  1.0000 0.4700759894
C   C163      1.0  0.21660  0.21660  0.68660  1.0000 0.2046412456
C   C164      1.0  0.15660  0.15660  0.74560  1.0000 -0.1084540564
C   C165      1.0  0.30180  0.30180  0.68580  1.0000 0.4700759894
C   C166      1.0  0.53000  0.53000  0.31340  1.0000 0.2046412456
C   C167      1.0  0.41100  0.41100  0.25440  1.0000 -0.1084540564
C   C168      1.0  0.61600  0.61600  0.31420  1.0000 0.4700759894
C   C169      1.0  0.68660  0.21660  0.21660  1.0000 0.2046412456
C   C170      1.0  0.74560  0.15660  0.15660  1.0000 -0.1084540564
C   C171      1.0  0.68580  0.30180  0.30180  1.0000 0.4700759894
C   C172      1.0  0.31340  0.53000  0.53000  1.0000 0.2046412456
C   C173      1.0  0.25440  0.41100  0.41100  1.0000 -0.1084540564
C   C174      1.0  0.31420  0.61600  0.61600  1.0000 0.4700759894
C   C175      1.0  1.00000  0.47000  0.78340  1.0000 0.2046412456
C   C176      1.0  0.00000  0.58900  0.84340  1.0000 -0.1084540564
C   C177      1.0  0.00000  0.38400  0.69820  1.0000 0.4700759894
C   C178      1.0  0.00000  0.78340  0.47000  1.0000 0.2046412456
C   C179      1.0  0.00000  0.84340  0.58900  1.0000 -0.1084540564
C   C180      1.0  0.00000  0.69820  0.38400  1.0000 0.4700759894
C   C181      1.0  0.21660  0.00000  0.53000  1.0000 0.2046412456
C   C182      1.0  0.15660  0.00000  0.41100  1.0000 -0.1084540564
C   C183      1.0  0.30180  0.00000  0.61600  1.0000 0.4700759894
C   C184      1.0  0.53000  0.00000  0.21660  1.0000 0.2046412456
C   C185      1.0  0.41100  0.00000  0.15660  1.0000 -0.1084540564
C   C186      1.0  0.61600  0.00000  0.30180  1.0000 0.4700759894
C   C187      1.0  0.47000  0.68660  0.47000  1.0000 0.2046412456
C   C188      1.0  0.58900  0.74560  0.58900  1.0000 -0.1084540564
C   C189      1.0  0.38400  0.68580  0.38400  1.0000 0.4700759894
C   C190      1.0  0.78340  0.31340  0.78340  1.0000 0.2046412456
C   C191      1.0  0.84340  0.25440  0.84340  1.0000 -0.1084540564
C   C192      1.0  0.69820  0.31420  0.69820  1.0000 0.4700759894
C   C193      1.0  1.00000  0.21660  0.53000  1.0000 0.2046412456
C   C194      1.0  0.00000  0.15660  0.41100  1.0000 -0.1084540564
C   C195      1.0  0.00000  0.30180  0.61600  1.0000 0.4700759894
C   C196      1.0  1.00000  0.53000  0.21660  1.0000 0.2046412456
C   C197      1.0  0.00000  0.41100  0.15660  1.0000 -0.1084540564
C   C198      1.0  0.00000  0.61600  0.30180  1.0000 0.4700759894
C   C199      1.0  0.31340  0.78340  0.78340  1.0000 0.2046412456
C   C200      1.0  0.25440  0.84340  0.84340  1.0000 -0.1084540564
C   C201      1.0  0.31420  0.69820  0.69820  1.0000 0.4700759894
C   C202      1.0  0.68660  0.47000  0.47000  1.0000 0.2046412456
C   C203      1.0  0.74560  0.58900  0.58900  1.0000 -0.1084540564
C   C204      1.0  0.68580  0.38400  0.38400  1.0000 0.4700759894
C   C205      1.0  0.78340  0.78340  0.31340  1.0000 0.2046412456
C   C206      1.0  0.84340  0.84340  0.25440  1.0000 -0.1084540564
C   C207      1.0  0.69820  0.69820  0.31420  1.0000 0.4700759894
C   C208      1.0  0.47000  0.47000  0.68660  1.0000 0.2046412456
C   C209      1.0  0.58900  0.58900  0.74560  1.0000 -0.1084540564
C   C210      1.0  0.38400  0.38400  0.68580  1.0000 0.4700759894
C   C211      1.0  0.21660  0.53000  0.00000  1.0000 0.2046412456
C   C212      1.0  0.15660  0.41100  0.00000  1.0000 -0.1084540564
C   C213      1.0  0.30180  0.61600  0.00000  1.0000 0.4700759894
C   C214      1.0  0.53000  0.21660  0.00000  1.0000 0.2046412456
C   C215      1.0  0.41100  0.15660  0.00000  1.0000 -0.1084540564
C   C216      1.0  0.61600  0.30180  0.00000  1.0000 0.4700759894
C   C217      1.0  0.36880  0.95820  0.58940  1.0000 0.3629818344
C   C218      1.0  0.63120  0.04180  0.41060  1.0000 0.3629818344
C   C219      1.0  0.63120  0.22060  0.58940  1.0000 0.3629818344
C   C220      1.0  0.36880  0.77940  0.41060  1.0000 0.3629818344
C   C221      1.0  0.41060  0.63120  0.04180  1.0000 0.3629818344
C   C222      1.0  0.58940  0.36880  0.95820  1.0000 0.3629818344
C   C223      1.0  0.41060  0.36880  0.77940  1.0000 0.3629818344
C   C224      1.0  0.58940  0.63120  0.22060  1.0000 0.3629818344
C   C225      1.0  0.77940  0.41060  0.36880  1.0000 0.3629818344
C   C226      1.0  0.22060  0.58940  0.63120  1.0000 0.3629818344
C   C227      1.0  0.04180  0.41060  0.63120  1.0000 0.3629818344
C   C228      1.0  0.95820  0.58940  0.36880  1.0000 0.3629818344
C   C229      1.0  0.41060  0.04180  0.63120  1.0000 0.3629818344
C   C230      1.0  0.58940  0.95820  0.36880  1.0000 0.3629818344
C   C231      1.0  0.41060  0.77940  0.36880  1.0000 0.3629818344
C   C232      1.0  0.58940  0.22060  0.63120  1.0000 0.3629818344
C   C233      1.0  0.95820  0.36880  0.58940  1.0000 0.3629818344
C   C234      1.0  0.04180  0.63120  0.41060  1.0000 0.3629818344
C   C235      1.0  0.22060  0.63120  0.58940  1.0000 0.3629818344
C   C236      1.0  0.77940  0.36880  0.41060  1.0000 0.3629818344
C   C237      1.0  0.63120  0.58940  0.22060  1.0000 0.3629818344
C   C238      1.0  0.36880  0.41060  0.77940  1.0000 0.3629818344
C   C239      1.0  0.36880  0.58940  0.95820  1.0000 0.3629818344
C   C240      1.0  0.63120  0.41060  0.04180  1.0000 0.3629818344
N   N1        1.0  0.39990  0.96610  0.65060  1.0000 -0.1528244292
N   N2        1.0  0.68450  0.03390  0.43380  1.0000 -0.1528244292
N   N3        1.0  0.60010  0.25070  0.56620  1.0000 -0.1528244292
N   N4        1.0  0.31550  0.74930  0.34940  1.0000 -0.1528244292
N   N5        1.0  0.43380  0.68450  0.03390  1.0000 -0.1528244292
N   N6        1.0  0.65060  0.39990  0.96610  1.0000 -0.1528244292
N   N7        1.0  0.34940  0.31550  0.74930  1.0000 -0.1528244292
N   N8        1.0  0.56620  0.60010  0.25070  1.0000 -0.1528244292
N   N9        1.0  0.74930  0.34940  0.31550  1.0000 -0.1528244292
N   N10       1.0  0.25070  0.56620  0.60010  1.0000 -0.1528244292
N   N11       1.0  0.03390  0.43380  0.68450  1.0000 -0.1528244292
N   N12       1.0  0.96610  0.65060  0.39990  1.0000 -0.1614622845
N   N13       1.0  0.34940  0.03390  0.60010  1.0000 -0.1528244292
N   N14       1.0  0.56620  0.96610  0.31550  1.0000 -0.1528244292
N   N15       1.0  0.43380  0.74930  0.39990  1.0000 -0.1528244292
N   N16       1.0  0.65060  0.25070  0.68450  1.0000 -0.1528244292
N   N17       1.0  0.96610  0.31550  0.56620  1.0000 -0.1614622845
N   N18       1.0  0.03390  0.60010  0.34940  1.0000 -0.1528244292
N   N19       1.0  0.25070  0.68450  0.65060  1.0000 -0.1528244292
N   N20       1.0  0.74930  0.39990  0.43380  1.0000 -0.1528244292
N   N21       1.0  0.68450  0.65060  0.25070  1.0000 -0.1528244292
N   N22       1.0  0.39990  0.43380  0.74930  1.0000 -0.1528244292
N   N23       1.0  0.31550  0.56620  0.96610  1.0000 -0.1528244292
N   N24       1.0  0.60010  0.34940  0.03390  1.0000 -0.1528244292
N   N25       1.0  0.60010  0.03390  0.34940  1.0000 -0.1528244292
N   N26       1.0  0.31550  0.96610  0.56620  1.0000 -0.1528244292
N   N27       1.0  0.39990  0.74930  0.43380  1.0000 -0.1528244292
N   N28       1.0  0.68450  0.25070  0.65060  1.0000 -0.1528244292
N   N29       1.0  0.56620  0.31550  0.96610  1.0000 -0.1528244292
N   N30       1.0  0.34940  0.60010  0.03390  1.0000 -0.1528244292
N   N31       1.0  0.65060  0.68450  0.25070  1.0000 -0.1528244292
N   N32       1.0  0.43380  0.39990  0.74930  1.0000 -0.1528244292
N   N33       1.0  0.25070  0.65060  0.68450  1.0000 -0.1528244292
N   N34       1.0  0.74930  0.43380  0.39990  1.0000 -0.1528244292
N   N35       1.0  0.96610  0.56620  0.31550  1.0000 -0.1614622845
N   N36       1.0  0.03390  0.34940  0.60010  1.0000 -0.1528244292
N   N37       1.0  0.65060  0.96610  0.39990  1.0000 -0.1528244292
N   N38       1.0  0.43380  0.03390  0.68450  1.0000 -0.1528244292
N   N39       1.0  0.56620  0.25070  0.60010  1.0000 -0.1528244292
N   N40       1.0  0.34940  0.74930  0.31550  1.0000 -0.1528244292
N   N41       1.0  0.03390  0.68450  0.43380  1.0000 -0.1528244292
N   N42       1.0  0.96610  0.39990  0.65060  1.0000 -0.1614622845
N   N43       1.0  0.74930  0.31550  0.34940  1.0000 -0.1528244292
N   N44       1.0  0.25070  0.60010  0.56620  1.0000 -0.1528244292
N   N45       1.0  0.31550  0.34940  0.74930  1.0000 -0.1528244292
N   N46       1.0  0.60010  0.56620  0.25070  1.0000 -0.1528244292
N   N47       1.0  0.68450  0.43380  0.03390  1.0000 -0.1528244292
N   N48       1.0  0.39990  0.65060  0.96610  1.0000 -0.1528244292
N   N49       1.0  0.40831  0.00000  0.75289  1.0000 -0.3420373702
N   N50       1.0  0.75289  0.00000  0.40831  1.0000 -0.3420373702
N   N51       1.0  0.59169  0.34458  0.59169  1.0000 -0.3420373702
N   N52       1.0  0.24711  0.65542  0.24711  1.0000 -0.3420373702
N   N53       1.0  0.40831  0.75289  0.00000  1.0000 -0.3420373702
N   N54       1.0  0.75289  0.40831  0.00000  1.0000 -0.3420373702
N   N55       1.0  0.24711  0.24711  0.65542  1.0000 -0.3420373702
N   N56       1.0  0.59169  0.59169  0.34458  1.0000 -0.3420373702
N   N57       1.0  0.65542  0.24711  0.24711  1.0000 -0.3420373702
N   N58       1.0  0.34458  0.59169  0.59169  1.0000 -0.3420373702
N   N59       1.0  0.00000  0.40831  0.75289  1.0000 -0.3420373702
N   N60       1.0  1.00000  0.75289  0.40831  1.0000 -0.3420373702
N   N61       1.0  0.24711  0.00000  0.59169  1.0000 -0.3420373702
N   N62       1.0  0.59169  0.00000  0.24711  1.0000 -0.3420373702
N   N63       1.0  0.40831  0.65542  0.40831  1.0000 -0.3420373702
N   N64       1.0  0.75289  0.34458  0.75289  1.0000 -0.3420373702
N   N65       1.0  0.00000  0.24711  0.59169  1.0000 -0.3420373702
N   N66       1.0  0.00000  0.59169  0.24711  1.0000 -0.3420373702
N   N67       1.0  0.34458  0.75289  0.75289  1.0000 -0.3420373702
N   N68       1.0  0.65542  0.40831  0.40831  1.0000 -0.3420373702
N   N69       1.0  0.75289  0.75289  0.34458  1.0000 -0.3420373702
N   N70       1.0  0.40831  0.40831  0.65542  1.0000 -0.3420373702
N   N71       1.0  0.24711  0.59169  0.00000  1.0000 -0.3420373702
N   N72       1.0  0.59169  0.24711  0.00000  1.0000 -0.3420373702
N   N73       1.0  0.32470  0.00000  0.67530  1.0000 -0.5764352534
N   N74       1.0  0.67530  0.00000  0.32470  1.0000 -0.5764352534
N   N75       1.0  0.67530  0.35060  0.67530  1.0000 -0.5764352534
N   N76       1.0  0.32470  0.64940  0.32470  1.0000 -0.5764352534
N   N77       1.0  0.32470  0.67530  0.00000  1.0000 -0.5764352534
N   N78       1.0  0.67530  0.32470  0.00000  1.0000 -0.5764352534
N   N79       1.0  0.32470  0.32470  0.64940  1.0000 -0.5764352534
N   N80       1.0  0.67530  0.67530  0.35060  1.0000 -0.5764352534
N   N81       1.0  0.64940  0.32470  0.32470  1.0000 -0.5764352534
N   N82       1.0  0.35060  0.67530  0.67530  1.0000 -0.5764352534
N   N83       1.0  0.00000  0.32470  0.67530  1.0000 -0.5764352534
N   N84       1.0  0.00000  0.67530  0.32470  1.0000 -0.5764352534
O   O1        1.0  0.64956  0.17787  0.92929  1.0000 -0.5358631788
O   O2        1.0  0.70652  0.12300  0.92892  1.0000 -0.5196458304
O   O3        1.0  0.75142  0.82213  0.47169  1.0000 -0.5358631788
O   O4        1.0  0.80592  0.87700  0.58352  1.0000 -0.5196458304
O   O5        1.0  0.35044  0.27973  0.52831  1.0000 -0.5358631788
O   O6        1.0  0.29348  0.22240  0.41648  1.0000 -0.5196458304
O   O7        1.0  0.24858  0.72027  0.07071  1.0000 -0.5358631788
O   O8        1.0  0.19408  0.77760  0.07108  1.0000 -0.5196458304
O   O9        1.0  0.47169  0.75142  0.82213  1.0000 -0.5358631788
O   O10       1.0  0.58352  0.80592  0.87700  1.0000 -0.5196458304
O   O11       1.0  0.92929  0.64956  0.17787  1.0000 -0.5358631788
O   O12       1.0  0.92892  0.70652  0.12300  1.0000 -0.5196458304
O   O13       1.0  0.07071  0.24858  0.72027  1.0000 -0.5358631788
O   O14       1.0  0.07108  0.19408  0.77760  1.0000 -0.5196458304
O   O15       1.0  0.52831  0.35044  0.27973  1.0000 -0.5358631788
O   O16       1.0  0.41648  0.29348  0.22240  1.0000 -0.5196458304
O   O17       1.0  0.72027  0.07071  0.24858  1.0000 -0.5358631788
O   O18       1.0  0.77760  0.07108  0.19408  1.0000 -0.5196458304
O   O19       1.0  0.27973  0.52831  0.35044  1.0000 -0.5358631788
O   O20       1.0  0.22240  0.41648  0.29348  1.0000 -0.5196458304
O   O21       1.0  0.82213  0.47169  0.75142  1.0000 -0.5358631788
O   O22       1.0  0.87700  0.58352  0.80592  1.0000 -0.5196458304
O   O23       1.0  0.17787  0.92929  0.64956  1.0000 -0.5358631788
O   O24       1.0  0.12300  0.92892  0.70652  1.0000 -0.5196458304
O   O25       1.0  0.07071  0.82213  0.35044  1.0000 -0.5358631788
O   O26       1.0  0.07108  0.87700  0.29348  1.0000 -0.5196458304
O   O27       1.0  0.52831  0.17787  0.24858  1.0000 -0.5358631788
O   O28       1.0  0.41648  0.12300  0.19408  1.0000 -0.5196458304
O   O29       1.0  0.47169  0.72027  0.64956  1.0000 -0.5358631788
O   O30       1.0  0.58352  0.77760  0.70652  1.0000 -0.5196458304
O   O31       1.0  0.92929  0.27973  0.75142  1.0000 -0.5358631788
O   O32       1.0  0.92892  0.22240  0.80592  1.0000 -0.5196458304
O   O33       1.0  0.17787  0.24858  0.52831  1.0000 -0.5358631788
O   O34       1.0  0.12300  0.19408  0.41648  1.0000 -0.5196458304
O   O35       1.0  0.82213  0.35044  0.07071  1.0000 -0.5358631788
O   O36       1.0  0.87700  0.29348  0.07108  1.0000 -0.5196458304
O   O37       1.0  0.27973  0.75142  0.92929  1.0000 -0.5358631788
O   O38       1.0  0.22240  0.80592  0.92892  1.0000 -0.5196458304
O   O39       1.0  0.72027  0.64956  0.47169  1.0000 -0.5358631788
O   O40       1.0  0.77760  0.70652  0.58352  1.0000 -0.5196458304
O   O41       1.0  0.75142  0.92929  0.27973  1.0000 -0.5358631788
O   O42       1.0  0.80592  0.92892  0.22240  1.0000 -0.5196458304
O   O43       1.0  0.64956  0.47169  0.72027  1.0000 -0.5358631788
O   O44       1.0  0.70652  0.58352  0.77760  1.0000 -0.5196458304
O   O45       1.0  0.24858  0.52831  0.17787  1.0000 -0.5358631788
O   O46       1.0  0.19408  0.41648  0.12300  1.0000 -0.5196458304
O   O47       1.0  0.35044  0.07071  0.82213  1.0000 -0.5358631788
O   O48       1.0  0.29348  0.07108  0.87700  1.0000 -0.5196458304
O   O49       1.0  0.35044  0.82213  0.07071  1.0000 -0.5358631788
O   O50       1.0  0.29348  0.87700  0.07108  1.0000 -0.5196458304
O   O51       1.0  0.24858  0.17787  0.52831  1.0000 -0.5358631788
O   O52       1.0  0.19408  0.12300  0.41648  1.0000 -0.5196458304
O   O53       1.0  0.64956  0.72027  0.47169  1.0000 -0.5358631788
O   O54       1.0  0.70652  0.77760  0.58352  1.0000 -0.5196458304
O   O55       1.0  0.75142  0.27973  0.92929  1.0000 -0.5358631788
O   O56       1.0  0.80592  0.22240  0.92892  1.0000 -0.5196458304
O   O57       1.0  0.52831  0.24858  0.17787  1.0000 -0.5358631788
O   O58       1.0  0.41648  0.19408  0.12300  1.0000 -0.5196458304
O   O59       1.0  0.07071  0.35044  0.82213  1.0000 -0.5358631788
O   O60       1.0  0.07108  0.29348  0.87700  1.0000 -0.5196458304
O   O61       1.0  0.92929  0.75142  0.27973  1.0000 -0.5358631788
O   O62       1.0  0.92892  0.80592  0.22240  1.0000 -0.5196458304
O   O63       1.0  0.47169  0.64956  0.72027  1.0000 -0.5358631788
O   O64       1.0  0.58352  0.70652  0.77760  1.0000 -0.5196458304
O   O65       1.0  0.27973  0.92929  0.75142  1.0000 -0.5358631788
O   O66       1.0  0.22240  0.92892  0.80592  1.0000 -0.5196458304
O   O67       1.0  0.72027  0.47169  0.64956  1.0000 -0.5358631788
O   O68       1.0  0.77760  0.58352  0.70652  1.0000 -0.5196458304
O   O69       1.0  0.17787  0.52831  0.24858  1.0000 -0.5358631788
O   O70       1.0  0.12300  0.41648  0.19408  1.0000 -0.5196458304
O   O71       1.0  0.82213  0.07071  0.35044  1.0000 -0.5358631788
O   O72       1.0  0.87700  0.07108  0.29348  1.0000 -0.5196458304
O   O73       1.0  0.92929  0.17787  0.64956  1.0000 -0.5358631788
O   O74       1.0  0.92892  0.12300  0.70652  1.0000 -0.5196458304
O   O75       1.0  0.47169  0.82213  0.75142  1.0000 -0.5358631788
O   O76       1.0  0.58352  0.87700  0.80592  1.0000 -0.5196458304
O   O77       1.0  0.52831  0.27973  0.35044  1.0000 -0.5358631788
O   O78       1.0  0.41648  0.22240  0.29348  1.0000 -0.5196458304
O   O79       1.0  0.07071  0.72027  0.24858  1.0000 -0.5358631788
O   O80       1.0  0.07108  0.77760  0.19408  1.0000 -0.5196458304
O   O81       1.0  0.82213  0.75142  0.47169  1.0000 -0.5358631788
O   O82       1.0  0.87700  0.80592  0.58352  1.0000 -0.5196458304
O   O83       1.0  0.17787  0.64956  0.92929  1.0000 -0.5358631788
O   O84       1.0  0.12300  0.70652  0.92892  1.0000 -0.5196458304
O   O85       1.0  0.72027  0.24858  0.07071  1.0000 -0.5358631788
O   O86       1.0  0.77760  0.19408  0.07108  1.0000 -0.5196458304
O   O87       1.0  0.27973  0.35044  0.52831  1.0000 -0.5358631788
O   O88       1.0  0.22240  0.29348  0.41648  1.0000 -0.5196458304
O   O89       1.0  0.24858  0.07071  0.72027  1.0000 -0.5358631788
O   O90       1.0  0.19408  0.07108  0.77760  1.0000 -0.5196458304
O   O91       1.0  0.35044  0.52831  0.27973  1.0000 -0.5358631788
O   O92       1.0  0.29348  0.41648  0.22240  1.0000 -0.5196458304
O   O93       1.0  0.75142  0.47169  0.82213  1.0000 -0.5358631788
O   O94       1.0  0.80592  0.58352  0.87700  1.0000 -0.5196458304
O   O95       1.0  0.64956  0.92929  0.17787  1.0000 -0.5358631788
O   O96       1.0  0.70652  0.92892  0.12300  1.0000 -0.5196458304
O   O97       1.0  0.37230  0.90970  0.53740  1.0000 -0.4344364744
O   O98       1.0  0.62770  0.09030  0.46260  1.0000 -0.4344364744
O   O99       1.0  0.62770  0.16510  0.53740  1.0000 -0.4344364744
O   O100      1.0  0.37230  0.83490  0.46260  1.0000 -0.4344364744
O   O101      1.0  0.46260  0.62770  0.09030  1.0000 -0.4344364744
O   O102      1.0  0.53740  0.37230  0.90970  1.0000 -0.4344364744
O   O103      1.0  0.46260  0.37230  0.83490  1.0000 -0.4344364744
O   O104      1.0  0.53740  0.62770  0.16510  1.0000 -0.4344364744
O   O105      1.0  0.83490  0.46260  0.37230  1.0000 -0.4344364744
O   O106      1.0  0.16510  0.53740  0.62770  1.0000 -0.4344364744
O   O107      1.0  0.09030  0.46260  0.62770  1.0000 -0.4344364744
O   O108      1.0  0.90970  0.53740  0.37230  1.0000 -0.4344364744
O   O109      1.0  0.46260  0.09030  0.62770  1.0000 -0.4344364744
O   O110      1.0  0.53740  0.90970  0.37230  1.0000 -0.4344364744
O   O111      1.0  0.46260  0.83490  0.37230  1.0000 -0.4344364744
O   O112      1.0  0.53740  0.16510  0.62770  1.0000 -0.4344364744
O   O113      1.0  0.90970  0.37230  0.53740  1.0000 -0.4344364744
O   O114      1.0  0.09030  0.62770  0.46260  1.0000 -0.4344364744
O   O115      1.0  0.16510  0.62770  0.53740  1.0000 -0.4344364744
O   O116      1.0  0.83490  0.37230  0.46260  1.0000 -0.4344364744
O   O117      1.0  0.62770  0.53740  0.16510  1.0000 -0.4344364744
O   O118      1.0  0.37230  0.46260  0.83490  1.0000 -0.4344364744
O   O119      1.0  0.37230  0.53740  0.90970  1.0000 -0.4344364744
O   O120      1.0  0.62770  0.46260  0.09030  1.0000 -0.4344364744
