# DDEC6 charges by PACMAN v1.1 (https://github.com/mtap-research/PACMAN-charge/)
data_2018[RhZr][she]3[ASR]1
_chemical_formula_sum              "Zr24 H144 Rh6 C288 N24 Cl12 O80"
_cell_length_a       33.2607
_cell_length_b       33.2607
_cell_length_c       33.2607
_cell_angle_alpha    109.471
_cell_angle_beta     109.471
_cell_angle_gamma    109.471

_symmetry_space_group_name_H-M    "P 1"
_symmetry_Int_Tables_number       1

loop_
  _symmetry_equiv_pos_as_xyz
  'x, y, z'

loop_
  _atom_site_type_symbol
  _atom_site_label
  _atom_site_symmetry_multiplicity
  _atom_site_fract_x
  _atom_site_fract_y
  _atom_site_fract_z
  _atom_site_occupancy
  _atom_site_charge
Zr  Zr1       1.0  0.06435  0.06435  0.58624  1.0000 2.4224610222
Zr  Zr2       1.0  0.52189  0.93565  0.00000  1.0000 2.4224610222
Zr  Zr3       1.0  0.93565  0.52189  0.00000  1.0000 2.4292704833
Zr  Zr4       1.0  0.47811  0.47811  0.41376  1.0000 2.4224610222
Zr  Zr5       1.0  0.00000  0.52189  0.93565  1.0000 2.4224610222
Zr  Zr6       1.0  0.58624  0.06435  0.06435  1.0000 2.4292704833
Zr  Zr7       1.0  0.41376  0.47811  0.47811  1.0000 2.4224610222
Zr  Zr8       1.0  0.00000  0.93565  0.52189  1.0000 2.4224610222
Zr  Zr9       1.0  0.47811  0.41376  0.47811  1.0000 2.4224610222
Zr  Zr10      1.0  0.52189  0.00000  0.93565  1.0000 2.4224610222
Zr  Zr11      1.0  0.93565  0.00000  0.52189  1.0000 2.4224610222
Zr  Zr12      1.0  0.06435  0.58624  0.06435  1.0000 2.4292704833
Zr  Zr13      1.0  0.41376  0.93565  0.93565  1.0000 2.4224610222
Zr  Zr14      1.0  0.00000  0.06435  0.47811  1.0000 2.4224610222
Zr  Zr15      1.0  0.00000  0.47811  0.06435  1.0000 2.4224610222
Zr  Zr16      1.0  0.58624  0.52189  0.52189  1.0000 2.4224610222
Zr  Zr17      1.0  0.06435  0.47811  0.00000  1.0000 2.4224610222
Zr  Zr18      1.0  0.93565  0.93565  0.41376  1.0000 2.4292704833
Zr  Zr19      1.0  0.52189  0.52189  0.58624  1.0000 2.4224610222
Zr  Zr20      1.0  0.47811  0.06435  0.00000  1.0000 2.4224610222
Zr  Zr21      1.0  0.52189  0.58624  0.52189  1.0000 2.4224610222
Zr  Zr22      1.0  0.06435  0.00000  0.47811  1.0000 2.4224610222
Zr  Zr23      1.0  0.47811  0.00000  0.06435  1.0000 2.4224610222
Zr  Zr24      1.0  0.93565  0.41376  0.93565  1.0000 2.4224610222
H   H1        1.0  0.07000  0.22500  0.55220  1.0000 0.1146329924
H   H2        1.0  0.11120  0.31120  0.59660  1.0000 0.1199522751
H   H3        1.0  0.11760  0.33820  0.71420  1.0000 0.1199522751
H   H4        1.0  0.32720  0.77500  0.84500  1.0000 0.1146329924
H   H5        1.0  0.28540  0.68880  0.80000  1.0000 0.1199522751
H   H6        1.0  0.37600  0.66180  0.77940  1.0000 0.1199522751
H   H7        1.0  0.93000  0.48220  0.15500  1.0000 0.1146329924
H   H8        1.0  0.88880  0.48540  0.20000  1.0000 0.1199522751
H   H9        1.0  0.88240  0.59660  0.22060  1.0000 0.1199522751
H   H10       1.0  0.67280  0.51780  0.44780  1.0000 0.1146329924
H   H11       1.0  0.71460  0.51460  0.40340  1.0000 0.1199522751
H   H12       1.0  0.62400  0.40340  0.28580  1.0000 0.1199522751
H   H13       1.0  0.84500  0.32720  0.77500  1.0000 0.1146329924
H   H14       1.0  0.80000  0.28540  0.68880  1.0000 0.1199522751
H   H15       1.0  0.77940  0.37600  0.66180  1.0000 0.1199522751
H   H16       1.0  0.55220  0.07000  0.22500  1.0000 0.1146329924
H   H17       1.0  0.59660  0.11120  0.31120  1.0000 0.1199522751
H   H18       1.0  0.71420  0.11760  0.33820  1.0000 0.1199522751
H   H19       1.0  0.44780  0.67280  0.51780  1.0000 0.1146329924
H   H20       1.0  0.40340  0.71460  0.51460  1.0000 0.1199522751
H   H21       1.0  0.28580  0.62400  0.40340  1.0000 0.1199522751
H   H22       1.0  0.15500  0.93000  0.48220  1.0000 0.1146329924
H   H23       1.0  0.20000  0.88880  0.48540  1.0000 0.1199522751
H   H24       1.0  0.22060  0.88240  0.59660  1.0000 0.1199522751
H   H25       1.0  0.51780  0.44780  0.67280  1.0000 0.1146329924
H   H26       1.0  0.51460  0.40340  0.71460  1.0000 0.1199522751
H   H27       1.0  0.40340  0.28580  0.62400  1.0000 0.1199522751
H   H28       1.0  0.48220  0.15500  0.93000  1.0000 0.1146329924
H   H29       1.0  0.48540  0.20000  0.88880  1.0000 0.1199522751
H   H30       1.0  0.59660  0.22060  0.88240  1.0000 0.1199522751
H   H31       1.0  0.77500  0.84500  0.32720  1.0000 0.1146329924
H   H32       1.0  0.68880  0.80000  0.28540  1.0000 0.1199522751
H   H33       1.0  0.66180  0.77940  0.37600  1.0000 0.1199522751
H   H34       1.0  0.22500  0.55220  0.07000  1.0000 0.1146329924
H   H35       1.0  0.31120  0.59660  0.11120  1.0000 0.1199522751
H   H36       1.0  0.33820  0.71420  0.11760  1.0000 0.1199522751
H   H37       1.0  0.44780  0.77500  0.93000  1.0000 0.1146329924
H   H38       1.0  0.40340  0.68880  0.88880  1.0000 0.1199522751
H   H39       1.0  0.28580  0.66180  0.88240  1.0000 0.1199522751
H   H40       1.0  0.15500  0.22500  0.67280  1.0000 0.1146329924
H   H41       1.0  0.20000  0.31120  0.71460  1.0000 0.1199522751
H   H42       1.0  0.22060  0.33820  0.62400  1.0000 0.1199522751
H   H43       1.0  0.84500  0.51780  0.07000  1.0000 0.1146329924
H   H44       1.0  0.80000  0.51460  0.11120  1.0000 0.1199522751
H   H45       1.0  0.77940  0.40340  0.11760  1.0000 0.1199522751
H   H46       1.0  0.55220  0.48220  0.32720  1.0000 0.1146329924
H   H47       1.0  0.59660  0.48540  0.28540  1.0000 0.1199522751
H   H48       1.0  0.71420  0.59660  0.37600  1.0000 0.1199522751
H   H49       1.0  0.22500  0.67280  0.15500  1.0000 0.1146329924
H   H50       1.0  0.31120  0.71460  0.20000  1.0000 0.1199522751
H   H51       1.0  0.33820  0.62400  0.22060  1.0000 0.1199522751
H   H52       1.0  0.77500  0.93000  0.44780  1.0000 0.1146329924
H   H53       1.0  0.68880  0.88880  0.40340  1.0000 0.1199522751
H   H54       1.0  0.66180  0.88240  0.28580  1.0000 0.1199522751
H   H55       1.0  0.48220  0.32720  0.55220  1.0000 0.1146329924
H   H56       1.0  0.48540  0.28540  0.59660  1.0000 0.1199522751
H   H57       1.0  0.59660  0.37600  0.71420  1.0000 0.1199522751
H   H58       1.0  0.51780  0.07000  0.84500  1.0000 0.1146329924
H   H59       1.0  0.51460  0.11120  0.80000  1.0000 0.1199522751
H   H60       1.0  0.40340  0.11760  0.77940  1.0000 0.1199522751
H   H61       1.0  0.32720  0.55220  0.48220  1.0000 0.1146329924
H   H62       1.0  0.28540  0.59660  0.48540  1.0000 0.1199522751
H   H63       1.0  0.37600  0.71420  0.59660  1.0000 0.1199522751
H   H64       1.0  0.07000  0.84500  0.51780  1.0000 0.1146329924
H   H65       1.0  0.11120  0.80000  0.51460  1.0000 0.1199522751
H   H66       1.0  0.11760  0.77940  0.40340  1.0000 0.1199522751
H   H67       1.0  0.67280  0.15500  0.22500  1.0000 0.1146329924
H   H68       1.0  0.71460  0.20000  0.31120  1.0000 0.1199522751
H   H69       1.0  0.62400  0.22060  0.33820  1.0000 0.1199522751
H   H70       1.0  0.93000  0.44780  0.77500  1.0000 0.1146329924
H   H71       1.0  0.88880  0.40340  0.68880  1.0000 0.1199522751
H   H72       1.0  0.88240  0.28580  0.66180  1.0000 0.1199522751
H   H73       1.0  0.93000  0.77500  0.44780  1.0000 0.1146329924
H   H74       1.0  0.88880  0.68880  0.40340  1.0000 0.1199522751
H   H75       1.0  0.88240  0.66180  0.28580  1.0000 0.1199522751
H   H76       1.0  0.67280  0.22500  0.15500  1.0000 0.1146329924
H   H77       1.0  0.71460  0.31120  0.20000  1.0000 0.1199522751
H   H78       1.0  0.62400  0.33820  0.22060  1.0000 0.1199522751
H   H79       1.0  0.07000  0.51780  0.84500  1.0000 0.1146329924
H   H80       1.0  0.11120  0.51460  0.80000  1.0000 0.1199522751
H   H81       1.0  0.11760  0.40340  0.77940  1.0000 0.1199522751
H   H82       1.0  0.32720  0.48220  0.55220  1.0000 0.1146329924
H   H83       1.0  0.28540  0.48540  0.59660  1.0000 0.1199522751
H   H84       1.0  0.37600  0.59660  0.71420  1.0000 0.1199522751
H   H85       1.0  0.15500  0.67280  0.22500  1.0000 0.1146329924
H   H86       1.0  0.20000  0.71460  0.31120  1.0000 0.1199522751
H   H87       1.0  0.22060  0.62400  0.33820  1.0000 0.1199522751
H   H88       1.0  0.44780  0.93000  0.77500  1.0000 0.1146329924
H   H89       1.0  0.40340  0.88880  0.68880  1.0000 0.1199522751
H   H90       1.0  0.28580  0.88240  0.66180  1.0000 0.1199522751
H   H91       1.0  0.55220  0.32720  0.48220  1.0000 0.1146329924
H   H92       1.0  0.59660  0.28540  0.48540  1.0000 0.1199522751
H   H93       1.0  0.71420  0.37600  0.59660  1.0000 0.1199522751
H   H94       1.0  0.84500  0.07000  0.51780  1.0000 0.1146329924
H   H95       1.0  0.80000  0.11120  0.51460  1.0000 0.1199522751
H   H96       1.0  0.77940  0.11760  0.40340  1.0000 0.1199522751
H   H97       1.0  0.48220  0.55220  0.32720  1.0000 0.1146329924
H   H98       1.0  0.48540  0.59660  0.28540  1.0000 0.1199522751
H   H99       1.0  0.59660  0.71420  0.37600  1.0000 0.1199522751
H   H100      1.0  0.51780  0.84500  0.07000  1.0000 0.1146329924
H   H101      1.0  0.51460  0.80000  0.11120  1.0000 0.1199522751
H   H102      1.0  0.40340  0.77940  0.11760  1.0000 0.1199522751
H   H103      1.0  0.22500  0.15500  0.67280  1.0000 0.1146329924
H   H104      1.0  0.31120  0.20000  0.71460  1.0000 0.1199522751
H   H105      1.0  0.33820  0.22060  0.62400  1.0000 0.1199522751
H   H106      1.0  0.77500  0.44780  0.93000  1.0000 0.1146329924
H   H107      1.0  0.68880  0.40340  0.88880  1.0000 0.1199522751
H   H108      1.0  0.66180  0.28580  0.88240  1.0000 0.1199522751
H   H109      1.0  0.55220  0.22500  0.07000  1.0000 0.1146329924
H   H110      1.0  0.59660  0.31120  0.11120  1.0000 0.1199522751
H   H111      1.0  0.71420  0.33820  0.11760  1.0000 0.1199522751
H   H112      1.0  0.84500  0.77500  0.32720  1.0000 0.1146329924
H   H113      1.0  0.80000  0.68880  0.28540  1.0000 0.1199522751
H   H114      1.0  0.77940  0.66180  0.37600  1.0000 0.1199522751
H   H115      1.0  0.15500  0.48220  0.93000  1.0000 0.1146329924
H   H116      1.0  0.20000  0.48540  0.88880  1.0000 0.1199522751
H   H117      1.0  0.22060  0.59660  0.88240  1.0000 0.1199522751
H   H118      1.0  0.44780  0.51780  0.67280  1.0000 0.1146329924
H   H119      1.0  0.40340  0.51460  0.71460  1.0000 0.1199522751
H   H120      1.0  0.28580  0.40340  0.62400  1.0000 0.1199522751
H   H121      1.0  0.77500  0.32720  0.84500  1.0000 0.1146329924
H   H122      1.0  0.68880  0.28540  0.80000  1.0000 0.1199522751
H   H123      1.0  0.66180  0.37600  0.77940  1.0000 0.1199522751
H   H124      1.0  0.22500  0.07000  0.55220  1.0000 0.1146329924
H   H125      1.0  0.31120  0.11120  0.59660  1.0000 0.1199522751
H   H126      1.0  0.33820  0.11760  0.71420  1.0000 0.1199522751
H   H127      1.0  0.51780  0.67280  0.44780  1.0000 0.1146329924
H   H128      1.0  0.51460  0.71460  0.40340  1.0000 0.1199522751
H   H129      1.0  0.40340  0.62400  0.28580  1.0000 0.1199522751
H   H130      1.0  0.48220  0.93000  0.15500  1.0000 0.1146329924
H   H131      1.0  0.48540  0.88880  0.20000  1.0000 0.1199522751
H   H132      1.0  0.59660  0.88240  0.22060  1.0000 0.1199522751
H   H133      1.0  0.67280  0.44780  0.51780  1.0000 0.1146329924
H   H134      1.0  0.71460  0.40340  0.51460  1.0000 0.1199522751
H   H135      1.0  0.62400  0.28580  0.40340  1.0000 0.1199522751
H   H136      1.0  0.93000  0.15500  0.48220  1.0000 0.1146329924
H   H137      1.0  0.88880  0.20000  0.48540  1.0000 0.1199522751
H   H138      1.0  0.88240  0.22060  0.59660  1.0000 0.1199522751
H   H139      1.0  0.32720  0.84500  0.77500  1.0000 0.1146329924
H   H140      1.0  0.28540  0.80000  0.68880  1.0000 0.1199522751
H   H141      1.0  0.37600  0.77940  0.66180  1.0000 0.1199522751
H   H142      1.0  0.07000  0.55220  0.22500  1.0000 0.1146329924
H   H143      1.0  0.11120  0.59660  0.31120  1.0000 0.1199522751
H   H144      1.0  0.11760  0.71420  0.33820  1.0000 0.1199522751
Rh  Rh1       1.0  0.25000  0.50000  0.75000  1.0000 0.6343868149
Rh  Rh2       1.0  0.75000  0.50000  0.25000  1.0000 0.6343868149
Rh  Rh3       1.0  0.75000  0.25000  0.50000  1.0000 0.6343868149
Rh  Rh4       1.0  0.25000  0.75000  0.50000  1.0000 0.6343868149
Rh  Rh5       1.0  0.50000  0.25000  0.75000  1.0000 0.6343868149
Rh  Rh6       1.0  0.50000  0.75000  0.25000  1.0000 0.6343868149
C   C1        1.0  0.09567  0.24244  0.58549  1.0000 -0.0943323997
C   C2        1.0  0.12070  0.29362  0.61156  1.0000 -0.1592241106
C   C3        1.0  0.17423  0.39731  0.71970  1.0000 0.1456905585
C   C4        1.0  0.13807  0.37283  0.72956  1.0000 -0.181103597
C   C5        1.0  0.34305  0.75756  0.85323  1.0000 -0.0943323997
C   C6        1.0  0.31794  0.70638  0.82708  1.0000 -0.1592241106
C   C7        1.0  0.32239  0.60269  0.77692  1.0000 0.1456905585
C   C8        1.0  0.35673  0.62717  0.76524  1.0000 -0.181103597
C   C9        1.0  0.90433  0.48982  0.14677  1.0000 -0.0943323997
C   C10       1.0  0.87930  0.49086  0.17292  1.0000 -0.1592241106
C   C11       1.0  0.82577  0.54547  0.22308  1.0000 0.1446967495
C   C12       1.0  0.86193  0.59149  0.23476  1.0000 -0.181103597
C   C13       1.0  0.65695  0.51018  0.41451  1.0000 -0.0943323997
C   C14       1.0  0.68206  0.50914  0.38844  1.0000 -0.1592241106
C   C15       1.0  0.67761  0.45453  0.28030  1.0000 0.1446967495
C   C16       1.0  0.64327  0.40851  0.27044  1.0000 -0.181103597
C   C17       1.0  0.85323  0.34305  0.75756  1.0000 -0.0943323997
C   C18       1.0  0.82708  0.31794  0.70638  1.0000 -0.1592241106
C   C19       1.0  0.77692  0.32239  0.60269  1.0000 0.1456905585
C   C20       1.0  0.76524  0.35673  0.62717  1.0000 -0.181103597
C   C21       1.0  0.58549  0.09567  0.24244  1.0000 -0.0943323997
C   C22       1.0  0.61156  0.12070  0.29362  1.0000 -0.1592241106
C   C23       1.0  0.71970  0.17423  0.39731  1.0000 0.1456905585
C   C24       1.0  0.72956  0.13807  0.37283  1.0000 -0.181103597
C   C25       1.0  0.41451  0.65695  0.51018  1.0000 -0.0943323997
C   C26       1.0  0.38844  0.68206  0.50914  1.0000 -0.1592241106
C   C27       1.0  0.28030  0.67761  0.45453  1.0000 0.1456905585
C   C28       1.0  0.27044  0.64327  0.40851  1.0000 -0.181103597
C   C29       1.0  0.14677  0.90433  0.48982  1.0000 -0.0943323997
C   C30       1.0  0.17292  0.87930  0.49086  1.0000 -0.1592241106
C   C31       1.0  0.22308  0.82577  0.54547  1.0000 0.1456905585
C   C32       1.0  0.23476  0.86193  0.59149  1.0000 -0.181103597
C   C33       1.0  0.51018  0.41451  0.65695  1.0000 -0.0943323997
C   C34       1.0  0.50914  0.38844  0.68206  1.0000 -0.1592241106
C   C35       1.0  0.45453  0.28030  0.67761  1.0000 0.1456905585
C   C36       1.0  0.40851  0.27044  0.64327  1.0000 -0.181103597
C   C37       1.0  0.48982  0.14677  0.90433  1.0000 -0.0943323997
C   C38       1.0  0.49086  0.17292  0.87930  1.0000 -0.1592241106
C   C39       1.0  0.54547  0.22308  0.82577  1.0000 0.1456905585
C   C40       1.0  0.59149  0.23476  0.86193  1.0000 -0.181103597
C   C41       1.0  0.75756  0.85323  0.34305  1.0000 -0.0943323997
C   C42       1.0  0.70638  0.82708  0.31794  1.0000 -0.1592241106
C   C43       1.0  0.60269  0.77692  0.32239  1.0000 0.1456905585
C   C44       1.0  0.62717  0.76524  0.35673  1.0000 -0.181103597
C   C45       1.0  0.24244  0.58549  0.09567  1.0000 -0.0943323997
C   C46       1.0  0.29362  0.61156  0.12070  1.0000 -0.1592241106
C   C47       1.0  0.39731  0.71970  0.17423  1.0000 0.1456905585
C   C48       1.0  0.37283  0.72956  0.13807  1.0000 -0.181103597
C   C49       1.0  0.41451  0.75756  0.90433  1.0000 -0.0943323997
C   C50       1.0  0.38844  0.70638  0.87930  1.0000 -0.1592241106
C   C51       1.0  0.28030  0.60269  0.82577  1.0000 0.1456905585
C   C52       1.0  0.27044  0.62717  0.86193  1.0000 -0.181103597
C   C53       1.0  0.14677  0.24244  0.65695  1.0000 -0.0943323997
C   C54       1.0  0.17292  0.29362  0.68206  1.0000 -0.1592241106
C   C55       1.0  0.22308  0.39731  0.67761  1.0000 0.1456905585
C   C56       1.0  0.23476  0.37283  0.64327  1.0000 -0.181103597
C   C57       1.0  0.85323  0.51018  0.09567  1.0000 -0.0943323997
C   C58       1.0  0.82708  0.50914  0.12070  1.0000 -0.1592241106
C   C59       1.0  0.77692  0.45453  0.17423  1.0000 0.1456905585
C   C60       1.0  0.76524  0.40851  0.13807  1.0000 -0.181103597
C   C61       1.0  0.58549  0.48982  0.34305  1.0000 -0.0943323997
C   C62       1.0  0.61156  0.49086  0.31794  1.0000 -0.1592241106
C   C63       1.0  0.71970  0.54547  0.32239  1.0000 0.1446967495
C   C64       1.0  0.72956  0.59149  0.35673  1.0000 -0.181103597
C   C65       1.0  0.24244  0.65695  0.14677  1.0000 -0.0943323997
C   C66       1.0  0.29362  0.68206  0.17292  1.0000 -0.1592241106
C   C67       1.0  0.39731  0.67761  0.22308  1.0000 0.1446967495
C   C68       1.0  0.37283  0.64327  0.23476  1.0000 -0.181103597
C   C69       1.0  0.75756  0.90433  0.41451  1.0000 -0.0943323997
C   C70       1.0  0.70638  0.87930  0.38844  1.0000 -0.1592241106
C   C71       1.0  0.60269  0.82577  0.28030  1.0000 0.1456905585
C   C72       1.0  0.62717  0.86193  0.27044  1.0000 -0.181103597
C   C73       1.0  0.48982  0.34305  0.58549  1.0000 -0.0943323997
C   C74       1.0  0.49086  0.31794  0.61156  1.0000 -0.1592241106
C   C75       1.0  0.54547  0.32239  0.71970  1.0000 0.1456905585
C   C76       1.0  0.59149  0.35673  0.72956  1.0000 -0.181103597
C   C77       1.0  0.51018  0.09567  0.85323  1.0000 -0.0943323997
C   C78       1.0  0.50914  0.12070  0.82708  1.0000 -0.1592241106
C   C79       1.0  0.45453  0.17423  0.77692  1.0000 0.1456905585
C   C80       1.0  0.40851  0.13807  0.76524  1.0000 -0.181103597
C   C81       1.0  0.34305  0.58549  0.48982  1.0000 -0.0943323997
C   C82       1.0  0.31794  0.61156  0.49086  1.0000 -0.1592241106
C   C83       1.0  0.32239  0.71970  0.54547  1.0000 0.1456905585
C   C84       1.0  0.35673  0.72956  0.59149  1.0000 -0.181103597
C   C85       1.0  0.09567  0.85323  0.51018  1.0000 -0.0943323997
C   C86       1.0  0.12070  0.82708  0.50914  1.0000 -0.1592241106
C   C87       1.0  0.17423  0.77692  0.45453  1.0000 0.1456905585
C   C88       1.0  0.13807  0.76524  0.40851  1.0000 -0.181103597
C   C89       1.0  0.65695  0.14677  0.24244  1.0000 -0.0943323997
C   C90       1.0  0.68206  0.17292  0.29362  1.0000 -0.1592241106
C   C91       1.0  0.67761  0.22308  0.39731  1.0000 0.1456905585
C   C92       1.0  0.64327  0.23476  0.37283  1.0000 -0.181103597
C   C93       1.0  0.90433  0.41451  0.75756  1.0000 -0.0943323997
C   C94       1.0  0.87930  0.38844  0.70638  1.0000 -0.1592241106
C   C95       1.0  0.82577  0.28030  0.60269  1.0000 0.1456905585
C   C96       1.0  0.86193  0.27044  0.62717  1.0000 -0.181103597
C   C97       1.0  0.90433  0.75756  0.41451  1.0000 -0.0943323997
C   C98       1.0  0.87930  0.70638  0.38844  1.0000 -0.1592241106
C   C99       1.0  0.82577  0.60269  0.28030  1.0000 0.1456905585
C   C100      1.0  0.86193  0.62717  0.27044  1.0000 -0.181103597
C   C101      1.0  0.65695  0.24244  0.14677  1.0000 -0.0943323997
C   C102      1.0  0.68206  0.29362  0.17292  1.0000 -0.1592241106
C   C103      1.0  0.67761  0.39731  0.22308  1.0000 0.1446967495
C   C104      1.0  0.64327  0.37283  0.23476  1.0000 -0.181103597
C   C105      1.0  0.09567  0.51018  0.85323  1.0000 -0.0943323997
C   C106      1.0  0.12070  0.50914  0.82708  1.0000 -0.1592241106
C   C107      1.0  0.17423  0.45453  0.77692  1.0000 0.1456905585
C   C108      1.0  0.13807  0.40851  0.76524  1.0000 -0.181103597
C   C109      1.0  0.34305  0.48982  0.58549  1.0000 -0.0943323997
C   C110      1.0  0.31794  0.49086  0.61156  1.0000 -0.1592241106
C   C111      1.0  0.32239  0.54547  0.71970  1.0000 0.1456905585
C   C112      1.0  0.35673  0.59149  0.72956  1.0000 -0.181103597
C   C113      1.0  0.14677  0.65695  0.24244  1.0000 -0.0943323997
C   C114      1.0  0.17292  0.68206  0.29362  1.0000 -0.1592241106
C   C115      1.0  0.22308  0.67761  0.39731  1.0000 0.1456905585
C   C116      1.0  0.23476  0.64327  0.37283  1.0000 -0.181103597
C   C117      1.0  0.41451  0.90433  0.75756  1.0000 -0.0943323997
C   C118      1.0  0.38844  0.87930  0.70638  1.0000 -0.1592241106
C   C119      1.0  0.28030  0.82577  0.60269  1.0000 0.1456905585
C   C120      1.0  0.27044  0.86193  0.62717  1.0000 -0.181103597
C   C121      1.0  0.58549  0.34305  0.48982  1.0000 -0.0943323997
C   C122      1.0  0.61156  0.31794  0.49086  1.0000 -0.1592241106
C   C123      1.0  0.71970  0.32239  0.54547  1.0000 0.1456905585
C   C124      1.0  0.72956  0.35673  0.59149  1.0000 -0.181103597
C   C125      1.0  0.85323  0.09567  0.51018  1.0000 -0.0943323997
C   C126      1.0  0.82708  0.12070  0.50914  1.0000 -0.1592241106
C   C127      1.0  0.77692  0.17423  0.45453  1.0000 0.1456905585
C   C128      1.0  0.76524  0.13807  0.40851  1.0000 -0.181103597
C   C129      1.0  0.48982  0.58549  0.34305  1.0000 -0.0943323997
C   C130      1.0  0.49086  0.61156  0.31794  1.0000 -0.1592241106
C   C131      1.0  0.54547  0.71970  0.32239  1.0000 0.1456905585
C   C132      1.0  0.59149  0.72956  0.35673  1.0000 -0.181103597
C   C133      1.0  0.51018  0.85323  0.09567  1.0000 -0.0943323997
C   C134      1.0  0.50914  0.82708  0.12070  1.0000 -0.1592241106
C   C135      1.0  0.45453  0.77692  0.17423  1.0000 0.1456905585
C   C136      1.0  0.40851  0.76524  0.13807  1.0000 -0.181103597
C   C137      1.0  0.24244  0.14677  0.65695  1.0000 -0.0943323997
C   C138      1.0  0.29362  0.17292  0.68206  1.0000 -0.1592241106
C   C139      1.0  0.39731  0.22308  0.67761  1.0000 0.1456905585
C   C140      1.0  0.37283  0.23476  0.64327  1.0000 -0.181103597
C   C141      1.0  0.75756  0.41451  0.90433  1.0000 -0.0943323997
C   C142      1.0  0.70638  0.38844  0.87930  1.0000 -0.1592241106
C   C143      1.0  0.60269  0.28030  0.82577  1.0000 0.1456905585
C   C144      1.0  0.62717  0.27044  0.86193  1.0000 -0.181103597
C   C145      1.0  0.58549  0.24244  0.09567  1.0000 -0.0943323997
C   C146      1.0  0.61156  0.29362  0.12070  1.0000 -0.1592241106
C   C147      1.0  0.71970  0.39731  0.17423  1.0000 0.1446967495
C   C148      1.0  0.72956  0.37283  0.13807  1.0000 -0.181103597
C   C149      1.0  0.85323  0.75756  0.34305  1.0000 -0.0943323997
C   C150      1.0  0.82708  0.70638  0.31794  1.0000 -0.1592241106
C   C151      1.0  0.77692  0.60269  0.32239  1.0000 0.1456905585
C   C152      1.0  0.76524  0.62717  0.35673  1.0000 -0.181103597
C   C153      1.0  0.14677  0.48982  0.90433  1.0000 -0.0943323997
C   C154      1.0  0.17292  0.49086  0.87930  1.0000 -0.1592241106
C   C155      1.0  0.22308  0.54547  0.82577  1.0000 0.1456905585
C   C156      1.0  0.23476  0.59149  0.86193  1.0000 -0.181103597
C   C157      1.0  0.41451  0.51018  0.65695  1.0000 -0.0943323997
C   C158      1.0  0.38844  0.50914  0.68206  1.0000 -0.1592241106
C   C159      1.0  0.28030  0.45453  0.67761  1.0000 0.1456905585
C   C160      1.0  0.27044  0.40851  0.64327  1.0000 -0.181103597
C   C161      1.0  0.75756  0.34305  0.85323  1.0000 -0.0943323997
C   C162      1.0  0.70638  0.31794  0.82708  1.0000 -0.1592241106
C   C163      1.0  0.60269  0.32239  0.77692  1.0000 0.1456905585
C   C164      1.0  0.62717  0.35673  0.76524  1.0000 -0.181103597
C   C165      1.0  0.24244  0.09567  0.58549  1.0000 -0.0943323997
C   C166      1.0  0.29362  0.12070  0.61156  1.0000 -0.1592241106
C   C167      1.0  0.39731  0.17423  0.71970  1.0000 0.1456905585
C   C168      1.0  0.37283  0.13807  0.72956  1.0000 -0.181103597
C   C169      1.0  0.51018  0.65695  0.41451  1.0000 -0.0943323997
C   C170      1.0  0.50914  0.68206  0.38844  1.0000 -0.1592241106
C   C171      1.0  0.45453  0.67761  0.28030  1.0000 0.1456905585
C   C172      1.0  0.40851  0.64327  0.27044  1.0000 -0.181103597
C   C173      1.0  0.48982  0.90433  0.14677  1.0000 -0.0943323997
C   C174      1.0  0.49086  0.87930  0.17292  1.0000 -0.1592241106
C   C175      1.0  0.54547  0.82577  0.22308  1.0000 0.1446967495
C   C176      1.0  0.59149  0.86193  0.23476  1.0000 -0.181103597
C   C177      1.0  0.65695  0.41451  0.51018  1.0000 -0.0943323997
C   C178      1.0  0.68206  0.38844  0.50914  1.0000 -0.1592241106
C   C179      1.0  0.67761  0.28030  0.45453  1.0000 0.1456905585
C   C180      1.0  0.64327  0.27044  0.40851  1.0000 -0.181103597
C   C181      1.0  0.90433  0.14677  0.48982  1.0000 -0.0943323997
C   C182      1.0  0.87930  0.17292  0.49086  1.0000 -0.1592241106
C   C183      1.0  0.82577  0.22308  0.54547  1.0000 0.1456905585
C   C184      1.0  0.86193  0.23476  0.59149  1.0000 -0.181103597
C   C185      1.0  0.34305  0.85323  0.75756  1.0000 -0.0943323997
C   C186      1.0  0.31794  0.82708  0.70638  1.0000 -0.1592241106
C   C187      1.0  0.32239  0.77692  0.60269  1.0000 0.1456905585
C   C188      1.0  0.35673  0.76524  0.62717  1.0000 -0.181103597
C   C189      1.0  0.09567  0.58549  0.24244  1.0000 -0.0943323997
C   C190      1.0  0.12070  0.61156  0.29362  1.0000 -0.1592241106
C   C191      1.0  0.17423  0.71970  0.39731  1.0000 0.1456905585
C   C192      1.0  0.13807  0.72956  0.37283  1.0000 -0.181103597
C   C193      1.0  0.08088  0.16176  0.58088  1.0000 0.6193652349
C   C194      1.0  0.10844  0.21688  0.60844  1.0000 -0.0511791214
C   C195      1.0  0.15947  0.31894  0.65947  1.0000 0.0876667919
C   C196      1.0  0.18676  0.37352  0.68676  1.0000 -0.0556700344
C   C197      1.0  0.41912  0.83824  0.91912  1.0000 0.6193652349
C   C198      1.0  0.39156  0.78312  0.89156  1.0000 -0.0511791214
C   C199      1.0  0.34053  0.68106  0.84053  1.0000 0.0876667919
C   C200      1.0  0.31324  0.62648  0.81324  1.0000 -0.0556700344
C   C201      1.0  0.91912  0.50000  0.08088  1.0000 0.6193652349
C   C202      1.0  0.89156  0.50000  0.10844  1.0000 -0.0511791214
C   C203      1.0  0.84053  0.50000  0.15947  1.0000 0.0876667919
C   C204      1.0  0.81324  0.50000  0.18676  1.0000 -0.0511791214
C   C205      1.0  0.58088  0.50000  0.41912  1.0000 0.6193652349
C   C206      1.0  0.60844  0.50000  0.39156  1.0000 -0.0511791214
C   C207      1.0  0.65947  0.50000  0.34053  1.0000 0.0876667919
C   C208      1.0  0.68676  0.50000  0.31324  1.0000 -0.0511791214
C   C209      1.0  0.91912  0.41912  0.83824  1.0000 0.6193652349
C   C210      1.0  0.89156  0.39156  0.78312  1.0000 -0.0511791214
C   C211      1.0  0.84053  0.34053  0.68106  1.0000 0.0876667919
C   C212      1.0  0.81324  0.31324  0.62648  1.0000 -0.0556700344
C   C213      1.0  0.58088  0.08088  0.16176  1.0000 0.6193652349
C   C214      1.0  0.60844  0.10844  0.21688  1.0000 -0.0511791214
C   C215      1.0  0.65947  0.15947  0.31894  1.0000 0.0876667919
C   C216      1.0  0.68676  0.18676  0.37352  1.0000 -0.0556700344
C   C217      1.0  0.41912  0.58088  0.50000  1.0000 0.6193652349
C   C218      1.0  0.39156  0.60844  0.50000  1.0000 -0.0511791214
C   C219      1.0  0.34053  0.65947  0.50000  1.0000 0.0876667919
C   C220      1.0  0.31324  0.68676  0.50000  1.0000 -0.0556700344
C   C221      1.0  0.08088  0.91912  0.50000  1.0000 0.6193652349
C   C222      1.0  0.10844  0.89156  0.50000  1.0000 -0.0511791214
C   C223      1.0  0.15947  0.84053  0.50000  1.0000 0.0876667919
C   C224      1.0  0.18676  0.81324  0.50000  1.0000 -0.0556700344
C   C225      1.0  0.50000  0.41912  0.58088  1.0000 0.6193652349
C   C226      1.0  0.50000  0.39156  0.60844  1.0000 -0.0511791214
C   C227      1.0  0.50000  0.34053  0.65947  1.0000 0.0876667919
C   C228      1.0  0.50000  0.31324  0.68676  1.0000 -0.0556700344
C   C229      1.0  0.50000  0.08088  0.91912  1.0000 0.6193652349
C   C230      1.0  0.50000  0.10844  0.89156  1.0000 -0.0511791214
C   C231      1.0  0.50000  0.15947  0.84053  1.0000 0.0876667919
C   C232      1.0  0.50000  0.18676  0.81324  1.0000 -0.0556700344
C   C233      1.0  0.83824  0.91912  0.41912  1.0000 0.6193652349
C   C234      1.0  0.78312  0.89156  0.39156  1.0000 -0.0511791214
C   C235      1.0  0.68106  0.84053  0.34053  1.0000 0.0876667919
C   C236      1.0  0.62648  0.81324  0.31324  1.0000 -0.0556700344
C   C237      1.0  0.16176  0.58088  0.08088  1.0000 0.6193652349
C   C238      1.0  0.21688  0.60844  0.10844  1.0000 -0.0511791214
C   C239      1.0  0.31894  0.65947  0.15947  1.0000 0.0876667919
C   C240      1.0  0.37352  0.68676  0.18676  1.0000 -0.0511791214
C   C241      1.0  0.91912  0.83824  0.41912  1.0000 0.6193652349
C   C242      1.0  0.89156  0.78312  0.39156  1.0000 -0.0511791214
C   C243      1.0  0.84053  0.68106  0.34053  1.0000 0.0876667919
C   C244      1.0  0.81324  0.62648  0.31324  1.0000 -0.0511791214
C   C245      1.0  0.58088  0.16176  0.08088  1.0000 0.6193652349
C   C246      1.0  0.60844  0.21688  0.10844  1.0000 -0.0511791214
C   C247      1.0  0.65947  0.31894  0.15947  1.0000 0.0876667919
C   C248      1.0  0.68676  0.37352  0.18676  1.0000 -0.0511791214
C   C249      1.0  0.08088  0.50000  0.91912  1.0000 0.6193652349
C   C250      1.0  0.10844  0.50000  0.89156  1.0000 -0.0511791214
C   C251      1.0  0.15947  0.50000  0.84053  1.0000 0.0876667919
C   C252      1.0  0.18676  0.50000  0.81324  1.0000 -0.0556700344
C   C253      1.0  0.41912  0.50000  0.58088  1.0000 0.6193652349
C   C254      1.0  0.39156  0.50000  0.60844  1.0000 -0.0511791214
C   C255      1.0  0.34053  0.50000  0.65947  1.0000 0.0876667919
C   C256      1.0  0.31324  0.50000  0.68676  1.0000 -0.0556700344
C   C257      1.0  0.08088  0.58088  0.16176  1.0000 0.6193652349
C   C258      1.0  0.10844  0.60844  0.21688  1.0000 -0.0511791214
C   C259      1.0  0.15947  0.65947  0.31894  1.0000 0.0876667919
C   C260      1.0  0.18676  0.68676  0.37352  1.0000 -0.0556700344
C   C261      1.0  0.41912  0.91912  0.83824  1.0000 0.6193652349
C   C262      1.0  0.39156  0.89156  0.78312  1.0000 -0.0511791214
C   C263      1.0  0.34053  0.84053  0.68106  1.0000 0.0876667919
C   C264      1.0  0.31324  0.81324  0.62648  1.0000 -0.0556700344
C   C265      1.0  0.58088  0.41912  0.50000  1.0000 0.6193652349
C   C266      1.0  0.60844  0.39156  0.50000  1.0000 -0.0511791214
C   C267      1.0  0.65947  0.34053  0.50000  1.0000 0.0876667919
C   C268      1.0  0.68676  0.31324  0.50000  1.0000 -0.0556700344
C   C269      1.0  0.91912  0.08088  0.50000  1.0000 0.6193652349
C   C270      1.0  0.89156  0.10844  0.50000  1.0000 -0.0511791214
C   C271      1.0  0.84053  0.15947  0.50000  1.0000 0.0876667919
C   C272      1.0  0.81324  0.18676  0.50000  1.0000 -0.0511791214
C   C273      1.0  0.50000  0.58088  0.41912  1.0000 0.6193652349
C   C274      1.0  0.50000  0.60844  0.39156  1.0000 -0.0511791214
C   C275      1.0  0.50000  0.65947  0.34053  1.0000 0.0876667919
C   C276      1.0  0.50000  0.68676  0.31324  1.0000 -0.0556700344
C   C277      1.0  0.50000  0.91912  0.08088  1.0000 0.6193652349
C   C278      1.0  0.50000  0.89156  0.10844  1.0000 -0.0511791214
C   C279      1.0  0.50000  0.84053  0.15947  1.0000 0.0876667919
C   C280      1.0  0.50000  0.81324  0.18676  1.0000 -0.0511791214
C   C281      1.0  0.16176  0.08088  0.58088  1.0000 0.6193652349
C   C282      1.0  0.21688  0.10844  0.60844  1.0000 -0.0511791214
C   C283      1.0  0.31894  0.15947  0.65947  1.0000 0.0876667919
C   C284      1.0  0.37352  0.18676  0.68676  1.0000 -0.0556700344
C   C285      1.0  0.83824  0.41912  0.91912  1.0000 0.6193652349
C   C286      1.0  0.78312  0.39156  0.89156  1.0000 -0.0511791214
C   C287      1.0  0.68106  0.34053  0.84053  1.0000 0.0876667919
C   C288      1.0  0.62648  0.31324  0.81324  1.0000 -0.0556700344
N   N1        1.0  0.19695  0.44805  0.74890  1.0000 -0.2456905024
N   N2        1.0  0.30085  0.55195  0.74890  1.0000 -0.2443087941
N   N3        1.0  0.80305  0.55195  0.25110  1.0000 -0.2443087941
N   N4        1.0  0.69915  0.44805  0.25110  1.0000 -0.2443087941
N   N5        1.0  0.74890  0.30085  0.55195  1.0000 -0.2456905024
N   N6        1.0  0.74890  0.19695  0.44805  1.0000 -0.2456905024
N   N7        1.0  0.25110  0.69915  0.44805  1.0000 -0.2456905024
N   N8        1.0  0.25110  0.80305  0.55195  1.0000 -0.2456905024
N   N9        1.0  0.44805  0.25110  0.69915  1.0000 -0.2456905024
N   N10       1.0  0.55195  0.25110  0.80305  1.0000 -0.2456905024
N   N11       1.0  0.55195  0.74890  0.30085  1.0000 -0.2443087941
N   N12       1.0  0.44805  0.74890  0.19695  1.0000 -0.2443087941
N   N13       1.0  0.25110  0.55195  0.80305  1.0000 -0.2456905024
N   N14       1.0  0.25110  0.44805  0.69915  1.0000 -0.2456905024
N   N15       1.0  0.74890  0.44805  0.19695  1.0000 -0.2443087941
N   N16       1.0  0.74890  0.55195  0.30085  1.0000 -0.2443087941
N   N17       1.0  0.44805  0.69915  0.25110  1.0000 -0.2456905024
N   N18       1.0  0.55195  0.80305  0.25110  1.0000 -0.2456905024
N   N19       1.0  0.55195  0.30085  0.74890  1.0000 -0.2456905024
N   N20       1.0  0.44805  0.19695  0.74890  1.0000 -0.2456905024
N   N21       1.0  0.30085  0.74890  0.55195  1.0000 -0.2456905024
N   N22       1.0  0.19695  0.74890  0.44805  1.0000 -0.2456905024
N   N23       1.0  0.69915  0.25110  0.44805  1.0000 -0.2443087941
N   N24       1.0  0.80305  0.25110  0.55195  1.0000 -0.2456905024
Cl  Cl1       1.0  0.18751  0.50000  0.68751  1.0000 -0.508269571
Cl  Cl2       1.0  0.81249  0.50000  0.31249  1.0000 -0.508269571
Cl  Cl3       1.0  0.68751  0.18751  0.50000  1.0000 -0.508269571
Cl  Cl4       1.0  0.31249  0.81249  0.50000  1.0000 -0.508269571
Cl  Cl5       1.0  0.50000  0.31249  0.81249  1.0000 -0.508269571
Cl  Cl6       1.0  0.50000  0.68751  0.18751  1.0000 -0.508269571
Cl  Cl7       1.0  0.31249  0.50000  0.81249  1.0000 -0.508269571
Cl  Cl8       1.0  0.68751  0.50000  0.18751  1.0000 -0.508269571
Cl  Cl9       1.0  0.50000  0.81249  0.31249  1.0000 -0.508269571
Cl  Cl10      1.0  0.50000  0.18751  0.68751  1.0000 -0.508269571
Cl  Cl11      1.0  0.18751  0.68751  0.50000  1.0000 -0.508269571
Cl  Cl12      1.0  0.81249  0.31249  0.50000  1.0000 -0.508269571
O   O1        1.0  0.09316  0.14239  0.60651  1.0000 -0.6066811375
O   O2        1.0  0.46412  0.85761  0.95077  1.0000 -0.6066811375
O   O3        1.0  0.90684  0.51335  0.04923  1.0000 -0.6066811375
O   O4        1.0  0.53588  0.48665  0.39349  1.0000 -0.6066811375
O   O5        1.0  0.95077  0.46412  0.85761  1.0000 -0.6066811375
O   O6        1.0  0.60651  0.09316  0.14239  1.0000 -0.6066811375
O   O7        1.0  0.39349  0.53588  0.48665  1.0000 -0.6066811375
O   O8        1.0  0.04923  0.90684  0.51335  1.0000 -0.6066811375
O   O9        1.0  0.48665  0.39349  0.53588  1.0000 -0.6066811375
O   O10       1.0  0.51335  0.04923  0.90684  1.0000 -0.6066811375
O   O11       1.0  0.85761  0.95077  0.46412  1.0000 -0.6066811375
O   O12       1.0  0.14239  0.60651  0.09316  1.0000 -0.6066811375
O   O13       1.0  0.39349  0.85761  0.90684  1.0000 -0.6066811375
O   O14       1.0  0.04923  0.14239  0.53588  1.0000 -0.6066811375
O   O15       1.0  0.95077  0.48665  0.09316  1.0000 -0.6066811375
O   O16       1.0  0.60651  0.51335  0.46412  1.0000 -0.6066811375
O   O17       1.0  0.14239  0.53588  0.04923  1.0000 -0.6049072968
O   O18       1.0  0.85761  0.90684  0.39349  1.0000 -0.6066811375
O   O19       1.0  0.51335  0.46412  0.60651  1.0000 -0.6066811375
O   O20       1.0  0.48665  0.09316  0.95077  1.0000 -0.6066811375
O   O21       1.0  0.46412  0.60651  0.51335  1.0000 -0.6066811375
O   O22       1.0  0.09316  0.95077  0.48665  1.0000 -0.6066811375
O   O23       1.0  0.53588  0.04923  0.14239  1.0000 -0.6066811375
O   O24       1.0  0.90684  0.39349  0.85761  1.0000 -0.6066811375
O   O25       1.0  0.90684  0.85761  0.39349  1.0000 -0.6066811375
O   O26       1.0  0.53588  0.14239  0.04923  1.0000 -0.6066811375
O   O27       1.0  0.09316  0.48665  0.95077  1.0000 -0.6066811375
O   O28       1.0  0.46412  0.51335  0.60651  1.0000 -0.6066811375
O   O29       1.0  0.04923  0.53588  0.14239  1.0000 -0.6049072968
O   O30       1.0  0.39349  0.90684  0.85761  1.0000 -0.6066811375
O   O31       1.0  0.60651  0.46412  0.51335  1.0000 -0.6066811375
O   O32       1.0  0.95077  0.09316  0.48665  1.0000 -0.6066811375
O   O33       1.0  0.51335  0.60651  0.46412  1.0000 -0.6066811375
O   O34       1.0  0.48665  0.95077  0.09316  1.0000 -0.6066811375
O   O35       1.0  0.14239  0.04923  0.53588  1.0000 -0.6066811375
O   O36       1.0  0.85761  0.39349  0.90684  1.0000 -0.6066811375
O   O37       1.0  0.60651  0.14239  0.09316  1.0000 -0.6066811375
O   O38       1.0  0.95077  0.85761  0.46412  1.0000 -0.6066811375
O   O39       1.0  0.04923  0.51335  0.90684  1.0000 -0.6066811375
O   O40       1.0  0.39349  0.48665  0.53588  1.0000 -0.6066811375
O   O41       1.0  0.85761  0.46412  0.95077  1.0000 -0.6066811375
O   O42       1.0  0.14239  0.09316  0.60651  1.0000 -0.6066811375
O   O43       1.0  0.48665  0.53588  0.39349  1.0000 -0.6066811375
O   O44       1.0  0.51335  0.90684  0.04923  1.0000 -0.6066811375
O   O45       1.0  0.53588  0.39349  0.48665  1.0000 -0.6066811375
O   O46       1.0  0.90684  0.04923  0.51335  1.0000 -0.6066811375
O   O47       1.0  0.46412  0.95077  0.85761  1.0000 -0.6066811375
O   O48       1.0  0.09316  0.60651  0.14239  1.0000 -0.6066811375
O   O49       1.0  0.00000  0.00000  0.56618  1.0000 -1.252054098
O   O50       1.0  0.56618  0.00000  0.00000  1.0000 -1.252054098
O   O51       1.0  0.00000  0.56618  0.00000  1.0000 -1.2567829715
O   O52       1.0  0.43382  0.43382  0.43382  1.0000 -1.252054098
O   O53       1.0  0.43382  0.00000  0.00000  1.0000 -1.2567829715
O   O54       1.0  0.00000  0.00000  0.43382  1.0000 -1.252054098
O   O55       1.0  0.00000  0.43382  0.00000  1.0000 -1.252054098
O   O56       1.0  0.56618  0.56618  0.56618  1.0000 -1.252054098
O   O57       1.0  0.00000  0.06231  0.54329  1.0000 -1.1836946861
O   O58       1.0  0.48098  0.93769  0.93769  1.0000 -1.1836946861
O   O59       1.0  0.00000  0.54329  0.06231  1.0000 -1.1836946861
O   O60       1.0  0.51902  0.45671  0.45671  1.0000 -1.1836946861
O   O61       1.0  0.93769  0.48098  0.93769  1.0000 -1.1836946861
O   O62       1.0  0.54329  0.00000  0.06231  1.0000 -1.1836946861
O   O63       1.0  0.45671  0.51902  0.45671  1.0000 -1.1836946861
O   O64       1.0  0.06231  0.00000  0.54329  1.0000 -1.1836946861
O   O65       1.0  0.45671  0.45671  0.51902  1.0000 -1.1836946861
O   O66       1.0  0.54329  0.06231  0.00000  1.0000 -1.1836946861
O   O67       1.0  0.93769  0.93769  0.48098  1.0000 -1.1836946861
O   O68       1.0  0.06231  0.54329  0.00000  1.0000 -1.1836946861
O   O69       1.0  0.45671  0.93769  0.00000  1.0000 -1.1836946861
O   O70       1.0  0.06231  0.06231  0.51902  1.0000 -1.1836946861
O   O71       1.0  0.93769  0.45671  0.00000  1.0000 -1.1836946861
O   O72       1.0  0.54329  0.54329  0.48098  1.0000 -1.1836946861
O   O73       1.0  0.06231  0.51902  0.06231  1.0000 -1.1877921648
O   O74       1.0  0.93769  0.00000  0.45671  1.0000 -1.1877921648
O   O75       1.0  0.54329  0.48098  0.54329  1.0000 -1.1836946861
O   O76       1.0  0.45671  0.00000  0.93769  1.0000 -1.1836946861
O   O77       1.0  0.48098  0.54329  0.54329  1.0000 -1.1836946861
O   O78       1.0  0.00000  0.93769  0.45671  1.0000 -1.1877921648
O   O79       1.0  0.51902  0.06231  0.06231  1.0000 -1.1836946861
O   O80       1.0  0.00000  0.45671  0.93769  1.0000 -1.1836946861
