# DDEC6 charges by PACMAN v1.1 (https://github.com/mtap-research/PACMAN-charge/)
data_2018[Eu][flu]3[ASR]3
_chemical_formula_sum              "Eu2 P2 H24 C42 O14"
_cell_length_a       10.9569
_cell_length_b       11.8031
_cell_length_c       14.4586
_cell_angle_alpha    74.913
_cell_angle_beta     73.288
_cell_angle_gamma    68.056

_symmetry_space_group_name_H-M    "P 1"
_symmetry_Int_Tables_number       1

loop_
  _symmetry_equiv_pos_as_xyz
  'x, y, z'

loop_
  _atom_site_type_symbol
  _atom_site_label
  _atom_site_symmetry_multiplicity
  _atom_site_fract_x
  _atom_site_fract_y
  _atom_site_fract_z
  _atom_site_occupancy
  _atom_site_charge
Eu  Eu1       1.0  0.00351  0.44564  0.37040  1.0000 2.1210540448
Eu  Eu2       1.0  0.99649  0.55436  0.62960  1.0000 2.1210540448
P   P1        1.0  0.84112  0.27727  0.27372  1.0000 0.8964003538
P   P2        1.0  0.15888  0.72273  0.72628  1.0000 0.8964003538
H   H1        1.0  0.80030  0.07300  0.22230  1.0000 0.1121597292
H   H2        1.0  0.87460  0.85970  0.26880  1.0000 0.1358638023
H   H3        1.0  0.09720  0.89210  0.43140  1.0000 0.1209110626
H   H4        1.0  0.02890  0.10440  0.38040  1.0000 0.1209110626
H   H5        1.0  0.02440  0.18120  0.10800  1.0000 0.1121597292
H   H6        1.0  0.07320  0.25480  0.94220  1.0000 0.1277276751
H   H7        1.0  0.75300  0.55810  0.97750  1.0000 0.1277276751
H   H8        1.0  0.71220  0.48970  0.14440  1.0000 0.1209110626
H   H9        1.0  0.58150  0.31820  0.22510  1.0000 0.1121597292
H   H10       1.0  0.36190  0.37170  0.31090  1.0000 0.1277276751
H   H11       1.0  0.48380  0.37260  0.54650  1.0000 0.1209110626
H   H12       1.0  0.70300  0.32560  0.45880  1.0000 0.1277276751
H   H13       1.0  0.19970  0.92700  0.77770  1.0000 0.1121597292
H   H14       1.0  0.12540  0.14030  0.73120  1.0000 0.1358638023
H   H15       1.0  0.90280  0.10790  0.56860  1.0000 0.1209110626
H   H16       1.0  0.97110  0.89560  0.61960  1.0000 0.1209110626
H   H17       1.0  0.97560  0.81880  0.89200  1.0000 0.1121597292
H   H18       1.0  0.92680  0.74520  0.05780  1.0000 0.1277276751
H   H19       1.0  0.24700  0.44190  0.02250  1.0000 0.1277276751
H   H20       1.0  0.28780  0.51030  0.85560  1.0000 0.1209110626
H   H21       1.0  0.41850  0.68180  0.77490  1.0000 0.1121597292
H   H22       1.0  0.63810  0.62830  0.68910  1.0000 0.1277276751
H   H23       1.0  0.51620  0.62740  0.45350  1.0000 0.1209110626
H   H24       1.0  0.29700  0.67440  0.54120  1.0000 0.1277276751
C   C1        1.0  0.90500  0.11010  0.29832  1.0000 -0.1521671201
C   C2        1.0  0.85980  0.03650  0.26450  1.0000 -0.1062137868
C   C3        1.0  0.90300  0.90900  0.29320  1.0000 -0.0919001852
C   C4        1.0  0.98890  0.85470  0.35840  1.0000 -0.0124753673
C   C5        1.0  0.03690  0.92840  0.38980  1.0000 -0.0989246528
C   C6        1.0  0.99570  0.05560  0.35960  1.0000 -0.0919001852
C   C7        1.0  0.02280  0.71740  0.40050  1.0000 0.6299544488
C   C8        1.0  0.86150  0.32640  0.14390  1.0000 -0.1561915214
C   C9        1.0  0.96980  0.25790  0.08210  1.0000 -0.0919001852
C   C10       1.0  0.99860  0.30120  0.98240  1.0000 -0.0989246528
C   C11       1.0  0.91650  0.41330  0.94280  1.0000 0.0014942092
C   C12       1.0  0.80890  0.48240  0.00380  1.0000 -0.0919001852
C   C13       1.0  0.78310  0.44050  0.10370  1.0000 -0.0919001852
C   C14       1.0  0.94770  0.45950  0.83380  1.0000 0.5578493987
C   C15       1.0  0.66540  0.31860  0.33270  1.0000 -0.1561915214
C   C16       1.0  0.56170  0.33100  0.28930  1.0000 -0.1062137868
C   C17       1.0  0.43050  0.36220  0.34090  1.0000 -0.0919001852
C   C18       1.0  0.39920  0.37960  0.43780  1.0000 -0.0124753673
C   C19       1.0  0.50280  0.36360  0.48130  1.0000 -0.0919001852
C   C20       1.0  0.63450  0.33450  0.42890  1.0000 -0.0739826347
C   C21       1.0  0.25610  0.41890  0.49400  1.0000 0.6220468198
C   C22       1.0  0.09500  0.88990  0.70168  1.0000 -0.1521671201
C   C23       1.0  0.14020  0.96350  0.73550  1.0000 -0.1062137868
C   C24       1.0  0.09700  0.09100  0.70680  1.0000 -0.0919001852
C   C25       1.0  0.01110  0.14530  0.64160  1.0000 -0.0124753673
C   C26       1.0  0.96310  0.07160  0.61020  1.0000 -0.0989246528
C   C27       1.0  0.00430  0.94440  0.64040  1.0000 -0.0919001852
C   C28       1.0  0.97720  0.28260  0.59950  1.0000 0.6299544488
C   C29       1.0  0.13850  0.67360  0.85610  1.0000 -0.1561915214
C   C30       1.0  0.03020  0.74210  0.91790  1.0000 -0.0919001852
C   C31       1.0  0.00140  0.69880  0.01760  1.0000 -0.0989246528
C   C32       1.0  0.08350  0.58670  0.05720  1.0000 0.0014942092
C   C33       1.0  0.19110  0.51760  0.99620  1.0000 -0.0919001852
C   C34       1.0  0.21690  0.55950  0.89630  1.0000 -0.0919001852
C   C35       1.0  0.05230  0.54050  0.16620  1.0000 0.5578493987
C   C36       1.0  0.33460  0.68140  0.66730  1.0000 -0.1561915214
C   C37       1.0  0.43830  0.66900  0.71070  1.0000 -0.1062137868
C   C38       1.0  0.56950  0.63780  0.65910  1.0000 -0.0919001852
C   C39       1.0  0.60080  0.62040  0.56220  1.0000 -0.0124753673
C   C40       1.0  0.49720  0.63640  0.51870  1.0000 -0.0919001852
C   C41       1.0  0.36550  0.66550  0.57110  1.0000 -0.0739826347
C   C42       1.0  0.74390  0.58110  0.50600  1.0000 0.6220468198
O   O1        1.0  0.91240  0.32931  0.31693  1.0000 -0.772009858
O   O2        1.0  0.00850  0.65105  0.35244  1.0000 -0.6419615234
O   O3        1.0  0.05980  0.68366  0.48045  1.0000 -0.667000183
O   O4        1.0  0.85160  0.53220  0.79374  1.0000 -0.6528121318
O   O5        1.0  0.06580  0.42650  0.78719  1.0000 -0.5895983364
O   O6        1.0  0.16360  0.42716  0.45502  1.0000 -0.7389495458
O   O7        1.0  0.23360  0.44493  0.57776  1.0000 -0.6163039292
O   O8        1.0  0.08760  0.67069  0.68307  1.0000 -0.772009858
O   O9        1.0  0.99150  0.34895  0.64756  1.0000 -0.6419615234
O   O10       1.0  0.94020  0.31634  0.51955  1.0000 -0.667000183
O   O11       1.0  0.14840  0.46780  0.20626  1.0000 -0.6528121318
O   O12       1.0  0.93420  0.57350  0.21281  1.0000 -0.5895983364
O   O13       1.0  0.83640  0.57284  0.54498  1.0000 -0.7389495458
O   O14       1.0  0.76640  0.55507  0.42224  1.0000 -0.6163039292
