# DDEC6 charges by PACMAN v1.1 (https://github.com/mtap-research/PACMAN-charge/)
data_2018[Co][flu]3[ASR]2
_chemical_formula_sum              "Co16 H88 C144 N24 O56"
_cell_length_a       14.932
_cell_length_b       17.072
_cell_length_c       21.282
_cell_angle_alpha    90
_cell_angle_beta     90
_cell_angle_gamma    90

_symmetry_space_group_name_H-M    "P 1"
_symmetry_Int_Tables_number       1

loop_
  _symmetry_equiv_pos_as_xyz
  'x, y, z'

loop_
  _atom_site_type_symbol
  _atom_site_label
  _atom_site_symmetry_multiplicity
  _atom_site_fract_x
  _atom_site_fract_y
  _atom_site_fract_z
  _atom_site_occupancy
  _atom_site_charge
Co  Co1       1.0  0.59889  0.46863  0.48766  1.0000 0.9805322509
Co  Co2       1.0  0.90111  0.53137  0.98766  1.0000 0.9805322509
Co  Co3       1.0  0.40111  0.96863  0.01234  1.0000 0.9805322509
Co  Co4       1.0  0.09889  0.03137  0.51234  1.0000 0.9805322509
Co  Co5       1.0  0.40111  0.53137  0.51234  1.0000 0.9805322509
Co  Co6       1.0  0.09889  0.46863  0.01234  1.0000 0.9805322509
Co  Co7       1.0  0.59889  0.03137  0.98766  1.0000 0.9805322509
Co  Co8       1.0  0.90111  0.96863  0.48766  1.0000 0.9805322509
Co  Co9       1.0  0.44266  0.38951  0.39150  1.0000 0.9717681777
Co  Co10      1.0  0.05734  0.61049  0.89150  1.0000 0.9717681777
Co  Co11      1.0  0.55734  0.88951  0.10850  1.0000 0.9717681777
Co  Co12      1.0  0.94266  0.11049  0.60850  1.0000 0.9717681777
Co  Co13      1.0  0.55734  0.61049  0.60850  1.0000 0.9717681777
Co  Co14      1.0  0.94266  0.38951  0.10850  1.0000 0.9717681777
Co  Co15      1.0  0.44266  0.11049  0.89150  1.0000 0.9717681777
Co  Co16      1.0  0.05734  0.88951  0.39150  1.0000 0.9717681777
H   H1        1.0  0.44910  0.39090  0.50660  1.0000 0.3846632611
H   H2        1.0  0.05090  0.60910  0.00660  1.0000 0.3846632611
H   H3        1.0  0.55090  0.89090  0.99340  1.0000 0.3846632611
H   H4        1.0  0.94910  0.10910  0.49340  1.0000 0.3846632611
H   H5        1.0  0.55090  0.60910  0.49340  1.0000 0.3846632611
H   H6        1.0  0.94910  0.39090  0.99340  1.0000 0.3846632611
H   H7        1.0  0.44910  0.10910  0.00660  1.0000 0.3846632611
H   H8        1.0  0.05090  0.89090  0.50660  1.0000 0.3846632611
H   H9        1.0  0.73970  0.49340  0.22000  1.0000 0.1462204155
H   H10       1.0  0.76030  0.50660  0.72000  1.0000 0.1462204155
H   H11       1.0  0.26030  0.99340  0.28000  1.0000 0.1462204155
H   H12       1.0  0.23970  0.00660  0.78000  1.0000 0.1462204155
H   H13       1.0  0.26030  0.50660  0.78000  1.0000 0.1462204155
H   H14       1.0  0.23970  0.49340  0.28000  1.0000 0.1462204155
H   H15       1.0  0.73970  0.00660  0.72000  1.0000 0.1462204155
H   H16       1.0  0.76030  0.99340  0.22000  1.0000 0.1462204155
H   H17       1.0  0.75930  0.67560  0.10110  1.0000 0.1398179074
H   H18       1.0  0.74070  0.32440  0.60110  1.0000 0.1398179074
H   H19       1.0  0.24070  0.17560  0.39890  1.0000 0.1398179074
H   H20       1.0  0.25930  0.82440  0.89890  1.0000 0.1398179074
H   H21       1.0  0.24070  0.32440  0.89890  1.0000 0.1398179074
H   H22       1.0  0.25930  0.67560  0.39890  1.0000 0.1398179074
H   H23       1.0  0.75930  0.82440  0.60110  1.0000 0.1398179074
H   H24       1.0  0.74070  0.17560  0.10110  1.0000 0.1398179074
H   H25       1.0  0.59040  0.68670  0.24870  1.0000 0.1398179074
H   H26       1.0  0.90960  0.31330  0.74870  1.0000 0.1398179074
H   H27       1.0  0.40960  0.18670  0.25130  1.0000 0.1398179074
H   H28       1.0  0.09040  0.81330  0.75130  1.0000 0.1398179074
H   H29       1.0  0.40960  0.31330  0.75130  1.0000 0.1398179074
H   H30       1.0  0.09040  0.68670  0.25130  1.0000 0.1398179074
H   H31       1.0  0.59040  0.81330  0.74870  1.0000 0.1398179074
H   H32       1.0  0.90960  0.18670  0.24870  1.0000 0.1398179074
H   H33       1.0  0.61540  0.68190  0.42510  1.0000 0.1398179074
H   H34       1.0  0.88460  0.31810  0.92510  1.0000 0.1306572213
H   H35       1.0  0.38460  0.18190  0.07490  1.0000 0.1398179074
H   H36       1.0  0.11540  0.81810  0.57490  1.0000 0.1398179074
H   H37       1.0  0.38460  0.31810  0.57490  1.0000 0.1398179074
H   H38       1.0  0.11540  0.68190  0.07490  1.0000 0.1398179074
H   H39       1.0  0.61540  0.81810  0.92510  1.0000 0.1306572213
H   H40       1.0  0.88460  0.18190  0.42510  1.0000 0.1398179074
H   H41       1.0  0.71270  0.78070  0.45500  1.0000 0.1306572213
H   H42       1.0  0.78730  0.21930  0.95500  1.0000 0.1306572213
H   H43       1.0  0.28730  0.28070  0.04500  1.0000 0.1306572213
H   H44       1.0  0.21270  0.71930  0.54500  1.0000 0.1306572213
H   H45       1.0  0.28730  0.21930  0.54500  1.0000 0.1306572213
H   H46       1.0  0.21270  0.78070  0.04500  1.0000 0.1306572213
H   H47       1.0  0.71270  0.71930  0.95500  1.0000 0.1306572213
H   H48       1.0  0.78730  0.28070  0.45500  1.0000 0.1306572213
H   H49       1.0  0.91410  0.67260  0.36490  1.0000 0.1306572213
H   H50       1.0  0.58590  0.32740  0.86490  1.0000 0.1306572213
H   H51       1.0  0.08590  0.17260  0.13510  1.0000 0.1306572213
H   H52       1.0  0.41410  0.82740  0.63510  1.0000 0.1306572213
H   H53       1.0  0.08590  0.32740  0.63510  1.0000 0.1306572213
H   H54       1.0  0.41410  0.67260  0.13510  1.0000 0.1306572213
H   H55       1.0  0.91410  0.82740  0.86490  1.0000 0.1306572213
H   H56       1.0  0.58590  0.17260  0.36490  1.0000 0.1306572213
H   H57       1.0  0.81790  0.57180  0.33770  1.0000 0.1224134263
H   H58       1.0  0.68210  0.42820  0.83770  1.0000 0.1224134263
H   H59       1.0  0.18210  0.07180  0.16230  1.0000 0.1224134263
H   H60       1.0  0.31790  0.92820  0.66230  1.0000 0.1224134263
H   H61       1.0  0.18210  0.42820  0.66230  1.0000 0.1224134263
H   H62       1.0  0.31790  0.57180  0.16230  1.0000 0.1224134263
H   H63       1.0  0.81790  0.92820  0.83770  1.0000 0.1224134263
H   H64       1.0  0.68210  0.07180  0.33770  1.0000 0.1224134263
H   H65       1.0  0.52610  0.49490  0.20130  1.0000 0.1462204155
H   H66       1.0  0.97390  0.50510  0.70130  1.0000 0.1462204155
H   H67       1.0  0.47390  0.99490  0.29870  1.0000 0.1462204155
H   H68       1.0  0.02610  0.00510  0.79870  1.0000 0.1462204155
H   H69       1.0  0.47390  0.50510  0.79870  1.0000 0.1462204155
H   H70       1.0  0.02610  0.49490  0.29870  1.0000 0.1462204155
H   H71       1.0  0.52610  0.00510  0.70130  1.0000 0.1462204155
H   H72       1.0  0.97390  0.99490  0.20130  1.0000 0.1462204155
H   H73       1.0  0.43970  0.48010  0.24140  1.0000 0.1670703661
H   H74       1.0  0.06030  0.51990  0.74140  1.0000 0.1670703661
H   H75       1.0  0.56030  0.98010  0.25860  1.0000 0.1670703661
H   H76       1.0  0.93970  0.01990  0.75860  1.0000 0.1670703661
H   H77       1.0  0.56030  0.51990  0.75860  1.0000 0.1670703661
H   H78       1.0  0.93970  0.48010  0.25860  1.0000 0.1670703661
H   H79       1.0  0.43970  0.01990  0.74140  1.0000 0.1670703661
H   H80       1.0  0.06030  0.98010  0.24140  1.0000 0.1670703661
H   H81       1.0  0.50920  0.41240  0.23140  1.0000 0.1840673421
H   H82       1.0  0.99080  0.58760  0.73140  1.0000 0.1840673421
H   H83       1.0  0.49080  0.91240  0.26860  1.0000 0.1840673421
H   H84       1.0  0.00920  0.08760  0.76860  1.0000 0.1840673421
H   H85       1.0  0.49080  0.58760  0.76860  1.0000 0.1840673421
H   H86       1.0  0.00920  0.41240  0.26860  1.0000 0.1840673421
H   H87       1.0  0.50920  0.08760  0.73140  1.0000 0.1840673421
H   H88       1.0  0.99080  0.91240  0.23140  1.0000 0.1840673421
C   C1        1.0  0.64127  0.55732  0.35688  1.0000 0.2420636859
C   C2        1.0  0.85873  0.44268  0.85688  1.0000 0.2420636859
C   C3        1.0  0.35873  0.05732  0.14312  1.0000 0.2420636859
C   C4        1.0  0.14127  0.94268  0.64312  1.0000 0.2420636859
C   C5        1.0  0.35873  0.44268  0.64312  1.0000 0.2420636859
C   C6        1.0  0.14127  0.55732  0.14312  1.0000 0.2420636859
C   C7        1.0  0.64127  0.94268  0.85688  1.0000 0.2420636859
C   C8        1.0  0.85873  0.05732  0.35688  1.0000 0.2420636859
C   C9        1.0  0.55091  0.49285  0.29472  1.0000 0.3612965714
C   C10       1.0  0.94909  0.50715  0.79472  1.0000 0.3612965714
C   C11       1.0  0.44909  0.99285  0.20528  1.0000 0.3612965714
C   C12       1.0  0.05091  0.00715  0.70528  1.0000 0.3612965714
C   C13       1.0  0.44909  0.50715  0.70528  1.0000 0.3612965714
C   C14       1.0  0.05091  0.49285  0.20528  1.0000 0.3612965714
C   C15       1.0  0.55091  0.00715  0.79472  1.0000 0.3612965714
C   C16       1.0  0.94909  0.99285  0.29472  1.0000 0.3612965714
C   C17       1.0  0.65857  0.58450  0.24141  1.0000 0.1592340689
C   C18       1.0  0.84143  0.41550  0.74141  1.0000 0.1592340689
C   C19       1.0  0.34143  0.08450  0.25859  1.0000 0.1592340689
C   C20       1.0  0.15857  0.91550  0.75859  1.0000 0.1592340689
C   C21       1.0  0.34143  0.41550  0.75859  1.0000 0.1592340689
C   C22       1.0  0.15857  0.58450  0.25859  1.0000 0.1592340689
C   C23       1.0  0.65857  0.91550  0.74141  1.0000 0.1592340689
C   C24       1.0  0.84143  0.08450  0.24141  1.0000 0.1592340689
C   C25       1.0  0.72297  0.54362  0.20780  1.0000 -0.1995591833
C   C26       1.0  0.77703  0.45638  0.70780  1.0000 -0.1995591833
C   C27       1.0  0.27703  0.04362  0.29220  1.0000 -0.1995591833
C   C28       1.0  0.22297  0.95638  0.79220  1.0000 -0.2051219273
C   C29       1.0  0.27703  0.45638  0.79220  1.0000 -0.1995591833
C   C30       1.0  0.22297  0.54362  0.29220  1.0000 -0.1995591833
C   C31       1.0  0.72297  0.95638  0.70780  1.0000 -0.2051219273
C   C32       1.0  0.77703  0.04362  0.20780  1.0000 -0.1995591833
C   C33       1.0  0.76236  0.57862  0.15545  1.0000 0.009028243
C   C34       1.0  0.73764  0.42138  0.65545  1.0000 0.009028243
C   C35       1.0  0.23764  0.07862  0.34455  1.0000 0.009028243
C   C36       1.0  0.26236  0.92138  0.84455  1.0000 0.009028243
C   C37       1.0  0.23764  0.42138  0.84455  1.0000 0.009028243
C   C38       1.0  0.26236  0.57862  0.34455  1.0000 0.009028243
C   C39       1.0  0.76236  0.92138  0.65545  1.0000 0.009028243
C   C40       1.0  0.73764  0.07862  0.15545  1.0000 0.009028243
C   C41       1.0  0.73464  0.65279  0.13685  1.0000 -0.1257410742
C   C42       1.0  0.76536  0.34721  0.63685  1.0000 -0.1257410742
C   C43       1.0  0.26536  0.15279  0.36315  1.0000 -0.1257410742
C   C44       1.0  0.23464  0.84721  0.86315  1.0000 -0.1257410742
C   C45       1.0  0.26536  0.34721  0.86315  1.0000 -0.1257410742
C   C46       1.0  0.23464  0.65279  0.36315  1.0000 -0.1257410742
C   C47       1.0  0.73464  0.84721  0.63685  1.0000 -0.1257410742
C   C48       1.0  0.76536  0.15279  0.13685  1.0000 -0.1257410742
C   C49       1.0  0.67023  0.69324  0.17133  1.0000 0.0275464278
C   C50       1.0  0.82977  0.30676  0.67133  1.0000 0.0275464278
C   C51       1.0  0.32977  0.19324  0.32867  1.0000 0.0275464278
C   C52       1.0  0.17023  0.80676  0.82867  1.0000 0.0275464278
C   C53       1.0  0.32977  0.30676  0.82867  1.0000 0.0275464278
C   C54       1.0  0.17023  0.69324  0.32867  1.0000 0.0275464278
C   C55       1.0  0.67023  0.80676  0.67133  1.0000 0.0275464278
C   C56       1.0  0.82977  0.19324  0.17133  1.0000 0.0275464278
C   C57       1.0  0.63230  0.65949  0.22481  1.0000 -0.1995591833
C   C58       1.0  0.86770  0.34051  0.72481  1.0000 -0.1995591833
C   C59       1.0  0.36770  0.15949  0.27519  1.0000 -0.1995591833
C   C60       1.0  0.13230  0.84051  0.77519  1.0000 -0.1995591833
C   C61       1.0  0.36770  0.34051  0.77519  1.0000 -0.1995591833
C   C62       1.0  0.13230  0.65949  0.27519  1.0000 -0.1995591833
C   C63       1.0  0.63230  0.84051  0.72481  1.0000 -0.1995591833
C   C64       1.0  0.86770  0.15949  0.22481  1.0000 -0.1995591833
C   C65       1.0  0.83306  0.53498  0.11889  1.0000 0.5721604597
C   C66       1.0  0.66694  0.46502  0.61889  1.0000 0.5721604597
C   C67       1.0  0.16694  0.03498  0.38111  1.0000 0.5721604597
C   C68       1.0  0.33306  0.96502  0.88111  1.0000 0.5721604597
C   C69       1.0  0.16694  0.46502  0.88111  1.0000 0.5721604597
C   C70       1.0  0.33306  0.53498  0.38111  1.0000 0.5721604597
C   C71       1.0  0.83306  0.96502  0.61889  1.0000 0.5721604597
C   C72       1.0  0.66694  0.03498  0.11889  1.0000 0.5721604597
C   C73       1.0  0.63829  0.77207  0.14980  1.0000 0.5402331125
C   C74       1.0  0.86171  0.22793  0.64980  1.0000 0.5402331125
C   C75       1.0  0.36171  0.27207  0.35020  1.0000 0.5402331125
C   C76       1.0  0.13829  0.72793  0.85020  1.0000 0.5402331125
C   C77       1.0  0.36171  0.22793  0.85020  1.0000 0.5402331125
C   C78       1.0  0.13829  0.77207  0.35020  1.0000 0.5402331125
C   C79       1.0  0.63829  0.72793  0.64980  1.0000 0.5402331125
C   C80       1.0  0.86171  0.27207  0.14980  1.0000 0.5402331125
C   C81       1.0  0.70660  0.61747  0.37795  1.0000 0.009028243
C   C82       1.0  0.79340  0.38253  0.87795  1.0000 0.009028243
C   C83       1.0  0.29340  0.11747  0.12205  1.0000 0.009028243
C   C84       1.0  0.20660  0.88253  0.62205  1.0000 0.009028243
C   C85       1.0  0.29340  0.38253  0.62205  1.0000 0.009028243
C   C86       1.0  0.20660  0.61747  0.12205  1.0000 0.009028243
C   C87       1.0  0.70660  0.88253  0.87795  1.0000 0.009028243
C   C88       1.0  0.79340  0.11747  0.37795  1.0000 0.009028243
C   C89       1.0  0.67526  0.67988  0.41309  1.0000 -0.1380414221
C   C90       1.0  0.82474  0.32012  0.91309  1.0000 -0.1380414221
C   C91       1.0  0.32474  0.17988  0.08691  1.0000 -0.1380414221
C   C92       1.0  0.17526  0.82012  0.58691  1.0000 -0.1380414221
C   C93       1.0  0.32474  0.32012  0.58691  1.0000 -0.1380414221
C   C94       1.0  0.17526  0.67988  0.08691  1.0000 -0.1380414221
C   C95       1.0  0.67526  0.82012  0.91309  1.0000 -0.1380414221
C   C96       1.0  0.82474  0.17988  0.41309  1.0000 -0.1380414221
C   C97       1.0  0.73348  0.73949  0.43043  1.0000 -0.0755602646
C   C98       1.0  0.76652  0.26051  0.93043  1.0000 -0.0755602646
C   C99       1.0  0.26652  0.23949  0.06957  1.0000 -0.0755602646
C   C100      1.0  0.23348  0.76051  0.56957  1.0000 -0.0755602646
C   C101      1.0  0.26652  0.26051  0.56957  1.0000 -0.0755602646
C   C102      1.0  0.23348  0.73949  0.06957  1.0000 -0.0755602646
C   C103      1.0  0.73348  0.76051  0.93043  1.0000 -0.0755602646
C   C104      1.0  0.76652  0.23949  0.43043  1.0000 -0.0755602646
C   C105      1.0  0.82260  0.73825  0.41149  1.0000 -0.008103917
C   C106      1.0  0.67740  0.26175  0.91149  1.0000 -0.008103917
C   C107      1.0  0.17740  0.23825  0.08851  1.0000 -0.008103917
C   C108      1.0  0.32260  0.76175  0.58851  1.0000 -0.008103917
C   C109      1.0  0.17740  0.26175  0.58851  1.0000 -0.008103917
C   C110      1.0  0.32260  0.73825  0.08851  1.0000 -0.008103917
C   C111      1.0  0.82260  0.76175  0.91149  1.0000 -0.008103917
C   C112      1.0  0.67740  0.23825  0.41149  1.0000 -0.008103917
C   C113      1.0  0.85423  0.67463  0.37693  1.0000 -0.0947838578
C   C114      1.0  0.64577  0.32537  0.87693  1.0000 -0.0947838578
C   C115      1.0  0.14577  0.17463  0.12307  1.0000 -0.0947838578
C   C116      1.0  0.35423  0.82537  0.62307  1.0000 -0.0947838578
C   C117      1.0  0.14577  0.32537  0.62307  1.0000 -0.0947838578
C   C118      1.0  0.35423  0.67463  0.12307  1.0000 -0.0947838578
C   C119      1.0  0.85423  0.82537  0.87693  1.0000 -0.0947838578
C   C120      1.0  0.64577  0.17463  0.37693  1.0000 -0.0947838578
C   C121      1.0  0.79658  0.61434  0.36045  1.0000 -0.147368383
C   C122      1.0  0.70342  0.38566  0.86045  1.0000 -0.147368383
C   C123      1.0  0.20342  0.11434  0.13955  1.0000 -0.147368383
C   C124      1.0  0.29658  0.88566  0.63955  1.0000 -0.147368383
C   C125      1.0  0.20342  0.38566  0.63955  1.0000 -0.147368383
C   C126      1.0  0.29658  0.61434  0.13955  1.0000 -0.147368383
C   C127      1.0  0.79658  0.88566  0.86045  1.0000 -0.147368383
C   C128      1.0  0.70342  0.11434  0.36045  1.0000 -0.147368383
C   C129      1.0  0.88338  0.80698  0.42529  1.0000 0.590842716
C   C130      1.0  0.61662  0.19302  0.92529  1.0000 0.590842716
C   C131      1.0  0.11662  0.30698  0.07471  1.0000 0.590842716
C   C132      1.0  0.38338  0.69302  0.57471  1.0000 0.590842716
C   C133      1.0  0.11662  0.19302  0.57471  1.0000 0.590842716
C   C134      1.0  0.38338  0.80698  0.07471  1.0000 0.590842716
C   C135      1.0  0.88338  0.69302  0.92529  1.0000 0.590842716
C   C136      1.0  0.61662  0.30698  0.42529  1.0000 0.590842716
C   C137      1.0  0.50215  0.46782  0.23707  1.0000 -0.513021462
C   C138      1.0  0.99785  0.53218  0.73707  1.0000 -0.513021462
C   C139      1.0  0.49785  0.96782  0.26293  1.0000 -0.513021462
C   C140      1.0  0.00215  0.03218  0.76293  1.0000 -0.513021462
C   C141      1.0  0.49785  0.53218  0.76293  1.0000 -0.513021462
C   C142      1.0  0.00215  0.46782  0.26293  1.0000 -0.513021462
C   C143      1.0  0.50215  0.03218  0.73707  1.0000 -0.513021462
C   C144      1.0  0.99785  0.96782  0.23707  1.0000 -0.513021462
N   N1        1.0  0.61822  0.54729  0.29534  1.0000 -0.1161197586
N   N2        1.0  0.88178  0.45271  0.79534  1.0000 -0.1161197586
N   N3        1.0  0.38178  0.04729  0.20466  1.0000 -0.1161197586
N   N4        1.0  0.11822  0.95271  0.70466  1.0000 -0.1161197586
N   N5        1.0  0.38178  0.45271  0.70466  1.0000 -0.1161197586
N   N6        1.0  0.11822  0.54729  0.20466  1.0000 -0.1161197586
N   N7        1.0  0.61822  0.95271  0.79534  1.0000 -0.1161197586
N   N8        1.0  0.88178  0.04729  0.29534  1.0000 -0.1161197586
N   N9        1.0  0.59280  0.51029  0.39169  1.0000 -0.2597616169
N   N10       1.0  0.90720  0.48971  0.89169  1.0000 -0.2597616169
N   N11       1.0  0.40720  0.01029  0.10831  1.0000 -0.2597616169
N   N12       1.0  0.09280  0.98971  0.60831  1.0000 -0.2597616169
N   N13       1.0  0.40720  0.48971  0.60831  1.0000 -0.2597616169
N   N14       1.0  0.09280  0.51029  0.10831  1.0000 -0.2597616169
N   N15       1.0  0.59280  0.98971  0.89169  1.0000 -0.2597616169
N   N16       1.0  0.90720  0.01029  0.39169  1.0000 -0.2597616169
N   N17       1.0  0.53525  0.46972  0.35228  1.0000 -0.2597616169
N   N18       1.0  0.96475  0.53028  0.85228  1.0000 -0.2597616169
N   N19       1.0  0.46475  0.96972  0.14772  1.0000 -0.2597616169
N   N20       1.0  0.03525  0.03028  0.64772  1.0000 -0.2597616169
N   N21       1.0  0.46475  0.53028  0.64772  1.0000 -0.2597616169
N   N22       1.0  0.03525  0.46972  0.14772  1.0000 -0.2597616169
N   N23       1.0  0.53525  0.03028  0.85228  1.0000 -0.2597616169
N   N24       1.0  0.96475  0.96972  0.35228  1.0000 -0.2597616169
O   O1        1.0  0.88202  0.57294  0.08150  1.0000 -0.5415230918
O   O2        1.0  0.61798  0.42706  0.58150  1.0000 -0.5415230918
O   O3        1.0  0.11798  0.07294  0.41850  1.0000 -0.5415230918
O   O4        1.0  0.38202  0.92706  0.91850  1.0000 -0.5415230918
O   O5        1.0  0.11798  0.42706  0.91850  1.0000 -0.5415230918
O   O6        1.0  0.38202  0.57294  0.41850  1.0000 -0.5415230918
O   O7        1.0  0.88202  0.92706  0.58150  1.0000 -0.5415230918
O   O8        1.0  0.61798  0.07294  0.08150  1.0000 -0.5415230918
O   O9        1.0  0.83671  0.46204  0.12860  1.0000 -0.5415230918
O   O10       1.0  0.66329  0.53796  0.62860  1.0000 -0.5415230918
O   O11       1.0  0.16329  0.96204  0.37140  1.0000 -0.5415230918
O   O12       1.0  0.33671  0.03796  0.87140  1.0000 -0.5415230918
O   O13       1.0  0.16329  0.53796  0.87140  1.0000 -0.5415230918
O   O14       1.0  0.33671  0.46204  0.37140  1.0000 -0.5415230918
O   O15       1.0  0.83671  0.03796  0.62860  1.0000 -0.5415230918
O   O16       1.0  0.66329  0.96204  0.12860  1.0000 -0.5415230918
O   O17       1.0  0.59924  0.81688  0.18809  1.0000 -0.5463907648
O   O18       1.0  0.90076  0.18312  0.68809  1.0000 -0.5463907648
O   O19       1.0  0.40076  0.31688  0.31191  1.0000 -0.5463907648
O   O20       1.0  0.09924  0.68312  0.81191  1.0000 -0.5463907648
O   O21       1.0  0.40076  0.18312  0.81191  1.0000 -0.5463907648
O   O22       1.0  0.09924  0.81688  0.31191  1.0000 -0.5463907648
O   O23       1.0  0.59924  0.68312  0.68809  1.0000 -0.5463907648
O   O24       1.0  0.90076  0.31688  0.18809  1.0000 -0.5463907648
O   O25       1.0  0.64868  0.79047  0.09308  1.0000 -0.5303296674
O   O26       1.0  0.85132  0.20953  0.59308  1.0000 -0.5303296674
O   O27       1.0  0.35132  0.29047  0.40692  1.0000 -0.5303296674
O   O28       1.0  0.14868  0.70953  0.90692  1.0000 -0.5303296674
O   O29       1.0  0.35132  0.20953  0.90692  1.0000 -0.5303296674
O   O30       1.0  0.14868  0.79047  0.40692  1.0000 -0.5303296674
O   O31       1.0  0.64868  0.70953  0.59308  1.0000 -0.5303296674
O   O32       1.0  0.85132  0.29047  0.09308  1.0000 -0.5303296674
O   O33       1.0  0.85256  0.86044  0.45922  1.0000 -0.5577458966
O   O34       1.0  0.64744  0.13956  0.95922  1.0000 -0.5577458966
O   O35       1.0  0.14744  0.36044  0.04078  1.0000 -0.5577458966
O   O36       1.0  0.35256  0.63956  0.54078  1.0000 -0.5577458966
O   O37       1.0  0.14744  0.13956  0.54078  1.0000 -0.5577458966
O   O38       1.0  0.35256  0.86044  0.04078  1.0000 -0.5577458966
O   O39       1.0  0.85256  0.63956  0.95922  1.0000 -0.5577458966
O   O40       1.0  0.64744  0.36044  0.45922  1.0000 -0.5577458966
O   O41       1.0  0.95936  0.80540  0.39986  1.0000 -0.5463907648
O   O42       1.0  0.54064  0.19460  0.89986  1.0000 -0.5463907648
O   O43       1.0  0.04064  0.30540  0.10014  1.0000 -0.5463907648
O   O44       1.0  0.45936  0.69460  0.60014  1.0000 -0.5463907648
O   O45       1.0  0.04064  0.19460  0.60014  1.0000 -0.5463907648
O   O46       1.0  0.45936  0.80540  0.10014  1.0000 -0.5463907648
O   O47       1.0  0.95936  0.69460  0.89986  1.0000 -0.5463907648
O   O48       1.0  0.54064  0.30540  0.39986  1.0000 -0.5463907648
O   O49       1.0  0.46295  0.43070  0.48043  1.0000 -0.8901914734
O   O50       1.0  0.03705  0.56930  0.98043  1.0000 -0.8901914734
O   O51       1.0  0.53705  0.93070  0.01957  1.0000 -0.8901914734
O   O52       1.0  0.96295  0.06930  0.51957  1.0000 -0.8901914734
O   O53       1.0  0.53705  0.56930  0.51957  1.0000 -0.8901914734
O   O54       1.0  0.96295  0.43070  0.01957  1.0000 -0.8901914734
O   O55       1.0  0.46295  0.06930  0.98043  1.0000 -0.8901914734
O   O56       1.0  0.03705  0.93070  0.48043  1.0000 -0.8901914734
