# DDEC6 charges by PACMAN v1.1 (https://github.com/mtap-research/PACMAN-charge/)
data_2018[Tb][nan]3[ASR]2
_chemical_formula_sum              "Tb4 H36 C64 O28"
_cell_length_a       16.0127
_cell_length_b       16.0127
_cell_length_c       13.644
_cell_angle_alpha    83.4955
_cell_angle_beta     96.5045
_cell_angle_gamma    126.627

_symmetry_space_group_name_H-M    "P 1"
_symmetry_Int_Tables_number       1

loop_
  _symmetry_equiv_pos_as_xyz
  'x, y, z'

loop_
  _atom_site_type_symbol
  _atom_site_label
  _atom_site_symmetry_multiplicity
  _atom_site_fract_x
  _atom_site_fract_y
  _atom_site_fract_z
  _atom_site_occupancy
  _atom_site_charge
Tb  Tb1       1.0  0.02658  0.39224  0.53681  1.0000 2.0567201136
Tb  Tb2       1.0  0.39224  0.02658  0.96319  1.0000 2.0567201136
Tb  Tb3       1.0  0.97342  0.60776  0.46319  1.0000 2.0567201136
Tb  Tb4       1.0  0.60776  0.97342  0.03681  1.0000 2.0567201136
H   H1        1.0  0.19577  0.73097  0.21612  1.0000 0.1318620538
H   H2        1.0  0.39665  0.71585  0.08187  1.0000 0.1318620538
H   H3        1.0  0.21460  0.49202  0.28356  1.0000 0.1230252443
H   H4        1.0  0.40574  0.54804  0.22004  1.0000 0.1080305783
H   H5        1.0  0.40108  0.57270  0.10546  1.0000 0.1045730023
H   H6        1.0  0.46023  0.47997  0.10721  1.0000 0.1080305783
H   H7        1.0  0.48710  0.36638  0.05296  1.0000 0.1080305783
H   H8        1.0  0.18801  0.13263  0.08177  1.0000 0.1230252443
H   H9        1.0  0.15931  0.24465  0.13129  1.0000 0.1318620538
H   H10       1.0  0.73097  0.19577  0.28388  1.0000 0.1318620538
H   H11       1.0  0.71585  0.39665  0.41813  1.0000 0.1318620538
H   H12       1.0  0.49202  0.21460  0.21644  1.0000 0.1230252443
H   H13       1.0  0.54804  0.40574  0.27996  1.0000 0.1080305783
H   H14       1.0  0.57270  0.40108  0.39454  1.0000 0.1045730023
H   H15       1.0  0.47997  0.46023  0.39279  1.0000 0.1080305783
H   H16       1.0  0.36638  0.48710  0.44704  1.0000 0.1080305783
H   H17       1.0  0.13263  0.18801  0.41823  1.0000 0.1230252443
H   H18       1.0  0.24465  0.15931  0.36871  1.0000 0.1318620538
H   H19       1.0  0.80423  0.26903  0.78388  1.0000 0.1318620538
H   H20       1.0  0.60335  0.28415  0.91813  1.0000 0.1318620538
H   H21       1.0  0.78540  0.50798  0.71644  1.0000 0.1230252443
H   H22       1.0  0.59426  0.45196  0.77996  1.0000 0.1080305783
H   H23       1.0  0.59892  0.42730  0.89454  1.0000 0.1045730023
H   H24       1.0  0.53977  0.52003  0.89279  1.0000 0.1080305783
H   H25       1.0  0.51290  0.63362  0.94704  1.0000 0.1080305783
H   H26       1.0  0.81199  0.86737  0.91823  1.0000 0.1230252443
H   H27       1.0  0.84069  0.75535  0.86871  1.0000 0.1318620538
H   H28       1.0  0.26903  0.80423  0.71612  1.0000 0.1318620538
H   H29       1.0  0.28415  0.60335  0.58187  1.0000 0.1318620538
H   H30       1.0  0.50798  0.78540  0.78356  1.0000 0.1230252443
H   H31       1.0  0.45196  0.59426  0.72004  1.0000 0.1080305783
H   H32       1.0  0.42730  0.59892  0.60546  1.0000 0.1045730023
H   H33       1.0  0.52003  0.53977  0.60721  1.0000 0.1080305783
H   H34       1.0  0.63362  0.51290  0.55296  1.0000 0.1080305783
H   H35       1.0  0.86737  0.81199  0.58177  1.0000 0.1230252443
H   H36       1.0  0.75535  0.84069  0.63129  1.0000 0.1318620538
C   C1        1.0  0.11300  0.56240  0.33740  1.0000 0.6445164888
C   C2        1.0  0.19287  0.60453  0.26150  1.0000 -0.0178331624
C   C3        1.0  0.22540  0.69720  0.20750  1.0000 -0.1012281009
C   C4        1.0  0.30279  0.73941  0.14010  1.0000 -0.0178331624
C   C5        1.0  0.34508  0.68772  0.12660  1.0000 -0.157406518
C   C6        1.0  0.31127  0.59413  0.17920  1.0000 0.0759780167
C   C7        1.0  0.23620  0.55380  0.24710  1.0000 -0.140195498
C   C8        1.0  0.36004  0.54096  0.16330  1.0000 -0.0689733418
C   C9        1.0  0.30634  0.37406  0.12200  1.0000 0.2388065068
C   C10       1.0  0.40474  0.41026  0.10050  1.0000 -0.242295062
C   C11       1.0  0.42057  0.34163  0.06840  1.0000 -0.1012281009
C   C12       1.0  0.34011  0.23789  0.05900  1.0000 -0.0413396375
C   C13       1.0  0.24300  0.20300  0.08500  1.0000 -0.082554342
C   C14       1.0  0.22570  0.26970  0.11520  1.0000 -0.2029638531
C   C15       1.0  0.35842  0.16618  0.02100  1.0000 0.5679363368
C   C16       1.0  0.34040  0.84040  0.08380  1.0000 0.6240926145
C   C17       1.0  0.56240  0.11300  0.16260  1.0000 0.6445164888
C   C18       1.0  0.60453  0.19287  0.23850  1.0000 -0.0178331624
C   C19       1.0  0.69720  0.22540  0.29250  1.0000 -0.1012281009
C   C20       1.0  0.73941  0.30279  0.35990  1.0000 -0.0178331624
C   C21       1.0  0.68772  0.34508  0.37340  1.0000 -0.157406518
C   C22       1.0  0.59413  0.31127  0.32080  1.0000 0.0759780167
C   C23       1.0  0.55380  0.23620  0.25290  1.0000 -0.140195498
C   C24       1.0  0.54096  0.36004  0.33670  1.0000 -0.0689733418
C   C25       1.0  0.37406  0.30634  0.37800  1.0000 0.2388065068
C   C26       1.0  0.41026  0.40474  0.39950  1.0000 -0.242295062
C   C27       1.0  0.34163  0.42057  0.43160  1.0000 -0.1012281009
C   C28       1.0  0.23789  0.34011  0.44100  1.0000 -0.0413396375
C   C29       1.0  0.20300  0.24300  0.41500  1.0000 -0.082554342
C   C30       1.0  0.26970  0.22570  0.38480  1.0000 -0.2029638531
C   C31       1.0  0.16618  0.35842  0.47900  1.0000 0.5679363368
C   C32       1.0  0.84040  0.34040  0.41620  1.0000 0.6240926145
C   C33       1.0  0.88700  0.43760  0.66260  1.0000 0.6445164888
C   C34       1.0  0.80713  0.39547  0.73850  1.0000 -0.0178331624
C   C35       1.0  0.77460  0.30280  0.79250  1.0000 -0.1012281009
C   C36       1.0  0.69721  0.26059  0.85990  1.0000 -0.0178331624
C   C37       1.0  0.65492  0.31228  0.87340  1.0000 -0.157406518
C   C38       1.0  0.68873  0.40587  0.82080  1.0000 0.0759780167
C   C39       1.0  0.76380  0.44620  0.75290  1.0000 -0.140195498
C   C40       1.0  0.63996  0.45904  0.83670  1.0000 -0.0689733418
C   C41       1.0  0.69366  0.62594  0.87800  1.0000 0.2388065068
C   C42       1.0  0.59526  0.58974  0.89950  1.0000 -0.242295062
C   C43       1.0  0.57943  0.65837  0.93160  1.0000 -0.1012281009
C   C44       1.0  0.65989  0.76211  0.94100  1.0000 -0.0413396375
C   C45       1.0  0.75700  0.79700  0.91500  1.0000 -0.082554342
C   C46       1.0  0.77430  0.73030  0.88480  1.0000 -0.2029638531
C   C47       1.0  0.64158  0.83382  0.97900  1.0000 0.5679363368
C   C48       1.0  0.65960  0.15960  0.91620  1.0000 0.6240926145
C   C49       1.0  0.43760  0.88700  0.83740  1.0000 0.6445164888
C   C50       1.0  0.39547  0.80713  0.76150  1.0000 -0.0178331624
C   C51       1.0  0.30280  0.77460  0.70750  1.0000 -0.1012281009
C   C52       1.0  0.26059  0.69721  0.64010  1.0000 -0.0178331624
C   C53       1.0  0.31228  0.65492  0.62660  1.0000 -0.157406518
C   C54       1.0  0.40587  0.68873  0.67920  1.0000 0.0759780167
C   C55       1.0  0.44620  0.76380  0.74710  1.0000 -0.140195498
C   C56       1.0  0.45904  0.63996  0.66330  1.0000 -0.0689733418
C   C57       1.0  0.62594  0.69366  0.62200  1.0000 0.2388065068
C   C58       1.0  0.58974  0.59526  0.60050  1.0000 -0.242295062
C   C59       1.0  0.65837  0.57943  0.56840  1.0000 -0.1012281009
C   C60       1.0  0.76211  0.65989  0.55900  1.0000 -0.0413396375
C   C61       1.0  0.79700  0.75700  0.58500  1.0000 -0.082554342
C   C62       1.0  0.73030  0.77430  0.61520  1.0000 -0.2029638531
C   C63       1.0  0.83382  0.64158  0.52100  1.0000 0.5679363368
C   C64       1.0  0.15960  0.65960  0.58380  1.0000 0.6240926145
O   O1        1.0  0.08082  0.47442  0.37880  1.0000 -0.6456664742
O   O2        1.0  0.08531  0.61729  0.35350  1.0000 -0.6623234989
O   O3        1.0  0.44069  0.20291  0.98060  1.0000 -0.6384464742
O   O4        1.0  0.28870  0.06890  0.03010  1.0000 -0.6384464742
O   O5        1.0  0.43153  0.89425  0.05242  1.0000 -0.7557165267
O   O6        1.0  0.28328  0.86930  0.06760  1.0000 -0.5878961922
O   O7        1.0  0.27986  0.43454  0.14990  1.0000 -0.1760050448
O   O8        1.0  0.47442  0.08082  0.12120  1.0000 -0.6456664742
O   O9        1.0  0.61729  0.08531  0.14650  1.0000 -0.6623234989
O   O10       1.0  0.20291  0.44069  0.51940  1.0000 -0.6384464742
O   O11       1.0  0.06890  0.28870  0.46990  1.0000 -0.6384464742
O   O12       1.0  0.89425  0.43153  0.44758  1.0000 -0.7557165267
O   O13       1.0  0.86930  0.28328  0.43240  1.0000 -0.5878961922
O   O14       1.0  0.43454  0.27986  0.35010  1.0000 -0.1760050448
O   O15       1.0  0.91918  0.52558  0.62120  1.0000 -0.6456664742
O   O16       1.0  0.91469  0.38271  0.64650  1.0000 -0.6623234989
O   O17       1.0  0.55931  0.79709  0.01940  1.0000 -0.6384464742
O   O18       1.0  0.71130  0.93110  0.96990  1.0000 -0.6384464742
O   O19       1.0  0.56847  0.10575  0.94758  1.0000 -0.7557165267
O   O20       1.0  0.71672  0.13070  0.93240  1.0000 -0.5878961922
O   O21       1.0  0.72014  0.56546  0.85010  1.0000 -0.1760050448
O   O22       1.0  0.52558  0.91918  0.87880  1.0000 -0.6456664742
O   O23       1.0  0.38271  0.91469  0.85350  1.0000 -0.6623234989
O   O24       1.0  0.79709  0.55931  0.48060  1.0000 -0.6384464742
O   O25       1.0  0.93110  0.71130  0.53010  1.0000 -0.6384464742
O   O26       1.0  0.10575  0.56847  0.55242  1.0000 -0.7557165267
O   O27       1.0  0.13070  0.71672  0.56760  1.0000 -0.5878961922
O   O28       1.0  0.56546  0.72014  0.64990  1.0000 -0.1760050448
