# DDEC6 charges by PACMAN v1.1 (https://github.com/mtap-research/PACMAN-charge/)
data_2018[Sm][nan]3[ASR]2
_chemical_formula_sum              "Sm3 H45 C81 O18"
_cell_length_a       16.9931
_cell_length_b       16.9931
_cell_length_c       16.9931
_cell_angle_alpha    114.358
_cell_angle_beta     114.358
_cell_angle_gamma    114.358

_symmetry_space_group_name_H-M    "P 1"
_symmetry_Int_Tables_number       1

loop_
  _symmetry_equiv_pos_as_xyz
  'x, y, z'

loop_
  _atom_site_type_symbol
  _atom_site_label
  _atom_site_symmetry_multiplicity
  _atom_site_fract_x
  _atom_site_fract_y
  _atom_site_fract_z
  _atom_site_occupancy
  _atom_site_charge
Sm  Sm1       1.0  0.32381  0.67619  0.00000  1.0000 2.0875743225
Sm  Sm2       1.0  0.00000  0.32381  0.67619  1.0000 2.0875743225
Sm  Sm3       1.0  0.67619  0.00000  0.32381  1.0000 2.0875743225
H   H1        1.0  0.54060  0.12610  0.14270  1.0000 0.1176740389
H   H2        1.0  0.52970  0.20040  0.05650  1.0000 0.1127405206
H   H3        1.0  0.42820  0.19210  0.90770  1.0000 0.1176740389
H   H4        1.0  0.27630  0.18680  0.80480  1.0000 0.1176740389
H   H5        1.0  0.21570  0.28810  0.82110  1.0000 0.1295873145
H   H6        1.0  0.47330  0.52690  0.87190  1.0000 0.1295873145
H   H7        1.0  0.53420  0.42690  0.85430  1.0000 0.1127405206
H   H8        1.0  0.14270  0.54060  0.12610  1.0000 0.1176740389
H   H9        1.0  0.05650  0.52970  0.20040  1.0000 0.1127405206
H   H10       1.0  0.90770  0.42820  0.19210  1.0000 0.1176740389
H   H11       1.0  0.80480  0.27630  0.18680  1.0000 0.1176740389
H   H12       1.0  0.82110  0.21570  0.28810  1.0000 0.1295873145
H   H13       1.0  0.87190  0.47330  0.52690  1.0000 0.1295873145
H   H14       1.0  0.85430  0.53420  0.42690  1.0000 0.1127405206
H   H15       1.0  0.12610  0.14270  0.54060  1.0000 0.1176740389
H   H16       1.0  0.20040  0.05650  0.52970  1.0000 0.1127405206
H   H17       1.0  0.19210  0.90770  0.42820  1.0000 0.1176740389
H   H18       1.0  0.18680  0.80480  0.27630  1.0000 0.1176740389
H   H19       1.0  0.28810  0.82110  0.21570  1.0000 0.1295873145
H   H20       1.0  0.52690  0.87190  0.47330  1.0000 0.1295873145
H   H21       1.0  0.42690  0.85430  0.53420  1.0000 0.1127405206
H   H22       1.0  0.45940  0.85730  0.87390  1.0000 0.1176740389
H   H23       1.0  0.47030  0.94350  0.79960  1.0000 0.1127405206
H   H24       1.0  0.57180  0.09230  0.80790  1.0000 0.1176740389
H   H25       1.0  0.72370  0.19520  0.81320  1.0000 0.1176740389
H   H26       1.0  0.78430  0.17890  0.71190  1.0000 0.1295873145
H   H27       1.0  0.52670  0.12810  0.47310  1.0000 0.1295873145
H   H28       1.0  0.46580  0.14570  0.57310  1.0000 0.1127405206
H   H29       1.0  0.85730  0.87390  0.45940  1.0000 0.1176740389
H   H30       1.0  0.94350  0.79960  0.47030  1.0000 0.1127405206
H   H31       1.0  0.09230  0.80790  0.57180  1.0000 0.1176740389
H   H32       1.0  0.19520  0.81320  0.72370  1.0000 0.1176740389
H   H33       1.0  0.17890  0.71190  0.78430  1.0000 0.1295873145
H   H34       1.0  0.12810  0.47310  0.52670  1.0000 0.1295873145
H   H35       1.0  0.14570  0.57310  0.46580  1.0000 0.1127405206
H   H36       1.0  0.87390  0.45940  0.85730  1.0000 0.1176740389
H   H37       1.0  0.79960  0.47030  0.94350  1.0000 0.1127405206
H   H38       1.0  0.80790  0.57180  0.09230  1.0000 0.1176740389
H   H39       1.0  0.81320  0.72370  0.19520  1.0000 0.1176740389
H   H40       1.0  0.71190  0.78430  0.17890  1.0000 0.1295873145
H   H41       1.0  0.47310  0.52670  0.12810  1.0000 0.1295873145
H   H42       1.0  0.57310  0.46580  0.14570  1.0000 0.1127405206
H   H43       1.0  0.50000  0.26250  0.73750  1.0000 0.1127405206
H   H44       1.0  0.73750  0.50000  0.26250  1.0000 0.1127405206
H   H45       1.0  0.26250  0.73750  0.50000  1.0000 0.1127405206
C   C1        1.0  0.52270  0.08690  0.07140  1.0000 -0.0881730522
C   C2        1.0  0.51930  0.13350  0.02130  1.0000 -0.1617869193
C   C3        1.0  0.45710  0.18780  0.87140  1.0000 -0.1891871423
C   C4        1.0  0.45660  0.23540  0.82340  1.0000 0.0715573355
C   C5        1.0  0.41200  0.29670  0.82890  1.0000 0.0715573355
C   C6        1.0  0.31620  0.25470  0.81760  1.0000 -0.148684532
C   C7        1.0  0.27880  0.31440  0.82560  1.0000 -0.0881730522
C   C8        1.0  0.33360  0.40980  0.83980  1.0000 -0.0145465669
C   C9        1.0  0.43240  0.45700  0.85580  1.0000 -0.0881730522
C   C10       1.0  0.46950  0.39830  0.84740  1.0000 -0.1617869193
C   C11       1.0  0.29640  0.47830  0.85500  1.0000 0.611418803
C   C12       1.0  0.07140  0.52270  0.08690  1.0000 -0.0881730522
C   C13       1.0  0.02130  0.51930  0.13350  1.0000 -0.1617869193
C   C14       1.0  0.87140  0.45710  0.18780  1.0000 -0.1891871423
C   C15       1.0  0.82340  0.45660  0.23540  1.0000 0.0715573355
C   C16       1.0  0.82890  0.41200  0.29670  1.0000 0.0715573355
C   C17       1.0  0.81760  0.31620  0.25470  1.0000 -0.148684532
C   C18       1.0  0.82560  0.27880  0.31440  1.0000 -0.0881730522
C   C19       1.0  0.83980  0.33360  0.40980  1.0000 -0.0145465669
C   C20       1.0  0.85580  0.43240  0.45700  1.0000 -0.0881730522
C   C21       1.0  0.84740  0.46950  0.39830  1.0000 -0.1617869193
C   C22       1.0  0.85500  0.29640  0.47830  1.0000 0.611418803
C   C23       1.0  0.08690  0.07140  0.52270  1.0000 -0.0881730522
C   C24       1.0  0.13350  0.02130  0.51930  1.0000 -0.1617869193
C   C25       1.0  0.18780  0.87140  0.45710  1.0000 -0.1891871423
C   C26       1.0  0.23540  0.82340  0.45660  1.0000 0.0715573355
C   C27       1.0  0.29670  0.82890  0.41200  1.0000 0.0715573355
C   C28       1.0  0.25470  0.81760  0.31620  1.0000 -0.148684532
C   C29       1.0  0.31440  0.82560  0.27880  1.0000 -0.0881730522
C   C30       1.0  0.40980  0.83980  0.33360  1.0000 -0.0145465669
C   C31       1.0  0.45700  0.85580  0.43240  1.0000 -0.0881730522
C   C32       1.0  0.39830  0.84740  0.46950  1.0000 -0.1617869193
C   C33       1.0  0.47830  0.85500  0.29640  1.0000 0.611418803
C   C34       1.0  0.47730  0.92860  0.91310  1.0000 -0.0881730522
C   C35       1.0  0.48070  0.97870  0.86650  1.0000 -0.1617869193
C   C36       1.0  0.54290  0.12860  0.81220  1.0000 -0.1891871423
C   C37       1.0  0.54340  0.17660  0.76460  1.0000 0.0715573355
C   C38       1.0  0.58800  0.17110  0.70330  1.0000 0.0715573355
C   C39       1.0  0.68380  0.18240  0.74530  1.0000 -0.148684532
C   C40       1.0  0.72120  0.17440  0.68560  1.0000 -0.0881730522
C   C41       1.0  0.66640  0.16020  0.59020  1.0000 -0.0145465669
C   C42       1.0  0.56760  0.14420  0.54300  1.0000 -0.0881730522
C   C43       1.0  0.53050  0.15260  0.60170  1.0000 -0.1617869193
C   C44       1.0  0.70360  0.14500  0.52170  1.0000 0.611418803
C   C45       1.0  0.92860  0.91310  0.47730  1.0000 -0.0881730522
C   C46       1.0  0.97870  0.86650  0.48070  1.0000 -0.1617869193
C   C47       1.0  0.12860  0.81220  0.54290  1.0000 -0.1891871423
C   C48       1.0  0.17660  0.76460  0.54340  1.0000 0.0715573355
C   C49       1.0  0.17110  0.70330  0.58800  1.0000 0.0715573355
C   C50       1.0  0.18240  0.74530  0.68380  1.0000 -0.148684532
C   C51       1.0  0.17440  0.68560  0.72120  1.0000 -0.0881730522
C   C52       1.0  0.16020  0.59020  0.66640  1.0000 -0.0145465669
C   C53       1.0  0.14420  0.54300  0.56760  1.0000 -0.0881730522
C   C54       1.0  0.15260  0.60170  0.53050  1.0000 -0.1617869193
C   C55       1.0  0.14500  0.52170  0.70360  1.0000 0.611418803
C   C56       1.0  0.91310  0.47730  0.92860  1.0000 -0.0881730522
C   C57       1.0  0.86650  0.48070  0.97870  1.0000 -0.1617869193
C   C58       1.0  0.81220  0.54290  0.12860  1.0000 -0.1891871423
C   C59       1.0  0.76460  0.54340  0.17660  1.0000 0.0715573355
C   C60       1.0  0.70330  0.58800  0.17110  1.0000 0.0715573355
C   C61       1.0  0.74530  0.68380  0.18240  1.0000 -0.148684532
C   C62       1.0  0.68560  0.72120  0.17440  1.0000 -0.0881730522
C   C63       1.0  0.59020  0.66640  0.16020  1.0000 -0.0145465669
C   C64       1.0  0.54300  0.56760  0.14420  1.0000 -0.0881730522
C   C65       1.0  0.60170  0.53050  0.15260  1.0000 -0.1617869193
C   C66       1.0  0.52170  0.70360  0.14500  1.0000 0.611418803
C   C67       1.0  0.50000  0.93155  0.06845  1.0000 0.6233046049
C   C68       1.0  0.50000  0.98250  0.01750  1.0000 -0.0747604003
C   C69       1.0  0.50000  0.08170  0.91830  1.0000 0.0715573355
C   C70       1.0  0.50000  0.13265  0.86735  1.0000 0.0715573355
C   C71       1.0  0.50000  0.22995  0.77005  1.0000 -0.1993263121
C   C72       1.0  0.06845  0.50000  0.93155  1.0000 0.6233046049
C   C73       1.0  0.01750  0.50000  0.98250  1.0000 -0.0756272157
C   C74       1.0  0.91830  0.50000  0.08170  1.0000 0.0715573355
C   C75       1.0  0.86735  0.50000  0.13265  1.0000 0.0715573355
C   C76       1.0  0.77005  0.50000  0.22995  1.0000 -0.1993263121
C   C77       1.0  0.93155  0.06845  0.50000  1.0000 0.6233046049
C   C78       1.0  0.98250  0.01750  0.50000  1.0000 -0.0747604003
C   C79       1.0  0.08170  0.91830  0.50000  1.0000 0.0715573355
C   C80       1.0  0.13265  0.86735  0.50000  1.0000 0.0715573355
C   C81       1.0  0.22995  0.77005  0.50000  1.0000 -0.1993263121
O   O1        1.0  0.42940  0.81830  0.99860  1.0000 -0.6668196524
O   O2        1.0  0.20750  0.43980  0.84440  1.0000 -0.7271969621
O   O3        1.0  0.36460  0.58140  0.89250  1.0000 -0.6038626438
O   O4        1.0  0.99860  0.42940  0.81830  1.0000 -0.6668196524
O   O5        1.0  0.84440  0.20750  0.43980  1.0000 -0.7271969621
O   O6        1.0  0.89250  0.36460  0.58140  1.0000 -0.6038626438
O   O7        1.0  0.81830  0.99860  0.42940  1.0000 -0.6668196524
O   O8        1.0  0.43980  0.84440  0.20750  1.0000 -0.7271969621
O   O9        1.0  0.58140  0.89250  0.36460  1.0000 -0.6038626438
O   O10       1.0  0.57060  0.00140  0.18170  1.0000 -0.6668196524
O   O11       1.0  0.79250  0.15560  0.56020  1.0000 -0.7271969621
O   O12       1.0  0.63540  0.10750  0.41860  1.0000 -0.6038626438
O   O13       1.0  0.00140  0.18170  0.57060  1.0000 -0.6668196524
O   O14       1.0  0.15560  0.56020  0.79250  1.0000 -0.7271969621
O   O15       1.0  0.10750  0.41860  0.63540  1.0000 -0.6038626438
O   O16       1.0  0.18170  0.57060  0.00140  1.0000 -0.6668196524
O   O17       1.0  0.56020  0.79250  0.15560  1.0000 -0.7271969621
O   O18       1.0  0.41860  0.63540  0.10750  1.0000 -0.6038626438
