# DDEC6 charges by PACMAN v1.1 (https://github.com/mtap-research/PACMAN-charge/)
data_2018[Y][bcu]3[ASR]1
_chemical_formula_sum              "Y12 H220 C408 N16 O72"
_cell_length_a       20.0699
_cell_length_b       34.7478
_cell_length_c       35.0023
_cell_angle_alpha    90
_cell_angle_beta     90
_cell_angle_gamma    90

_symmetry_space_group_name_H-M    "P 1"
_symmetry_Int_Tables_number       1

loop_
  _symmetry_equiv_pos_as_xyz
  'x, y, z'

loop_
  _atom_site_type_symbol
  _atom_site_label
  _atom_site_symmetry_multiplicity
  _atom_site_fract_x
  _atom_site_fract_y
  _atom_site_fract_z
  _atom_site_occupancy
  _atom_site_charge
Y   Y1        1.0  0.67348  0.24514  0.26171  1.0000 1.7175523823
Y   Y2        1.0  0.67348  0.75486  0.73829  1.0000 1.7175523823
Y   Y3        1.0  0.32652  0.25486  0.76171  1.0000 1.7175523823
Y   Y4        1.0  0.32652  0.74514  0.23829  1.0000 1.7175523823
Y   Y5        1.0  0.32652  0.75486  0.73829  1.0000 1.7175523823
Y   Y6        1.0  0.32652  0.24514  0.26171  1.0000 1.7175523823
Y   Y7        1.0  0.67348  0.74514  0.23829  1.0000 1.7175523823
Y   Y8        1.0  0.67348  0.25486  0.76171  1.0000 1.7175523823
Y   Y9        1.0  0.50000  0.26681  0.32950  1.0000 1.7415675109
Y   Y10       1.0  0.50000  0.73319  0.67050  1.0000 1.7415675109
Y   Y11       1.0  0.50000  0.23319  0.82950  1.0000 1.7415675109
Y   Y12       1.0  0.50000  0.76681  0.17050  1.0000 1.7415675109
H   H1        1.0  0.75210  0.46510  0.00440  1.0000 0.120607966
H   H2        1.0  0.93990  0.35840  0.01800  1.0000 0.120607966
H   H3        1.0  0.82810  0.39610  0.06940  1.0000 0.120607966
H   H4        1.0  0.70050  0.32250  0.02060  1.0000 0.1109720937
H   H5        1.0  0.80820  0.39440  0.95650  1.0000 0.120607966
H   H6        1.0  0.63410  0.32180  0.97040  1.0000 0.120607966
H   H7        1.0  0.59130  0.29170  0.91710  1.0000 0.130036075
H   H8        1.0  0.74710  0.32150  0.85850  1.0000 0.130036075
H   H9        1.0  0.79240  0.35070  0.91000  1.0000 0.130036075
H   H10       1.0  0.83400  0.34470  0.11240  1.0000 0.120607966
H   H11       1.0  0.80900  0.32020  0.17230  1.0000 0.120607966
H   H12       1.0  0.62230  0.30250  0.13760  1.0000 0.130036075
H   H13       1.0  0.64720  0.32880  0.07840  1.0000 0.1109720937
H   H14       1.0  0.93950  0.00200  0.14200  1.0000 0.120607966
H   H15       1.0  0.75400  0.99890  0.03480  1.0000 0.120607966
H   H16       1.0  0.80730  0.94400  0.09840  1.0000 0.130036075
H   H17       1.0  0.69570  0.00090  0.17440  1.0000 0.1109720937
H   H18       1.0  0.82940  0.05780  0.11140  1.0000 0.130036075
H   H19       1.0  0.79730  0.90090  0.15930  1.0000 0.130036075
H   H20       1.0  0.74990  0.84630  0.18370  1.0000 0.1391718609
H   H21       1.0  0.57550  0.88850  0.16680  1.0000 0.130036075
H   H22       1.0  0.61960  0.94560  0.14600  1.0000 0.120607966
H   H23       1.0  0.64690  0.06090  0.17550  1.0000 0.1109720937
H   H24       1.0  0.62210  0.11760  0.20730  1.0000 0.130036075
H   H25       1.0  0.80590  0.15110  0.19830  1.0000 0.130036075
H   H26       1.0  0.83530  0.09470  0.16720  1.0000 0.120607966
H   H27       1.0  0.53910  0.21290  0.20580  1.0000 0.1709362304
H   H28       1.0  0.75210  0.53490  0.99560  1.0000 0.120607966
H   H29       1.0  0.93990  0.64160  0.98200  1.0000 0.120607966
H   H30       1.0  0.82810  0.60390  0.93060  1.0000 0.120607966
H   H31       1.0  0.70050  0.67750  0.97940  1.0000 0.1109720937
H   H32       1.0  0.80820  0.60560  0.04350  1.0000 0.120607966
H   H33       1.0  0.63410  0.67820  0.02960  1.0000 0.120607966
H   H34       1.0  0.59130  0.70830  0.08290  1.0000 0.130036075
H   H35       1.0  0.74710  0.67850  0.14150  1.0000 0.130036075
H   H36       1.0  0.79240  0.64930  0.09000  1.0000 0.130036075
H   H37       1.0  0.83400  0.65530  0.88760  1.0000 0.120607966
H   H38       1.0  0.80900  0.67980  0.82770  1.0000 0.120607966
H   H39       1.0  0.62230  0.69750  0.86240  1.0000 0.130036075
H   H40       1.0  0.64720  0.67120  0.92160  1.0000 0.1109720937
H   H41       1.0  0.93950  0.99800  0.85800  1.0000 0.120607966
H   H42       1.0  0.75400  0.00110  0.96520  1.0000 0.120607966
H   H43       1.0  0.80730  0.05600  0.90160  1.0000 0.130036075
H   H44       1.0  0.69570  0.99910  0.82560  1.0000 0.1109720937
H   H45       1.0  0.82940  0.94220  0.88860  1.0000 0.130036075
H   H46       1.0  0.79730  0.09910  0.84070  1.0000 0.130036075
H   H47       1.0  0.74990  0.15370  0.81630  1.0000 0.1391718609
H   H48       1.0  0.57550  0.11150  0.83320  1.0000 0.130036075
H   H49       1.0  0.61960  0.05440  0.85400  1.0000 0.120607966
H   H50       1.0  0.64690  0.93910  0.82450  1.0000 0.1109720937
H   H51       1.0  0.62210  0.88240  0.79270  1.0000 0.130036075
H   H52       1.0  0.80590  0.84890  0.80170  1.0000 0.130036075
H   H53       1.0  0.83530  0.90530  0.83280  1.0000 0.120607966
H   H54       1.0  0.53910  0.78710  0.79420  1.0000 0.1709362304
H   H55       1.0  0.24790  0.03490  0.50440  1.0000 0.120607966
H   H56       1.0  0.06010  0.14160  0.51800  1.0000 0.120607966
H   H57       1.0  0.17190  0.10390  0.56940  1.0000 0.130036075
H   H58       1.0  0.29950  0.17750  0.52060  1.0000 0.1109720937
H   H59       1.0  0.19180  0.10560  0.45650  1.0000 0.120607966
H   H60       1.0  0.36590  0.17820  0.47040  1.0000 0.120607966
H   H61       1.0  0.40870  0.20830  0.41710  1.0000 0.130036075
H   H62       1.0  0.25290  0.17850  0.35850  1.0000 0.130036075
H   H63       1.0  0.20760  0.14930  0.41000  1.0000 0.130036075
H   H64       1.0  0.16600  0.15530  0.61240  1.0000 0.120607966
H   H65       1.0  0.19100  0.17980  0.67230  1.0000 0.120607966
H   H66       1.0  0.37770  0.19750  0.63760  1.0000 0.130036075
H   H67       1.0  0.35280  0.17120  0.57840  1.0000 0.1109720937
H   H68       1.0  0.06050  0.49800  0.64200  1.0000 0.120607966
H   H69       1.0  0.24600  0.50110  0.53480  1.0000 0.120607966
H   H70       1.0  0.19270  0.55600  0.59840  1.0000 0.130036075
H   H71       1.0  0.30430  0.49910  0.67440  1.0000 0.1109720937
H   H72       1.0  0.17060  0.44220  0.61140  1.0000 0.130036075
H   H73       1.0  0.20270  0.59910  0.65930  1.0000 0.130036075
H   H74       1.0  0.25010  0.65370  0.68370  1.0000 0.1391718609
H   H75       1.0  0.42450  0.61150  0.66680  1.0000 0.130036075
H   H76       1.0  0.38040  0.55440  0.64600  1.0000 0.120607966
H   H77       1.0  0.35310  0.43910  0.67550  1.0000 0.1109720937
H   H78       1.0  0.37790  0.38240  0.70730  1.0000 0.130036075
H   H79       1.0  0.19410  0.34890  0.69830  1.0000 0.130036075
H   H80       1.0  0.16470  0.40530  0.66720  1.0000 0.120607966
H   H81       1.0  0.46090  0.28710  0.70580  1.0000 0.1709362304
H   H82       1.0  0.24790  0.96510  0.49560  1.0000 0.120607966
H   H83       1.0  0.06010  0.85840  0.48200  1.0000 0.120607966
H   H84       1.0  0.17190  0.89610  0.43060  1.0000 0.120607966
H   H85       1.0  0.29950  0.82250  0.47940  1.0000 0.1109720937
H   H86       1.0  0.19180  0.89440  0.54350  1.0000 0.120607966
H   H87       1.0  0.36590  0.82180  0.52960  1.0000 0.120607966
H   H88       1.0  0.40870  0.79170  0.58290  1.0000 0.130036075
H   H89       1.0  0.25290  0.82150  0.64150  1.0000 0.130036075
H   H90       1.0  0.20760  0.85070  0.59000  1.0000 0.130036075
H   H91       1.0  0.16600  0.84470  0.38760  1.0000 0.120607966
H   H92       1.0  0.19100  0.82020  0.32770  1.0000 0.120607966
H   H93       1.0  0.37770  0.80250  0.36240  1.0000 0.130036075
H   H94       1.0  0.35280  0.82880  0.42160  1.0000 0.1109720937
H   H95       1.0  0.06050  0.50200  0.35800  1.0000 0.120607966
H   H96       1.0  0.24600  0.49890  0.46520  1.0000 0.120607966
H   H97       1.0  0.19270  0.44400  0.40160  1.0000 0.130036075
H   H98       1.0  0.30430  0.50090  0.32560  1.0000 0.1109720937
H   H99       1.0  0.17060  0.55780  0.38860  1.0000 0.130036075
H   H100      1.0  0.20270  0.40090  0.34070  1.0000 0.130036075
H   H101      1.0  0.25010  0.34630  0.31630  1.0000 0.1391718609
H   H102      1.0  0.42450  0.38850  0.33320  1.0000 0.130036075
H   H103      1.0  0.38040  0.44560  0.35400  1.0000 0.120607966
H   H104      1.0  0.35310  0.56090  0.32450  1.0000 0.1109720937
H   H105      1.0  0.37790  0.61760  0.29270  1.0000 0.130036075
H   H106      1.0  0.19410  0.65110  0.30170  1.0000 0.130036075
H   H107      1.0  0.16470  0.59470  0.33280  1.0000 0.120607966
H   H108      1.0  0.46090  0.71290  0.29420  1.0000 0.1709362304
H   H109      1.0  0.24790  0.53490  0.99560  1.0000 0.120607966
H   H110      1.0  0.06010  0.64160  0.98200  1.0000 0.120607966
H   H111      1.0  0.17190  0.60390  0.93060  1.0000 0.130036075
H   H112      1.0  0.29950  0.67750  0.97940  1.0000 0.1109720937
H   H113      1.0  0.19180  0.60560  0.04350  1.0000 0.120607966
H   H114      1.0  0.36590  0.67820  0.02960  1.0000 0.120607966
H   H115      1.0  0.40870  0.70830  0.08290  1.0000 0.130036075
H   H116      1.0  0.25290  0.67850  0.14150  1.0000 0.130036075
H   H117      1.0  0.20760  0.64930  0.09000  1.0000 0.130036075
H   H118      1.0  0.16600  0.65530  0.88760  1.0000 0.120607966
H   H119      1.0  0.19100  0.67980  0.82770  1.0000 0.120607966
H   H120      1.0  0.37770  0.69750  0.86240  1.0000 0.130036075
H   H121      1.0  0.35280  0.67120  0.92160  1.0000 0.1109720937
H   H122      1.0  0.06050  0.99800  0.85800  1.0000 0.120607966
H   H123      1.0  0.24600  0.00110  0.96520  1.0000 0.120607966
H   H124      1.0  0.19270  0.05600  0.90160  1.0000 0.130036075
H   H125      1.0  0.30430  0.99910  0.82560  1.0000 0.1109720937
H   H126      1.0  0.17060  0.94220  0.88860  1.0000 0.130036075
H   H127      1.0  0.20270  0.09910  0.84070  1.0000 0.130036075
H   H128      1.0  0.25010  0.15370  0.81630  1.0000 0.1391718609
H   H129      1.0  0.42450  0.11150  0.83320  1.0000 0.130036075
H   H130      1.0  0.38040  0.05440  0.85400  1.0000 0.120607966
H   H131      1.0  0.35310  0.93910  0.82450  1.0000 0.1109720937
H   H132      1.0  0.37790  0.88240  0.79270  1.0000 0.130036075
H   H133      1.0  0.19410  0.84890  0.80170  1.0000 0.130036075
H   H134      1.0  0.16470  0.90530  0.83280  1.0000 0.120607966
H   H135      1.0  0.46090  0.78710  0.79420  1.0000 0.1709362304
H   H136      1.0  0.24790  0.46510  0.00440  1.0000 0.120607966
H   H137      1.0  0.06010  0.35840  0.01800  1.0000 0.120607966
H   H138      1.0  0.17190  0.39610  0.06940  1.0000 0.120607966
H   H139      1.0  0.29950  0.32250  0.02060  1.0000 0.1109720937
H   H140      1.0  0.19180  0.39440  0.95650  1.0000 0.120607966
H   H141      1.0  0.36590  0.32180  0.97040  1.0000 0.120607966
H   H142      1.0  0.40870  0.29170  0.91710  1.0000 0.130036075
H   H143      1.0  0.25290  0.32150  0.85850  1.0000 0.130036075
H   H144      1.0  0.20760  0.35070  0.91000  1.0000 0.130036075
H   H145      1.0  0.16600  0.34470  0.11240  1.0000 0.120607966
H   H146      1.0  0.19100  0.32020  0.17230  1.0000 0.120607966
H   H147      1.0  0.37770  0.30250  0.13760  1.0000 0.130036075
H   H148      1.0  0.35280  0.32880  0.07840  1.0000 0.1109720937
H   H149      1.0  0.06050  0.00200  0.14200  1.0000 0.120607966
H   H150      1.0  0.24600  0.99890  0.03480  1.0000 0.120607966
H   H151      1.0  0.19270  0.94400  0.09840  1.0000 0.130036075
H   H152      1.0  0.30430  0.00090  0.17440  1.0000 0.1109720937
H   H153      1.0  0.17060  0.05780  0.11140  1.0000 0.130036075
H   H154      1.0  0.20270  0.90090  0.15930  1.0000 0.130036075
H   H155      1.0  0.25010  0.84630  0.18370  1.0000 0.1391718609
H   H156      1.0  0.42450  0.88850  0.16680  1.0000 0.130036075
H   H157      1.0  0.38040  0.94560  0.14600  1.0000 0.120607966
H   H158      1.0  0.35310  0.06090  0.17550  1.0000 0.1109720937
H   H159      1.0  0.37790  0.11760  0.20730  1.0000 0.130036075
H   H160      1.0  0.19410  0.15110  0.19830  1.0000 0.130036075
H   H161      1.0  0.16470  0.09470  0.16720  1.0000 0.120607966
H   H162      1.0  0.46090  0.21290  0.20580  1.0000 0.1709362304
H   H163      1.0  0.75210  0.96510  0.49560  1.0000 0.120607966
H   H164      1.0  0.93990  0.85840  0.48200  1.0000 0.120607966
H   H165      1.0  0.82810  0.89610  0.43060  1.0000 0.120607966
H   H166      1.0  0.70050  0.82250  0.47940  1.0000 0.1109720937
H   H167      1.0  0.80820  0.89440  0.54350  1.0000 0.120607966
H   H168      1.0  0.63410  0.82180  0.52960  1.0000 0.120607966
H   H169      1.0  0.59130  0.79170  0.58290  1.0000 0.130036075
H   H170      1.0  0.74710  0.82150  0.64150  1.0000 0.130036075
H   H171      1.0  0.79240  0.85070  0.59000  1.0000 0.130036075
H   H172      1.0  0.83400  0.84470  0.38760  1.0000 0.120607966
H   H173      1.0  0.80900  0.82020  0.32770  1.0000 0.120607966
H   H174      1.0  0.62230  0.80250  0.36240  1.0000 0.130036075
H   H175      1.0  0.64720  0.82880  0.42160  1.0000 0.1109720937
H   H176      1.0  0.93950  0.50200  0.35800  1.0000 0.120607966
H   H177      1.0  0.75400  0.49890  0.46520  1.0000 0.120607966
H   H178      1.0  0.80730  0.44400  0.40160  1.0000 0.130036075
H   H179      1.0  0.69570  0.50090  0.32560  1.0000 0.1109720937
H   H180      1.0  0.82940  0.55780  0.38860  1.0000 0.130036075
H   H181      1.0  0.79730  0.40090  0.34070  1.0000 0.130036075
H   H182      1.0  0.74990  0.34630  0.31630  1.0000 0.1391718609
H   H183      1.0  0.57550  0.38850  0.33320  1.0000 0.130036075
H   H184      1.0  0.61960  0.44560  0.35400  1.0000 0.120607966
H   H185      1.0  0.64690  0.56090  0.32450  1.0000 0.1109720937
H   H186      1.0  0.62210  0.61760  0.29270  1.0000 0.130036075
H   H187      1.0  0.80590  0.65110  0.30170  1.0000 0.130036075
H   H188      1.0  0.83530  0.59470  0.33280  1.0000 0.120607966
H   H189      1.0  0.53910  0.71290  0.29420  1.0000 0.1709362304
H   H190      1.0  0.75210  0.03490  0.50440  1.0000 0.120607966
H   H191      1.0  0.93990  0.14160  0.51800  1.0000 0.120607966
H   H192      1.0  0.82810  0.10390  0.56940  1.0000 0.120607966
H   H193      1.0  0.70050  0.17750  0.52060  1.0000 0.1109720937
H   H194      1.0  0.80820  0.10560  0.45650  1.0000 0.120607966
H   H195      1.0  0.63410  0.17820  0.47040  1.0000 0.120607966
H   H196      1.0  0.59130  0.20830  0.41710  1.0000 0.130036075
H   H197      1.0  0.74710  0.17850  0.35850  1.0000 0.130036075
H   H198      1.0  0.79240  0.14930  0.41000  1.0000 0.130036075
H   H199      1.0  0.83400  0.15530  0.61240  1.0000 0.120607966
H   H200      1.0  0.80900  0.17980  0.67230  1.0000 0.120607966
H   H201      1.0  0.62230  0.19750  0.63760  1.0000 0.130036075
H   H202      1.0  0.64720  0.17120  0.57840  1.0000 0.1109720937
H   H203      1.0  0.93950  0.49800  0.64200  1.0000 0.120607966
H   H204      1.0  0.75400  0.50110  0.53480  1.0000 0.120607966
H   H205      1.0  0.80730  0.55600  0.59840  1.0000 0.130036075
H   H206      1.0  0.69570  0.49910  0.67440  1.0000 0.1109720937
H   H207      1.0  0.82940  0.44220  0.61140  1.0000 0.130036075
H   H208      1.0  0.79730  0.59910  0.65930  1.0000 0.130036075
H   H209      1.0  0.74990  0.65370  0.68370  1.0000 0.1391718609
H   H210      1.0  0.57550  0.61150  0.66680  1.0000 0.130036075
H   H211      1.0  0.61960  0.55440  0.64600  1.0000 0.120607966
H   H212      1.0  0.64690  0.43910  0.67550  1.0000 0.1109720937
H   H213      1.0  0.62210  0.38240  0.70730  1.0000 0.130036075
H   H214      1.0  0.80590  0.34890  0.69830  1.0000 0.130036075
H   H215      1.0  0.83530  0.40530  0.66720  1.0000 0.120607966
H   H216      1.0  0.53910  0.28710  0.70580  1.0000 0.1709362304
H   H217      1.0  0.50000  0.24970  0.19300  1.0000 0.1782882196
H   H218      1.0  0.50000  0.75030  0.80700  1.0000 0.1782882196
H   H219      1.0  0.50000  0.25030  0.69300  1.0000 0.1782882196
H   H220      1.0  0.50000  0.74970  0.30700  1.0000 0.1782882196
C   C1        1.0  0.78960  0.48077  0.00242  1.0000 -0.1920610035
C   C2        1.0  0.85780  0.46829  0.00408  1.0000 0.1782882196
C   C3        1.0  0.87870  0.43072  0.00934  1.0000 -0.0745847488
C   C4        1.0  0.94510  0.41906  0.01115  1.0000 0.1709362304
C   C5        1.0  0.96716  0.37986  0.01558  1.0000 -0.1920610035
C   C6        1.0  0.82690  0.40020  0.01248  1.0000 0.092721138
C   C7        1.0  0.80860  0.38587  0.04751  1.0000 -0.1920610035
C   C8        1.0  0.76150  0.35638  0.05145  1.0000 0.0809033339
C   C9        1.0  0.73240  0.34183  0.01859  1.0000 -0.1920610035
C   C10       1.0  0.74980  0.35534  0.98335  1.0000 0.0809033339
C   C11       1.0  0.79690  0.38490  0.98052  1.0000 -0.1920610035
C   C12       1.0  0.71940  0.33905  0.94688  1.0000 0.0809033339
C   C13       1.0  0.65850  0.32175  0.94780  1.0000 -0.1559695113
C   C14       1.0  0.63240  0.30391  0.91549  1.0000 -0.0982634055
C   C15       1.0  0.66490  0.30384  0.88213  1.0000 -0.0533291737
C   C16       1.0  0.72350  0.32119  0.88136  1.0000 -0.0916988523
C   C17       1.0  0.75120  0.33871  0.91239  1.0000 -0.1502965828
C   C18       1.0  0.63830  0.28393  0.84781  1.0000 0.6129974311
C   C19       1.0  0.74420  0.34038  0.08872  1.0000 0.058640356
C   C20       1.0  0.79080  0.33647  0.11727  1.0000 -0.1502965828
C   C21       1.0  0.77670  0.32081  0.15321  1.0000 -0.0916988523
C   C22       1.0  0.71300  0.30624  0.15966  1.0000 -0.0187608346
C   C23       1.0  0.66560  0.31054  0.13254  1.0000 -0.0916988523
C   C24       1.0  0.68040  0.32692  0.09685  1.0000 -0.1559695113
C   C25       1.0  0.69450  0.28726  0.19673  1.0000 0.5414448043
C   C26       1.0  0.96670  0.00178  0.12043  1.0000 -0.1978335308
C   C27       1.0  0.94450  0.00135  0.08164  1.0000 0.1782882196
C   C28       1.0  0.87940  0.00090  0.06954  1.0000 -0.0792397094
C   C29       1.0  0.85880  0.00038  0.03122  1.0000 0.1782882196
C   C30       1.0  0.79130  0.99968  0.01907  1.0000 -0.1978335308
C   C31       1.0  0.82670  0.00121  0.09959  1.0000 0.1012806853
C   C32       1.0  0.79520  0.96684  0.11029  1.0000 -0.1920610035
C   C33       1.0  0.74570  0.96634  0.13862  1.0000 0.0809033339
C   C34       1.0  0.72840  0.00083  0.15554  1.0000 -0.1920610035
C   C35       1.0  0.75810  0.03553  0.14541  1.0000 0.0809033339
C   C36       1.0  0.80800  0.03493  0.11782  1.0000 -0.1920610035
C   C37       1.0  0.71580  0.93012  0.15072  1.0000 0.0688207017
C   C38       1.0  0.75110  0.89957  0.16100  1.0000 -0.1502965828
C   C39       1.0  0.72230  0.86558  0.17420  1.0000 -0.0982634055
C   C40       1.0  0.65890  0.85982  0.17385  1.0000 -0.031609337
C   C41       1.0  0.62160  0.89069  0.16480  1.0000 -0.1150063837
C   C42       1.0  0.64780  0.92545  0.15270  1.0000 -0.1559695113
C   C43       1.0  0.62850  0.82261  0.18739  1.0000 0.6277389711
C   C44       1.0  0.74180  0.07204  0.16609  1.0000 0.0809033339
C   C45       1.0  0.68020  0.07916  0.17908  1.0000 -0.1502965828
C   C46       1.0  0.66510  0.11394  0.19819  1.0000 -0.0792397094
C   C47       1.0  0.70810  0.14038  0.20333  1.0000 -0.0145517932
C   C48       1.0  0.77320  0.13299  0.19277  1.0000 -0.0916988523
C   C49       1.0  0.79120  0.09913  0.17412  1.0000 -0.1502965828
C   C50       1.0  0.69120  0.17655  0.22433  1.0000 0.5414448043
C   C51       1.0  0.78960  0.51923  0.99758  1.0000 -0.1920610035
C   C52       1.0  0.85780  0.53171  0.99592  1.0000 0.1782882196
C   C53       1.0  0.87870  0.56928  0.99066  1.0000 -0.0745847488
C   C54       1.0  0.94510  0.58094  0.98885  1.0000 0.1709362304
C   C55       1.0  0.96716  0.62014  0.98442  1.0000 -0.1920610035
C   C56       1.0  0.82690  0.59980  0.98752  1.0000 0.092721138
C   C57       1.0  0.80860  0.61413  0.95249  1.0000 -0.1920610035
C   C58       1.0  0.76150  0.64362  0.94855  1.0000 0.0809033339
C   C59       1.0  0.73240  0.65817  0.98141  1.0000 -0.1920610035
C   C60       1.0  0.74980  0.64466  0.01665  1.0000 0.0809033339
C   C61       1.0  0.79690  0.61510  0.01948  1.0000 -0.1920610035
C   C62       1.0  0.71940  0.66095  0.05312  1.0000 0.0809033339
C   C63       1.0  0.65850  0.67825  0.05220  1.0000 -0.1559695113
C   C64       1.0  0.63240  0.69609  0.08451  1.0000 -0.0982634055
C   C65       1.0  0.66490  0.69616  0.11787  1.0000 -0.0533291737
C   C66       1.0  0.72350  0.67881  0.11864  1.0000 -0.0916988523
C   C67       1.0  0.75120  0.66129  0.08761  1.0000 -0.1502965828
C   C68       1.0  0.63830  0.71607  0.15219  1.0000 0.6129974311
C   C69       1.0  0.74420  0.65962  0.91128  1.0000 0.058640356
C   C70       1.0  0.79080  0.66353  0.88273  1.0000 -0.1502965828
C   C71       1.0  0.77670  0.67919  0.84679  1.0000 -0.0916988523
C   C72       1.0  0.71300  0.69376  0.84034  1.0000 -0.0187608346
C   C73       1.0  0.66560  0.68946  0.86746  1.0000 -0.0916988523
C   C74       1.0  0.68040  0.67308  0.90315  1.0000 -0.1559695113
C   C75       1.0  0.69450  0.71274  0.80327  1.0000 0.5414448043
C   C76       1.0  0.96670  0.99822  0.87957  1.0000 -0.1978335308
C   C77       1.0  0.94450  0.99865  0.91836  1.0000 0.1782882196
C   C78       1.0  0.87940  0.99910  0.93046  1.0000 -0.0792397094
C   C79       1.0  0.85880  0.99962  0.96878  1.0000 0.1782882196
C   C80       1.0  0.79130  0.00032  0.98093  1.0000 -0.1978335308
C   C81       1.0  0.82670  0.99879  0.90041  1.0000 0.1012806853
C   C82       1.0  0.79520  0.03316  0.88971  1.0000 -0.1920610035
C   C83       1.0  0.74570  0.03366  0.86138  1.0000 0.0809033339
C   C84       1.0  0.72840  0.99917  0.84446  1.0000 -0.1920610035
C   C85       1.0  0.75810  0.96447  0.85459  1.0000 0.0809033339
C   C86       1.0  0.80800  0.96507  0.88218  1.0000 -0.1920610035
C   C87       1.0  0.71580  0.06988  0.84928  1.0000 0.0688207017
C   C88       1.0  0.75110  0.10043  0.83900  1.0000 -0.1502965828
C   C89       1.0  0.72230  0.13442  0.82580  1.0000 -0.0982634055
C   C90       1.0  0.65890  0.14018  0.82615  1.0000 -0.031609337
C   C91       1.0  0.62160  0.10931  0.83520  1.0000 -0.1146285573
C   C92       1.0  0.64780  0.07455  0.84730  1.0000 -0.1559695113
C   C93       1.0  0.62850  0.17739  0.81261  1.0000 0.6277389711
C   C94       1.0  0.74180  0.92796  0.83391  1.0000 0.0809033339
C   C95       1.0  0.68020  0.92084  0.82092  1.0000 -0.1502965828
C   C96       1.0  0.66510  0.88606  0.80181  1.0000 -0.0792397094
C   C97       1.0  0.70810  0.85962  0.79667  1.0000 -0.0145517932
C   C98       1.0  0.77320  0.86701  0.80723  1.0000 -0.0916988523
C   C99       1.0  0.79120  0.90087  0.82588  1.0000 -0.1502965828
C   C100      1.0  0.69120  0.82345  0.77567  1.0000 0.5414448043
C   C101      1.0  0.21040  0.01923  0.50242  1.0000 -0.1920610035
C   C102      1.0  0.14220  0.03171  0.50408  1.0000 0.1782882196
C   C103      1.0  0.12130  0.06928  0.50934  1.0000 -0.0745847488
C   C104      1.0  0.05490  0.08094  0.51115  1.0000 0.1709362304
C   C105      1.0  0.03284  0.12014  0.51558  1.0000 -0.1920610035
C   C106      1.0  0.17310  0.09980  0.51248  1.0000 0.092721138
C   C107      1.0  0.19140  0.11413  0.54751  1.0000 -0.1920610035
C   C108      1.0  0.23850  0.14362  0.55145  1.0000 0.0809033339
C   C109      1.0  0.26760  0.15817  0.51859  1.0000 -0.1920610035
C   C110      1.0  0.25020  0.14466  0.48335  1.0000 0.0809033339
C   C111      1.0  0.20310  0.11510  0.48052  1.0000 -0.1920610035
C   C112      1.0  0.28060  0.16095  0.44688  1.0000 0.0809033339
C   C113      1.0  0.34150  0.17825  0.44780  1.0000 -0.1559695113
C   C114      1.0  0.36760  0.19609  0.41549  1.0000 -0.0982634055
C   C115      1.0  0.33510  0.19616  0.38213  1.0000 -0.0533291737
C   C116      1.0  0.27650  0.17881  0.38136  1.0000 -0.0916988523
C   C117      1.0  0.24880  0.16129  0.41239  1.0000 -0.1502965828
C   C118      1.0  0.36170  0.21607  0.34781  1.0000 0.6129974311
C   C119      1.0  0.25580  0.15962  0.58872  1.0000 0.058640356
C   C120      1.0  0.20920  0.16353  0.61727  1.0000 -0.1502965828
C   C121      1.0  0.22330  0.17919  0.65321  1.0000 -0.0916988523
C   C122      1.0  0.28700  0.19376  0.65966  1.0000 -0.0187608346
C   C123      1.0  0.33440  0.18946  0.63254  1.0000 -0.0916988523
C   C124      1.0  0.31960  0.17308  0.59685  1.0000 -0.1559695113
C   C125      1.0  0.30550  0.21274  0.69673  1.0000 0.5414448043
C   C126      1.0  0.03330  0.49822  0.62043  1.0000 -0.1978335308
C   C127      1.0  0.05550  0.49865  0.58164  1.0000 0.1782882196
C   C128      1.0  0.12060  0.49910  0.56954  1.0000 -0.0792397094
C   C129      1.0  0.14120  0.49962  0.53122  1.0000 0.1782882196
C   C130      1.0  0.20870  0.50032  0.51907  1.0000 -0.1978335308
C   C131      1.0  0.17330  0.49879  0.59959  1.0000 0.1012806853
C   C132      1.0  0.20480  0.53316  0.61029  1.0000 -0.1920610035
C   C133      1.0  0.25430  0.53366  0.63862  1.0000 0.0809033339
C   C134      1.0  0.27160  0.49917  0.65554  1.0000 -0.1920610035
C   C135      1.0  0.24190  0.46447  0.64541  1.0000 0.0809033339
C   C136      1.0  0.19200  0.46507  0.61782  1.0000 -0.1920610035
C   C137      1.0  0.28420  0.56988  0.65072  1.0000 0.0688207017
C   C138      1.0  0.24890  0.60043  0.66100  1.0000 -0.1502965828
C   C139      1.0  0.27770  0.63442  0.67420  1.0000 -0.0982634055
C   C140      1.0  0.34110  0.64018  0.67385  1.0000 -0.031609337
C   C141      1.0  0.37840  0.60931  0.66480  1.0000 -0.1150063837
C   C142      1.0  0.35220  0.57455  0.65270  1.0000 -0.1559695113
C   C143      1.0  0.37150  0.67739  0.68739  1.0000 0.6277389711
C   C144      1.0  0.25820  0.42796  0.66609  1.0000 0.0809033339
C   C145      1.0  0.31980  0.42084  0.67908  1.0000 -0.1502965828
C   C146      1.0  0.33490  0.38606  0.69819  1.0000 -0.0792397094
C   C147      1.0  0.29190  0.35962  0.70333  1.0000 -0.0145517932
C   C148      1.0  0.22680  0.36701  0.69277  1.0000 -0.0916988523
C   C149      1.0  0.20880  0.40087  0.67412  1.0000 -0.1502965828
C   C150      1.0  0.30880  0.32345  0.72433  1.0000 0.5414448043
C   C151      1.0  0.21040  0.98077  0.49758  1.0000 -0.1920610035
C   C152      1.0  0.14220  0.96829  0.49592  1.0000 0.1782882196
C   C153      1.0  0.12130  0.93072  0.49066  1.0000 -0.0745847488
C   C154      1.0  0.05490  0.91906  0.48885  1.0000 0.1709362304
C   C155      1.0  0.03284  0.87986  0.48442  1.0000 -0.1920610035
C   C156      1.0  0.17310  0.90020  0.48752  1.0000 0.092721138
C   C157      1.0  0.19140  0.88587  0.45249  1.0000 -0.1920610035
C   C158      1.0  0.23850  0.85638  0.44855  1.0000 0.0809033339
C   C159      1.0  0.26760  0.84183  0.48141  1.0000 -0.1920610035
C   C160      1.0  0.25020  0.85534  0.51665  1.0000 0.0809033339
C   C161      1.0  0.20310  0.88490  0.51948  1.0000 -0.1920610035
C   C162      1.0  0.28060  0.83905  0.55312  1.0000 0.0809033339
C   C163      1.0  0.34150  0.82175  0.55220  1.0000 -0.1559695113
C   C164      1.0  0.36760  0.80391  0.58451  1.0000 -0.0982634055
C   C165      1.0  0.33510  0.80384  0.61787  1.0000 -0.0533291737
C   C166      1.0  0.27650  0.82119  0.61864  1.0000 -0.0916988523
C   C167      1.0  0.24880  0.83871  0.58761  1.0000 -0.1502965828
C   C168      1.0  0.36170  0.78393  0.65219  1.0000 0.6129974311
C   C169      1.0  0.25580  0.84038  0.41128  1.0000 0.058640356
C   C170      1.0  0.20920  0.83647  0.38273  1.0000 -0.1502965828
C   C171      1.0  0.22330  0.82081  0.34679  1.0000 -0.0916988523
C   C172      1.0  0.28700  0.80624  0.34034  1.0000 -0.0187608346
C   C173      1.0  0.33440  0.81054  0.36746  1.0000 -0.0916988523
C   C174      1.0  0.31960  0.82692  0.40315  1.0000 -0.1559695113
C   C175      1.0  0.30550  0.78726  0.30327  1.0000 0.5414448043
C   C176      1.0  0.03330  0.50178  0.37957  1.0000 -0.1978335308
C   C177      1.0  0.05550  0.50135  0.41836  1.0000 0.1782882196
C   C178      1.0  0.12060  0.50090  0.43046  1.0000 -0.0792397094
C   C179      1.0  0.14120  0.50038  0.46878  1.0000 0.1782882196
C   C180      1.0  0.20870  0.49968  0.48093  1.0000 -0.1978335308
C   C181      1.0  0.17330  0.50121  0.40041  1.0000 0.1012806853
C   C182      1.0  0.20480  0.46684  0.38971  1.0000 -0.1920610035
C   C183      1.0  0.25430  0.46634  0.36138  1.0000 0.0809033339
C   C184      1.0  0.27160  0.50083  0.34446  1.0000 -0.1920610035
C   C185      1.0  0.24190  0.53553  0.35459  1.0000 0.0809033339
C   C186      1.0  0.19200  0.53493  0.38218  1.0000 -0.1920610035
C   C187      1.0  0.28420  0.43012  0.34928  1.0000 0.0688207017
C   C188      1.0  0.24890  0.39957  0.33900  1.0000 -0.1502965828
C   C189      1.0  0.27770  0.36558  0.32580  1.0000 -0.0982634055
C   C190      1.0  0.34110  0.35982  0.32615  1.0000 -0.031609337
C   C191      1.0  0.37840  0.39069  0.33520  1.0000 -0.1150063837
C   C192      1.0  0.35220  0.42545  0.34730  1.0000 -0.1559695113
C   C193      1.0  0.37150  0.32261  0.31261  1.0000 0.6277389711
C   C194      1.0  0.25820  0.57204  0.33391  1.0000 0.0809033339
C   C195      1.0  0.31980  0.57916  0.32092  1.0000 -0.1502965828
C   C196      1.0  0.33490  0.61394  0.30181  1.0000 -0.0792397094
C   C197      1.0  0.29190  0.64038  0.29667  1.0000 -0.0145517932
C   C198      1.0  0.22680  0.63299  0.30723  1.0000 -0.0916988523
C   C199      1.0  0.20880  0.59913  0.32588  1.0000 -0.1502965828
C   C200      1.0  0.30880  0.67655  0.27567  1.0000 0.5414448043
C   C201      1.0  0.21040  0.51923  0.99758  1.0000 -0.1920610035
C   C202      1.0  0.14220  0.53171  0.99592  1.0000 0.1782882196
C   C203      1.0  0.12130  0.56928  0.99066  1.0000 -0.0745847488
C   C204      1.0  0.05490  0.58094  0.98885  1.0000 0.1709362304
C   C205      1.0  0.03284  0.62014  0.98442  1.0000 -0.1920610035
C   C206      1.0  0.17310  0.59980  0.98752  1.0000 0.092721138
C   C207      1.0  0.19140  0.61413  0.95249  1.0000 -0.1920610035
C   C208      1.0  0.23850  0.64362  0.94855  1.0000 0.0809033339
C   C209      1.0  0.26760  0.65817  0.98141  1.0000 -0.1920610035
C   C210      1.0  0.25020  0.64466  0.01665  1.0000 0.0809033339
C   C211      1.0  0.20310  0.61510  0.01948  1.0000 -0.1920610035
C   C212      1.0  0.28060  0.66095  0.05312  1.0000 0.0809033339
C   C213      1.0  0.34150  0.67825  0.05220  1.0000 -0.1559695113
C   C214      1.0  0.36760  0.69609  0.08451  1.0000 -0.0982634055
C   C215      1.0  0.33510  0.69616  0.11787  1.0000 -0.0533291737
C   C216      1.0  0.27650  0.67881  0.11864  1.0000 -0.0916988523
C   C217      1.0  0.24880  0.66129  0.08761  1.0000 -0.1502965828
C   C218      1.0  0.36170  0.71607  0.15219  1.0000 0.6129974311
C   C219      1.0  0.25580  0.65962  0.91128  1.0000 0.058640356
C   C220      1.0  0.20920  0.66353  0.88273  1.0000 -0.1502965828
C   C221      1.0  0.22330  0.67919  0.84679  1.0000 -0.0916988523
C   C222      1.0  0.28700  0.69376  0.84034  1.0000 -0.0187608346
C   C223      1.0  0.33440  0.68946  0.86746  1.0000 -0.0916988523
C   C224      1.0  0.31960  0.67308  0.90315  1.0000 -0.1559695113
C   C225      1.0  0.30550  0.71274  0.80327  1.0000 0.5414448043
C   C226      1.0  0.03330  0.99822  0.87957  1.0000 -0.1978335308
C   C227      1.0  0.05550  0.99865  0.91836  1.0000 0.1782882196
C   C228      1.0  0.12060  0.99910  0.93046  1.0000 -0.0792397094
C   C229      1.0  0.14120  0.99962  0.96878  1.0000 0.1782882196
C   C230      1.0  0.20870  0.00032  0.98093  1.0000 -0.1978335308
C   C231      1.0  0.17330  0.99879  0.90041  1.0000 0.1012806853
C   C232      1.0  0.20480  0.03316  0.88971  1.0000 -0.1920610035
C   C233      1.0  0.25430  0.03366  0.86138  1.0000 0.0809033339
C   C234      1.0  0.27160  0.99917  0.84446  1.0000 -0.1920610035
C   C235      1.0  0.24190  0.96447  0.85459  1.0000 0.0809033339
C   C236      1.0  0.19200  0.96507  0.88218  1.0000 -0.1920610035
C   C237      1.0  0.28420  0.06988  0.84928  1.0000 0.0688207017
C   C238      1.0  0.24890  0.10043  0.83900  1.0000 -0.1502965828
C   C239      1.0  0.27770  0.13442  0.82580  1.0000 -0.0982634055
C   C240      1.0  0.34110  0.14018  0.82615  1.0000 -0.031609337
C   C241      1.0  0.37840  0.10931  0.83520  1.0000 -0.1146285573
C   C242      1.0  0.35220  0.07455  0.84730  1.0000 -0.1559695113
C   C243      1.0  0.37150  0.17739  0.81261  1.0000 0.6277389711
C   C244      1.0  0.25820  0.92796  0.83391  1.0000 0.0809033339
C   C245      1.0  0.31980  0.92084  0.82092  1.0000 -0.1502965828
C   C246      1.0  0.33490  0.88606  0.80181  1.0000 -0.0792397094
C   C247      1.0  0.29190  0.85962  0.79667  1.0000 -0.0145517932
C   C248      1.0  0.22680  0.86701  0.80723  1.0000 -0.0916988523
C   C249      1.0  0.20880  0.90087  0.82588  1.0000 -0.1502965828
C   C250      1.0  0.30880  0.82345  0.77567  1.0000 0.5414448043
C   C251      1.0  0.21040  0.48077  0.00242  1.0000 -0.1920610035
C   C252      1.0  0.14220  0.46829  0.00408  1.0000 0.1782882196
C   C253      1.0  0.12130  0.43072  0.00934  1.0000 -0.0745847488
C   C254      1.0  0.05490  0.41906  0.01115  1.0000 0.1709362304
C   C255      1.0  0.03284  0.37986  0.01558  1.0000 -0.1920610035
C   C256      1.0  0.17310  0.40020  0.01248  1.0000 0.092721138
C   C257      1.0  0.19140  0.38587  0.04751  1.0000 -0.1920610035
C   C258      1.0  0.23850  0.35638  0.05145  1.0000 0.0809033339
C   C259      1.0  0.26760  0.34183  0.01859  1.0000 -0.1920610035
C   C260      1.0  0.25020  0.35534  0.98335  1.0000 0.0809033339
C   C261      1.0  0.20310  0.38490  0.98052  1.0000 -0.1920610035
C   C262      1.0  0.28060  0.33905  0.94688  1.0000 0.0809033339
C   C263      1.0  0.34150  0.32175  0.94780  1.0000 -0.1559695113
C   C264      1.0  0.36760  0.30391  0.91549  1.0000 -0.0982634055
C   C265      1.0  0.33510  0.30384  0.88213  1.0000 -0.0533291737
C   C266      1.0  0.27650  0.32119  0.88136  1.0000 -0.0916988523
C   C267      1.0  0.24880  0.33871  0.91239  1.0000 -0.1502965828
C   C268      1.0  0.36170  0.28393  0.84781  1.0000 0.6129974311
C   C269      1.0  0.25580  0.34038  0.08872  1.0000 0.058640356
C   C270      1.0  0.20920  0.33647  0.11727  1.0000 -0.1502965828
C   C271      1.0  0.22330  0.32081  0.15321  1.0000 -0.0916988523
C   C272      1.0  0.28700  0.30624  0.15966  1.0000 -0.0187608346
C   C273      1.0  0.33440  0.31054  0.13254  1.0000 -0.0916988523
C   C274      1.0  0.31960  0.32692  0.09685  1.0000 -0.1559695113
C   C275      1.0  0.30550  0.28726  0.19673  1.0000 0.5414448043
C   C276      1.0  0.03330  0.00178  0.12043  1.0000 -0.1978335308
C   C277      1.0  0.05550  0.00135  0.08164  1.0000 0.1782882196
C   C278      1.0  0.12060  0.00090  0.06954  1.0000 -0.0792397094
C   C279      1.0  0.14120  0.00038  0.03122  1.0000 0.1782882196
C   C280      1.0  0.20870  0.99968  0.01907  1.0000 -0.1978335308
C   C281      1.0  0.17330  0.00121  0.09959  1.0000 0.1012806853
C   C282      1.0  0.20480  0.96684  0.11029  1.0000 -0.1920610035
C   C283      1.0  0.25430  0.96634  0.13862  1.0000 0.0809033339
C   C284      1.0  0.27160  0.00083  0.15554  1.0000 -0.1920610035
C   C285      1.0  0.24190  0.03553  0.14541  1.0000 0.0809033339
C   C286      1.0  0.19200  0.03493  0.11782  1.0000 -0.1920610035
C   C287      1.0  0.28420  0.93012  0.15072  1.0000 0.0688207017
C   C288      1.0  0.24890  0.89957  0.16100  1.0000 -0.1502965828
C   C289      1.0  0.27770  0.86558  0.17420  1.0000 -0.0982634055
C   C290      1.0  0.34110  0.85982  0.17385  1.0000 -0.031609337
C   C291      1.0  0.37840  0.89069  0.16480  1.0000 -0.1150063837
C   C292      1.0  0.35220  0.92545  0.15270  1.0000 -0.1559695113
C   C293      1.0  0.37150  0.82261  0.18739  1.0000 0.6277389711
C   C294      1.0  0.25820  0.07204  0.16609  1.0000 0.0809033339
C   C295      1.0  0.31980  0.07916  0.17908  1.0000 -0.1502965828
C   C296      1.0  0.33490  0.11394  0.19819  1.0000 -0.0792397094
C   C297      1.0  0.29190  0.14038  0.20333  1.0000 -0.0145517932
C   C298      1.0  0.22680  0.13299  0.19277  1.0000 -0.0916988523
C   C299      1.0  0.20880  0.09913  0.17412  1.0000 -0.1502965828
C   C300      1.0  0.30880  0.17655  0.22433  1.0000 0.5414448043
C   C301      1.0  0.78960  0.98077  0.49758  1.0000 -0.1920610035
C   C302      1.0  0.85780  0.96829  0.49592  1.0000 0.1782882196
C   C303      1.0  0.87870  0.93072  0.49066  1.0000 -0.0745847488
C   C304      1.0  0.94510  0.91906  0.48885  1.0000 0.1709362304
C   C305      1.0  0.96716  0.87986  0.48442  1.0000 -0.1920610035
C   C306      1.0  0.82690  0.90020  0.48752  1.0000 0.092721138
C   C307      1.0  0.80860  0.88587  0.45249  1.0000 -0.1920610035
C   C308      1.0  0.76150  0.85638  0.44855  1.0000 0.0809033339
C   C309      1.0  0.73240  0.84183  0.48141  1.0000 -0.1920610035
C   C310      1.0  0.74980  0.85534  0.51665  1.0000 0.0809033339
C   C311      1.0  0.79690  0.88490  0.51948  1.0000 -0.1920610035
C   C312      1.0  0.71940  0.83905  0.55312  1.0000 0.0809033339
C   C313      1.0  0.65850  0.82175  0.55220  1.0000 -0.1559695113
C   C314      1.0  0.63240  0.80391  0.58451  1.0000 -0.0982634055
C   C315      1.0  0.66490  0.80384  0.61787  1.0000 -0.0533291737
C   C316      1.0  0.72350  0.82119  0.61864  1.0000 -0.0916988523
C   C317      1.0  0.75120  0.83871  0.58761  1.0000 -0.1502965828
C   C318      1.0  0.63830  0.78393  0.65219  1.0000 0.6129974311
C   C319      1.0  0.74420  0.84038  0.41128  1.0000 0.058640356
C   C320      1.0  0.79080  0.83647  0.38273  1.0000 -0.1502965828
C   C321      1.0  0.77670  0.82081  0.34679  1.0000 -0.0916988523
C   C322      1.0  0.71300  0.80624  0.34034  1.0000 -0.0187608346
C   C323      1.0  0.66560  0.81054  0.36746  1.0000 -0.0916988523
C   C324      1.0  0.68040  0.82692  0.40315  1.0000 -0.1559695113
C   C325      1.0  0.69450  0.78726  0.30327  1.0000 0.5414448043
C   C326      1.0  0.96670  0.50178  0.37957  1.0000 -0.1978335308
C   C327      1.0  0.94450  0.50135  0.41836  1.0000 0.1782882196
C   C328      1.0  0.87940  0.50090  0.43046  1.0000 -0.0792397094
C   C329      1.0  0.85880  0.50038  0.46878  1.0000 0.1782882196
C   C330      1.0  0.79130  0.49968  0.48093  1.0000 -0.1978335308
C   C331      1.0  0.82670  0.50121  0.40041  1.0000 0.1012806853
C   C332      1.0  0.79520  0.46684  0.38971  1.0000 -0.1920610035
C   C333      1.0  0.74570  0.46634  0.36138  1.0000 0.0809033339
C   C334      1.0  0.72840  0.50083  0.34446  1.0000 -0.1920610035
C   C335      1.0  0.75810  0.53553  0.35459  1.0000 0.0809033339
C   C336      1.0  0.80800  0.53493  0.38218  1.0000 -0.1920610035
C   C337      1.0  0.71580  0.43012  0.34928  1.0000 0.0688207017
C   C338      1.0  0.75110  0.39957  0.33900  1.0000 -0.1502965828
C   C339      1.0  0.72230  0.36558  0.32580  1.0000 -0.0982634055
C   C340      1.0  0.65890  0.35982  0.32615  1.0000 -0.031609337
C   C341      1.0  0.62160  0.39069  0.33520  1.0000 -0.1150063837
C   C342      1.0  0.64780  0.42545  0.34730  1.0000 -0.1559695113
C   C343      1.0  0.62850  0.32261  0.31261  1.0000 0.6277389711
C   C344      1.0  0.74180  0.57204  0.33391  1.0000 0.0809033339
C   C345      1.0  0.68020  0.57916  0.32092  1.0000 -0.1502965828
C   C346      1.0  0.66510  0.61394  0.30181  1.0000 -0.0792397094
C   C347      1.0  0.70810  0.64038  0.29667  1.0000 -0.0145517932
C   C348      1.0  0.77320  0.63299  0.30723  1.0000 -0.0916988523
C   C349      1.0  0.79120  0.59913  0.32588  1.0000 -0.1502965828
C   C350      1.0  0.69120  0.67655  0.27567  1.0000 0.5414448043
C   C351      1.0  0.78960  0.01923  0.50242  1.0000 -0.1920610035
C   C352      1.0  0.85780  0.03171  0.50408  1.0000 0.1782882196
C   C353      1.0  0.87870  0.06928  0.50934  1.0000 -0.0792397094
C   C354      1.0  0.94510  0.08094  0.51115  1.0000 0.1709362304
C   C355      1.0  0.96716  0.12014  0.51558  1.0000 -0.1920610035
C   C356      1.0  0.82690  0.09980  0.51248  1.0000 0.092721138
C   C357      1.0  0.80860  0.11413  0.54751  1.0000 -0.1920610035
C   C358      1.0  0.76150  0.14362  0.55145  1.0000 0.0809033339
C   C359      1.0  0.73240  0.15817  0.51859  1.0000 -0.1920610035
C   C360      1.0  0.74980  0.14466  0.48335  1.0000 0.0809033339
C   C361      1.0  0.79690  0.11510  0.48052  1.0000 -0.1920610035
C   C362      1.0  0.71940  0.16095  0.44688  1.0000 0.0809033339
C   C363      1.0  0.65850  0.17825  0.44780  1.0000 -0.1559695113
C   C364      1.0  0.63240  0.19609  0.41549  1.0000 -0.0982634055
C   C365      1.0  0.66490  0.19616  0.38213  1.0000 -0.0533291737
C   C366      1.0  0.72350  0.17881  0.38136  1.0000 -0.0916988523
C   C367      1.0  0.75120  0.16129  0.41239  1.0000 -0.1502965828
C   C368      1.0  0.63830  0.21607  0.34781  1.0000 0.6129974311
C   C369      1.0  0.74420  0.15962  0.58872  1.0000 0.058640356
C   C370      1.0  0.79080  0.16353  0.61727  1.0000 -0.1502965828
C   C371      1.0  0.77670  0.17919  0.65321  1.0000 -0.0916988523
C   C372      1.0  0.71300  0.19376  0.65966  1.0000 -0.0187608346
C   C373      1.0  0.66560  0.18946  0.63254  1.0000 -0.0916988523
C   C374      1.0  0.68040  0.17308  0.59685  1.0000 -0.1559695113
C   C375      1.0  0.69450  0.21274  0.69673  1.0000 0.5414448043
C   C376      1.0  0.96670  0.49822  0.62043  1.0000 -0.1978335308
C   C377      1.0  0.94450  0.49865  0.58164  1.0000 0.1782882196
C   C378      1.0  0.87940  0.49910  0.56954  1.0000 -0.0792397094
C   C379      1.0  0.85880  0.49962  0.53122  1.0000 0.1782882196
C   C380      1.0  0.79130  0.50032  0.51907  1.0000 -0.1978335308
C   C381      1.0  0.82670  0.49879  0.59959  1.0000 0.1012806853
C   C382      1.0  0.79520  0.53316  0.61029  1.0000 -0.1920610035
C   C383      1.0  0.74570  0.53366  0.63862  1.0000 0.0809033339
C   C384      1.0  0.72840  0.49917  0.65554  1.0000 -0.1920610035
C   C385      1.0  0.75810  0.46447  0.64541  1.0000 0.0809033339
C   C386      1.0  0.80800  0.46507  0.61782  1.0000 -0.1920610035
C   C387      1.0  0.71580  0.56988  0.65072  1.0000 0.0688207017
C   C388      1.0  0.75110  0.60043  0.66100  1.0000 -0.1502965828
C   C389      1.0  0.72230  0.63442  0.67420  1.0000 -0.0982634055
C   C390      1.0  0.65890  0.64018  0.67385  1.0000 -0.031609337
C   C391      1.0  0.62160  0.60931  0.66480  1.0000 -0.1150063837
C   C392      1.0  0.64780  0.57455  0.65270  1.0000 -0.1559695113
C   C393      1.0  0.62850  0.67739  0.68739  1.0000 0.6277389711
C   C394      1.0  0.74180  0.42796  0.66609  1.0000 0.0809033339
C   C395      1.0  0.68020  0.42084  0.67908  1.0000 -0.1502965828
C   C396      1.0  0.66510  0.38606  0.69819  1.0000 -0.0792397094
C   C397      1.0  0.70810  0.35962  0.70333  1.0000 -0.0145517932
C   C398      1.0  0.77320  0.36701  0.69277  1.0000 -0.0916988523
C   C399      1.0  0.79120  0.40087  0.67412  1.0000 -0.1502965828
C   C400      1.0  0.69120  0.32345  0.72433  1.0000 0.5414448043
C   C401      1.0  0.50000  0.24288  0.25150  1.0000 0.7359940594
C   C402      1.0  0.50000  0.22843  0.21016  1.0000 -0.5880048041
C   C403      1.0  0.50000  0.75712  0.74850  1.0000 0.7359940594
C   C404      1.0  0.50000  0.77157  0.78984  1.0000 -0.5880048041
C   C405      1.0  0.50000  0.25712  0.75150  1.0000 0.7359940594
C   C406      1.0  0.50000  0.27157  0.71016  1.0000 -0.5880048041
C   C407      1.0  0.50000  0.74288  0.24850  1.0000 0.7359940594
C   C408      1.0  0.50000  0.72843  0.28984  1.0000 -0.5880048041
N   N1        1.0  0.89820  0.50000  0.00000  1.0000 -0.3043919841
N   N2        1.0  0.10180  0.00000  0.50000  1.0000 -0.3043919841
N   N3        1.0  0.10180  0.50000  0.00000  1.0000 -0.3043919841
N   N4        1.0  0.89820  0.00000  0.50000  1.0000 -0.3043919841
N   N5        1.0  0.00000  0.44241  0.00804  1.0000 -0.3136631066
N   N6        1.0  0.00000  0.00203  0.05892  1.0000 -0.3176867107
N   N7        1.0  0.00000  0.55759  0.99196  1.0000 -0.3136631066
N   N8        1.0  0.00000  0.99797  0.94108  1.0000 -0.3176867107
N   N9        1.0  0.00000  0.05759  0.50804  1.0000 -0.3136631066
N   N10       1.0  0.00000  0.49797  0.55892  1.0000 -0.3176867107
N   N11       1.0  0.00000  0.94241  0.49196  1.0000 -0.3136631066
N   N12       1.0  0.00000  0.50203  0.44108  1.0000 -0.3176867107
N   N13       1.0  0.89920  0.00000  0.00000  1.0000 -0.3275865654
N   N14       1.0  0.10080  0.50000  0.50000  1.0000 -0.3275865654
N   N15       1.0  0.10080  0.00000  0.00000  1.0000 -0.3275865654
N   N16       1.0  0.89920  0.50000  0.50000  1.0000 -0.3275865654
O   O1        1.0  0.66276  0.28796  0.81767  1.0000 -0.5292696471
O   O2        1.0  0.59140  0.26095  0.85462  1.0000 -0.6237779672
O   O3        1.0  0.64067  0.27317  0.20306  1.0000 -0.5292696471
O   O4        1.0  0.74200  0.28450  0.22111  1.0000 -0.5828059355
O   O5        1.0  0.66248  0.80210  0.20700  1.0000 -0.5547435099
O   O6        1.0  0.56900  0.81652  0.17720  1.0000 -0.60769007
O   O7        1.0  0.74170  0.19912  0.23231  1.0000 -0.5880048041
O   O8        1.0  0.63760  0.18412  0.23605  1.0000 -0.479893286
O   O9        1.0  0.55455  0.24850  0.26894  1.0000 -0.6623896176
O   O10       1.0  0.66276  0.71204  0.18233  1.0000 -0.5292696471
O   O11       1.0  0.59140  0.73905  0.14538  1.0000 -0.6237779672
O   O12       1.0  0.64067  0.72683  0.79694  1.0000 -0.5292696471
O   O13       1.0  0.74200  0.71550  0.77889  1.0000 -0.5828059355
O   O14       1.0  0.66248  0.19790  0.79300  1.0000 -0.5547435099
O   O15       1.0  0.56900  0.18348  0.82280  1.0000 -0.60769007
O   O16       1.0  0.74170  0.80088  0.76769  1.0000 -0.5880048041
O   O17       1.0  0.63760  0.81588  0.76395  1.0000 -0.479893286
O   O18       1.0  0.55455  0.75150  0.73106  1.0000 -0.6623896176
O   O19       1.0  0.33724  0.21204  0.31767  1.0000 -0.5292696471
O   O20       1.0  0.40860  0.23905  0.35462  1.0000 -0.6237779672
O   O21       1.0  0.35933  0.22683  0.70306  1.0000 -0.5292696471
O   O22       1.0  0.25800  0.21550  0.72111  1.0000 -0.5828059355
O   O23       1.0  0.33752  0.69790  0.70700  1.0000 -0.5547435099
O   O24       1.0  0.43100  0.68348  0.67720  1.0000 -0.60769007
O   O25       1.0  0.25830  0.30088  0.73231  1.0000 -0.5880048041
O   O26       1.0  0.36240  0.31588  0.73605  1.0000 -0.479893286
O   O27       1.0  0.44545  0.25150  0.76894  1.0000 -0.6623896176
O   O28       1.0  0.33724  0.78796  0.68233  1.0000 -0.5292696471
O   O29       1.0  0.40860  0.76095  0.64538  1.0000 -0.6237779672
O   O30       1.0  0.35933  0.77317  0.29694  1.0000 -0.5292696471
O   O31       1.0  0.25800  0.78450  0.27889  1.0000 -0.5828059355
O   O32       1.0  0.33752  0.30210  0.29300  1.0000 -0.5547435099
O   O33       1.0  0.43100  0.31652  0.32280  1.0000 -0.60769007
O   O34       1.0  0.25830  0.69912  0.26769  1.0000 -0.5880048041
O   O35       1.0  0.36240  0.68412  0.26395  1.0000 -0.479893286
O   O36       1.0  0.44545  0.74850  0.23106  1.0000 -0.6623896176
O   O37       1.0  0.33724  0.71204  0.18233  1.0000 -0.5292696471
O   O38       1.0  0.40860  0.73905  0.14538  1.0000 -0.6237779672
O   O39       1.0  0.35933  0.72683  0.79694  1.0000 -0.5292696471
O   O40       1.0  0.25800  0.71550  0.77889  1.0000 -0.5828059355
O   O41       1.0  0.33752  0.19790  0.79300  1.0000 -0.5547435099
O   O42       1.0  0.43100  0.18348  0.82280  1.0000 -0.60769007
O   O43       1.0  0.25830  0.80088  0.76769  1.0000 -0.5880048041
O   O44       1.0  0.36240  0.81588  0.76395  1.0000 -0.479893286
O   O45       1.0  0.44545  0.75150  0.73106  1.0000 -0.6623896176
O   O46       1.0  0.33724  0.28796  0.81767  1.0000 -0.5292696471
O   O47       1.0  0.40860  0.26095  0.85462  1.0000 -0.6237779672
O   O48       1.0  0.35933  0.27317  0.20306  1.0000 -0.5292696471
O   O49       1.0  0.25800  0.28450  0.22111  1.0000 -0.5828059355
O   O50       1.0  0.33752  0.80210  0.20700  1.0000 -0.5547435099
O   O51       1.0  0.43100  0.81652  0.17720  1.0000 -0.60769007
O   O52       1.0  0.25830  0.19912  0.23231  1.0000 -0.5880048041
O   O53       1.0  0.36240  0.18412  0.23605  1.0000 -0.479893286
O   O54       1.0  0.44545  0.24850  0.26894  1.0000 -0.6623896176
O   O55       1.0  0.66276  0.78796  0.68233  1.0000 -0.5292696471
O   O56       1.0  0.59140  0.76095  0.64538  1.0000 -0.6237779672
O   O57       1.0  0.64067  0.77317  0.29694  1.0000 -0.5292696471
O   O58       1.0  0.74200  0.78450  0.27889  1.0000 -0.5828059355
O   O59       1.0  0.66248  0.30210  0.29300  1.0000 -0.5547435099
O   O60       1.0  0.56900  0.31652  0.32280  1.0000 -0.60769007
O   O61       1.0  0.74170  0.69912  0.26769  1.0000 -0.5880048041
O   O62       1.0  0.63760  0.68412  0.26395  1.0000 -0.479893286
O   O63       1.0  0.55455  0.74850  0.23106  1.0000 -0.6623896176
O   O64       1.0  0.66276  0.21204  0.31767  1.0000 -0.5292696471
O   O65       1.0  0.59140  0.23905  0.35462  1.0000 -0.6237779672
O   O66       1.0  0.64067  0.22683  0.70306  1.0000 -0.5292696471
O   O67       1.0  0.74200  0.21550  0.72111  1.0000 -0.5828059355
O   O68       1.0  0.66248  0.69790  0.70700  1.0000 -0.5547435099
O   O69       1.0  0.56900  0.68348  0.67720  1.0000 -0.60769007
O   O70       1.0  0.74170  0.30088  0.73231  1.0000 -0.5880048041
O   O71       1.0  0.63760  0.31588  0.73605  1.0000 -0.479893286
O   O72       1.0  0.55455  0.25150  0.76894  1.0000 -0.6623896176
