# DDEC6 charges by PACMAN v1.1 (https://github.com/mtap-research/PACMAN-charge/)
data_2018[Zn][sql]2[ASR]22
_chemical_formula_sum              "Zn4 H64 C112 O16"
_cell_length_a       11.3277
_cell_length_b       18.625
_cell_length_c       16.6549
_cell_angle_alpha    90
_cell_angle_beta     118.697
_cell_angle_gamma    90

_symmetry_space_group_name_H-M    "P 1"
_symmetry_Int_Tables_number       1

loop_
  _symmetry_equiv_pos_as_xyz
  'x, y, z'

loop_
  _atom_site_type_symbol
  _atom_site_label
  _atom_site_symmetry_multiplicity
  _atom_site_fract_x
  _atom_site_fract_y
  _atom_site_fract_z
  _atom_site_occupancy
  _atom_site_charge
Zn  Zn1       1.0  0.36036  0.52145  0.93070  1.0000 0.9292867377
Zn  Zn2       1.0  0.63964  0.02145  0.56930  1.0000 0.9292867377
Zn  Zn3       1.0  0.63964  0.47855  0.06930  1.0000 0.9292867377
Zn  Zn4       1.0  0.36036  0.97855  0.43070  1.0000 0.9292867377
H   H1        1.0  0.76670  0.41320  0.67120  1.0000 0.1110301465
H   H2        1.0  0.81270  0.29300  0.66180  1.0000 0.1177447319
H   H3        1.0  0.86290  0.25380  0.55020  1.0000 0.1177447319
H   H4        1.0  0.87100  0.33370  0.44680  1.0000 0.1177447319
H   H5        1.0  0.87420  0.44460  0.34860  1.0000 0.1177447319
H   H6        1.0  0.86020  0.55410  0.27800  1.0000 0.1177447319
H   H7        1.0  0.80270  0.65680  0.32940  1.0000 0.1110301465
H   H8        1.0  0.76140  0.65250  0.45230  1.0000 0.1110301465
H   H9        1.0  0.49500  0.51580  0.58640  1.0000 0.1110301465
H   H10       1.0  0.43870  0.48910  0.69890  1.0000 0.1110301465
H   H11       1.0  0.87300  0.56060  0.77830  1.0000 0.1177447319
H   H12       1.0  0.50750  0.63620  0.46910  1.0000 0.1177447319
H   H13       1.0  0.45480  0.75770  0.44990  1.0000 0.1177447319
H   H14       1.0  0.81100  0.80240  0.66770  1.0000 0.1177447319
H   H15       1.0  0.86370  0.68180  0.68790  1.0000 0.1177447319
H   H16       1.0  0.81650  0.53320  0.89050  1.0000 0.1258892759
H   H17       1.0  0.23330  0.91320  0.82880  1.0000 0.1110301465
H   H18       1.0  0.18730  0.79300  0.83820  1.0000 0.1177447319
H   H19       1.0  0.13710  0.75380  0.94980  1.0000 0.1177447319
H   H20       1.0  0.12900  0.83370  0.05320  1.0000 0.1177447319
H   H21       1.0  0.12580  0.94460  0.15140  1.0000 0.1177447319
H   H22       1.0  0.13980  0.05410  0.22200  1.0000 0.1177447319
H   H23       1.0  0.19730  0.15680  0.17060  1.0000 0.1110301465
H   H24       1.0  0.23860  0.15250  0.04770  1.0000 0.1110301465
H   H25       1.0  0.50500  0.01580  0.91360  1.0000 0.1110301465
H   H26       1.0  0.56130  0.98910  0.80110  1.0000 0.1110301465
H   H27       1.0  0.12700  0.06060  0.72170  1.0000 0.1177447319
H   H28       1.0  0.49250  0.13620  0.03090  1.0000 0.1177447319
H   H29       1.0  0.54520  0.25770  0.05010  1.0000 0.1177447319
H   H30       1.0  0.18900  0.30240  0.83230  1.0000 0.1177447319
H   H31       1.0  0.13630  0.18180  0.81210  1.0000 0.1177447319
H   H32       1.0  0.18350  0.03320  0.60950  1.0000 0.1258892759
H   H33       1.0  0.23330  0.58680  0.32880  1.0000 0.1110301465
H   H34       1.0  0.18730  0.70700  0.33820  1.0000 0.1177447319
H   H35       1.0  0.13710  0.74620  0.44980  1.0000 0.1177447319
H   H36       1.0  0.12900  0.66630  0.55320  1.0000 0.1177447319
H   H37       1.0  0.12580  0.55540  0.65140  1.0000 0.1177447319
H   H38       1.0  0.13980  0.44590  0.72200  1.0000 0.1177447319
H   H39       1.0  0.19730  0.34320  0.67060  1.0000 0.1110301465
H   H40       1.0  0.23860  0.34750  0.54770  1.0000 0.1110301465
H   H41       1.0  0.50500  0.48420  0.41360  1.0000 0.1110301465
H   H42       1.0  0.56130  0.51090  0.30110  1.0000 0.1110301465
H   H43       1.0  0.12700  0.43940  0.22170  1.0000 0.1177447319
H   H44       1.0  0.49250  0.36380  0.53090  1.0000 0.1177447319
H   H45       1.0  0.54520  0.24230  0.55010  1.0000 0.1177447319
H   H46       1.0  0.18900  0.19760  0.33230  1.0000 0.1177447319
H   H47       1.0  0.13630  0.31820  0.31210  1.0000 0.1177447319
H   H48       1.0  0.18350  0.46680  0.10950  1.0000 0.1258892759
H   H49       1.0  0.76670  0.08680  0.17120  1.0000 0.1110301465
H   H50       1.0  0.81270  0.20700  0.16180  1.0000 0.1177447319
H   H51       1.0  0.86290  0.24620  0.05020  1.0000 0.1177447319
H   H52       1.0  0.87100  0.16630  0.94680  1.0000 0.1177447319
H   H53       1.0  0.87420  0.05540  0.84860  1.0000 0.1177447319
H   H54       1.0  0.86020  0.94590  0.77800  1.0000 0.1177447319
H   H55       1.0  0.80270  0.84320  0.82940  1.0000 0.1110301465
H   H56       1.0  0.76140  0.84750  0.95230  1.0000 0.1110301465
H   H57       1.0  0.49500  0.98420  0.08640  1.0000 0.1110301465
H   H58       1.0  0.43870  0.01090  0.19890  1.0000 0.1110301465
H   H59       1.0  0.87300  0.93940  0.27830  1.0000 0.1177447319
H   H60       1.0  0.50750  0.86380  0.96910  1.0000 0.1177447319
H   H61       1.0  0.45480  0.74230  0.94990  1.0000 0.1177447319
H   H62       1.0  0.81100  0.69760  0.16770  1.0000 0.1177447319
H   H63       1.0  0.86370  0.81820  0.18790  1.0000 0.1177447319
H   H64       1.0  0.81650  0.96680  0.39050  1.0000 0.1258892759
C   C1        1.0  0.78990  0.44639  0.56330  1.0000 0.0291858136
C   C2        1.0  0.78690  0.39772  0.62610  1.0000 -0.137046581
C   C3        1.0  0.81460  0.32570  0.62030  1.0000 -0.1105135039
C   C4        1.0  0.84540  0.30220  0.55340  1.0000 -0.1105135039
C   C5        1.0  0.85020  0.34980  0.49140  1.0000 -0.137046581
C   C6        1.0  0.82330  0.42190  0.49650  1.0000 0.0203897016
C   C7        1.0  0.82450  0.48320  0.44210  1.0000 0.0203897016
C   C8        1.0  0.85120  0.48600  0.36910  1.0000 -0.137046581
C   C9        1.0  0.84280  0.55150  0.32710  1.0000 -0.0921392918
C   C10       1.0  0.80860  0.61320  0.35830  1.0000 -0.0921392918
C   C11       1.0  0.78300  0.61070  0.43160  1.0000 -0.1339245319
C   C12       1.0  0.78990  0.54530  0.47420  1.0000 0.0203897016
C   C13       1.0  0.76410  0.52537  0.55120  1.0000 -0.0220547105
C   C14       1.0  0.55960  0.51980  0.64770  1.0000 -0.1500897165
C   C15       1.0  0.52570  0.50397  0.71500  1.0000 -0.0921392918
C   C16       1.0  0.78560  0.54658  0.76210  1.0000 -0.1500897165
C   C17       1.0  0.56880  0.66960  0.50890  1.0000 -0.1500897165
C   C18       1.0  0.53700  0.74252  0.49740  1.0000 -0.0921392918
C   C19       1.0  0.75000  0.76915  0.62770  1.0000 -0.097982825
C   C20       1.0  0.78210  0.69677  0.63980  1.0000 -0.1563369438
C   C21       1.0  0.59260  0.87160  0.54330  1.0000 0.5977283314
C   C22       1.0  0.58110  0.50022  0.88040  1.0000 0.5977283314
C   C23       1.0  0.72040  0.56773  0.59720  1.0000 -0.0283396172
C   C24       1.0  0.62810  0.79276  0.55690  1.0000 -0.0283396172
C   C25       1.0  0.68960  0.54187  0.67050  1.0000 0.0810220864
C   C26       1.0  0.69200  0.64642  0.57980  1.0000 0.0810220864
C   C27       1.0  0.62140  0.51019  0.80710  1.0000 -0.0220547105
C   C28       1.0  0.75120  0.53043  0.82920  1.0000 -0.097982825
C   C29       1.0  0.21010  0.94639  0.93670  1.0000 0.0291858136
C   C30       1.0  0.21310  0.89772  0.87390  1.0000 -0.137046581
C   C31       1.0  0.18540  0.82570  0.87970  1.0000 -0.1105135039
C   C32       1.0  0.15460  0.80220  0.94660  1.0000 -0.1105135039
C   C33       1.0  0.14980  0.84980  0.00860  1.0000 -0.137046581
C   C34       1.0  0.17670  0.92190  0.00350  1.0000 0.0203897016
C   C35       1.0  0.17550  0.98320  0.05790  1.0000 0.0203897016
C   C36       1.0  0.14880  0.98600  0.13090  1.0000 -0.137046581
C   C37       1.0  0.15720  0.05150  0.17290  1.0000 -0.0921392918
C   C38       1.0  0.19140  0.11320  0.14170  1.0000 -0.0921392918
C   C39       1.0  0.21700  0.11070  0.06840  1.0000 -0.1339245319
C   C40       1.0  0.21010  0.04530  0.02580  1.0000 0.0203897016
C   C41       1.0  0.23590  0.02537  0.94880  1.0000 -0.0220547105
C   C42       1.0  0.44040  0.01980  0.85230  1.0000 -0.1500897165
C   C43       1.0  0.47430  0.00397  0.78500  1.0000 -0.0921392918
C   C44       1.0  0.21440  0.04658  0.73790  1.0000 -0.1500897165
C   C45       1.0  0.43120  0.16960  0.99110  1.0000 -0.1500897165
C   C46       1.0  0.46300  0.24252  0.00260  1.0000 -0.0921392918
C   C47       1.0  0.25000  0.26915  0.87230  1.0000 -0.097982825
C   C48       1.0  0.21790  0.19677  0.86020  1.0000 -0.1563369438
C   C49       1.0  0.40740  0.37160  0.95670  1.0000 0.5977283314
C   C50       1.0  0.41890  0.00022  0.61960  1.0000 0.5977283314
C   C51       1.0  0.27960  0.06773  0.90280  1.0000 -0.0283396172
C   C52       1.0  0.37190  0.29276  0.94310  1.0000 -0.0283396172
C   C53       1.0  0.31040  0.04187  0.82950  1.0000 0.0810220864
C   C54       1.0  0.30800  0.14642  0.92020  1.0000 0.0810220864
C   C55       1.0  0.37860  0.01019  0.69290  1.0000 -0.0220547105
C   C56       1.0  0.24880  0.03043  0.67080  1.0000 -0.097982825
C   C57       1.0  0.21010  0.55361  0.43670  1.0000 0.0291858136
C   C58       1.0  0.21310  0.60228  0.37390  1.0000 -0.137046581
C   C59       1.0  0.18540  0.67430  0.37970  1.0000 -0.1105135039
C   C60       1.0  0.15460  0.69780  0.44660  1.0000 -0.1105135039
C   C61       1.0  0.14980  0.65020  0.50860  1.0000 -0.137046581
C   C62       1.0  0.17670  0.57810  0.50350  1.0000 0.0203897016
C   C63       1.0  0.17550  0.51680  0.55790  1.0000 0.0203897016
C   C64       1.0  0.14880  0.51400  0.63090  1.0000 -0.137046581
C   C65       1.0  0.15720  0.44850  0.67290  1.0000 -0.0921392918
C   C66       1.0  0.19140  0.38680  0.64170  1.0000 -0.0921392918
C   C67       1.0  0.21700  0.38930  0.56840  1.0000 -0.1339245319
C   C68       1.0  0.21010  0.45470  0.52580  1.0000 0.0203897016
C   C69       1.0  0.23590  0.47463  0.44880  1.0000 -0.0220547105
C   C70       1.0  0.44040  0.48020  0.35230  1.0000 -0.1500897165
C   C71       1.0  0.47430  0.49603  0.28500  1.0000 -0.0921392918
C   C72       1.0  0.21440  0.45342  0.23790  1.0000 -0.1500897165
C   C73       1.0  0.43120  0.33040  0.49110  1.0000 -0.1500897165
C   C74       1.0  0.46300  0.25748  0.50260  1.0000 -0.0921392918
C   C75       1.0  0.25000  0.23085  0.37230  1.0000 -0.097982825
C   C76       1.0  0.21790  0.30323  0.36020  1.0000 -0.1563369438
C   C77       1.0  0.40740  0.12840  0.45670  1.0000 0.5977283314
C   C78       1.0  0.41890  0.49978  0.11960  1.0000 0.5977283314
C   C79       1.0  0.27960  0.43227  0.40280  1.0000 -0.0283396172
C   C80       1.0  0.37190  0.20724  0.44310  1.0000 -0.0283396172
C   C81       1.0  0.31040  0.45813  0.32950  1.0000 0.0810220864
C   C82       1.0  0.30800  0.35358  0.42020  1.0000 0.0810220864
C   C83       1.0  0.37860  0.48981  0.19290  1.0000 -0.0220547105
C   C84       1.0  0.24880  0.46957  0.17080  1.0000 -0.097982825
C   C85       1.0  0.78990  0.05361  0.06330  1.0000 0.0291858136
C   C86       1.0  0.78690  0.10228  0.12610  1.0000 -0.137046581
C   C87       1.0  0.81460  0.17430  0.12030  1.0000 -0.1105135039
C   C88       1.0  0.84540  0.19780  0.05340  1.0000 -0.1105135039
C   C89       1.0  0.85020  0.15020  0.99140  1.0000 -0.137046581
C   C90       1.0  0.82330  0.07810  0.99650  1.0000 0.0203897016
C   C91       1.0  0.82450  0.01680  0.94210  1.0000 0.0203897016
C   C92       1.0  0.85120  0.01400  0.86910  1.0000 -0.137046581
C   C93       1.0  0.84280  0.94850  0.82710  1.0000 -0.0921392918
C   C94       1.0  0.80860  0.88680  0.85830  1.0000 -0.0921392918
C   C95       1.0  0.78300  0.88930  0.93160  1.0000 -0.1339245319
C   C96       1.0  0.78990  0.95470  0.97420  1.0000 0.0203897016
C   C97       1.0  0.76410  0.97463  0.05120  1.0000 -0.0220547105
C   C98       1.0  0.55960  0.98020  0.14770  1.0000 -0.1500897165
C   C99       1.0  0.52570  0.99603  0.21500  1.0000 -0.0921392918
C   C100      1.0  0.78560  0.95342  0.26210  1.0000 -0.1500897165
C   C101      1.0  0.56880  0.83040  0.00890  1.0000 -0.1500897165
C   C102      1.0  0.53700  0.75748  0.99740  1.0000 -0.0921392918
C   C103      1.0  0.75000  0.73085  0.12770  1.0000 -0.097982825
C   C104      1.0  0.78210  0.80323  0.13980  1.0000 -0.1563369438
C   C105      1.0  0.59260  0.62840  0.04330  1.0000 0.5977283314
C   C106      1.0  0.58110  0.99978  0.38040  1.0000 0.5977283314
C   C107      1.0  0.72040  0.93227  0.09720  1.0000 -0.0283396172
C   C108      1.0  0.62810  0.70724  0.05690  1.0000 -0.0283396172
C   C109      1.0  0.68960  0.95813  0.17050  1.0000 0.0810220864
C   C110      1.0  0.69200  0.85358  0.07980  1.0000 0.0810220864
C   C111      1.0  0.62140  0.98981  0.30710  1.0000 -0.0220547105
C   C112      1.0  0.75120  0.96957  0.32920  1.0000 -0.097982825
O   O1        1.0  0.45902  0.51024  0.85642  1.0000 -0.5493854985
O   O2        1.0  0.67286  0.48413  0.95916  1.0000 -0.5493854985
O   O3        1.0  0.68650  0.91510  0.58960  1.0000 -0.5394067273
O   O4        1.0  0.47473  0.88759  0.48613  1.0000 -0.5594432459
O   O5        1.0  0.54098  0.01024  0.64358  1.0000 -0.5493854985
O   O6        1.0  0.32714  0.98413  0.54084  1.0000 -0.5493854985
O   O7        1.0  0.31350  0.41510  0.91040  1.0000 -0.5394067273
O   O8        1.0  0.52527  0.38759  0.01387  1.0000 -0.5594432459
O   O9        1.0  0.54098  0.48976  0.14358  1.0000 -0.5493854985
O   O10       1.0  0.32714  0.51587  0.04084  1.0000 -0.5493854985
O   O11       1.0  0.31350  0.08490  0.41040  1.0000 -0.5394067273
O   O12       1.0  0.52527  0.11241  0.51387  1.0000 -0.5594432459
O   O13       1.0  0.45902  0.98976  0.35642  1.0000 -0.5493854985
O   O14       1.0  0.67286  0.01587  0.45916  1.0000 -0.5493854985
O   O15       1.0  0.68650  0.58490  0.08960  1.0000 -0.5394067273
O   O16       1.0  0.47473  0.61241  0.98613  1.0000 -0.5594432459
