# DDEC6 charges by PACMAN v1.1 (https://github.com/mtap-research/PACMAN-charge/)
data_2018[Pr][nan]3[ASR]3
_chemical_formula_sum              "Pr4 H36 C30 O24"
_cell_length_a       8.9715
_cell_length_b       9.7838
_cell_length_c       16.0593
_cell_angle_alpha    103.373
_cell_angle_beta     103.932
_cell_angle_gamma    98.5385

_symmetry_space_group_name_H-M    "P 1"
_symmetry_Int_Tables_number       1

loop_
  _symmetry_equiv_pos_as_xyz
  'x, y, z'

loop_
  _atom_site_type_symbol
  _atom_site_label
  _atom_site_symmetry_multiplicity
  _atom_site_fract_x
  _atom_site_fract_y
  _atom_site_fract_z
  _atom_site_occupancy
  _atom_site_charge
Pr  Pr1       1.0  0.19230  0.95147  0.09783  1.0000 2.0618865162
Pr  Pr2       1.0  0.34825  0.92547  0.36490  1.0000 2.0975331933
Pr  Pr3       1.0  0.80770  0.04853  0.90217  1.0000 2.0618865162
Pr  Pr4       1.0  0.65175  0.07453  0.63510  1.0000 2.0933830411
H   H1        1.0  0.74430  0.93980  0.21580  1.0000 0.1503542185
H   H2        1.0  0.69910  0.98220  0.30730  1.0000 0.1295194671
H   H3        1.0  0.76950  0.22650  0.31990  1.0000 0.0911118495
H   H4        1.0  0.79310  0.19280  0.22200  1.0000 0.0996512592
H   H5        1.0  0.03750  0.25540  0.34360  1.0000 0.1232566655
H   H6        1.0  0.98280  0.10660  0.36400  1.0000 0.1295194671
H   H7        1.0  0.89450  0.55910  0.21700  1.0000 0.1295194671
H   H8        1.0  0.86970  0.52650  0.11170  1.0000 0.1295194671
H   H9        1.0  0.94230  0.32950  0.15930  1.0000 0.0794631958
H   H10       1.0  0.09840  0.43220  0.23100  1.0000 0.0996512592
H   H11       1.0  0.05080  0.40060  0.04320  1.0000 0.1232566655
H   H12       1.0  0.21440  0.46530  0.12040  1.0000 0.1503542185
H   H13       1.0  0.78200  0.74010  0.51080  1.0000 0.1295194671
H   H14       1.0  0.87360  0.86000  0.47770  1.0000 0.1426121712
H   H15       1.0  0.81020  0.68370  0.33400  1.0000 0.0911118495
H   H16       1.0  0.74880  0.56640  0.37980  1.0000 0.0911118495
H   H17       1.0  0.01180  0.63100  0.48590  1.0000 0.1232566655
H   H18       1.0  0.00180  0.54530  0.38640  1.0000 0.1232566655
H   H19       1.0  0.25570  0.06020  0.78420  1.0000 0.1503542185
H   H20       1.0  0.30090  0.01780  0.69270  1.0000 0.1295194671
H   H21       1.0  0.23050  0.77350  0.68010  1.0000 0.0911118495
H   H22       1.0  0.20690  0.80720  0.77800  1.0000 0.0996512592
H   H23       1.0  0.96250  0.74460  0.65640  1.0000 0.1232566655
H   H24       1.0  0.01720  0.89340  0.63600  1.0000 0.1295194671
H   H25       1.0  0.10550  0.44090  0.78300  1.0000 0.1295194671
H   H26       1.0  0.13030  0.47350  0.88830  1.0000 0.1295194671
H   H27       1.0  0.05770  0.67050  0.84070  1.0000 0.0794631958
H   H28       1.0  0.90160  0.56780  0.76900  1.0000 0.0996512592
H   H29       1.0  0.94920  0.59940  0.95680  1.0000 0.1232566655
H   H30       1.0  0.78560  0.53470  0.87960  1.0000 0.1503542185
H   H31       1.0  0.21800  0.25990  0.48920  1.0000 0.1295194671
H   H32       1.0  0.12640  0.14000  0.52230  1.0000 0.1426121712
H   H33       1.0  0.18980  0.31630  0.66600  1.0000 0.0911118495
H   H34       1.0  0.25120  0.43360  0.62020  1.0000 0.0911118495
H   H35       1.0  0.98820  0.36900  0.51410  1.0000 0.1232566655
H   H36       1.0  0.99820  0.45470  0.61360  1.0000 0.1232566655
C   C1        1.0  0.52980  0.99670  0.19970  1.0000 0.6675797448
C   C2        1.0  0.69860  0.00950  0.25160  1.0000 -0.3303015062
C   C3        1.0  0.80350  0.15840  0.27600  1.0000 -0.0908857464
C   C4        1.0  0.97650  0.15520  0.31600  1.0000 -0.3386565029
C   C5        1.0  0.05280  0.07930  0.24900  1.0000 0.6675797448
C   C6        1.0  0.06920  0.68340  0.18570  1.0000 0.6814408571
C   C7        1.0  0.94930  0.54570  0.17010  1.0000 -0.3303015062
C   C8        1.0  0.02490  0.41650  0.17100  1.0000 -0.1022367805
C   C9        1.0  0.11500  0.39190  0.10050  1.0000 -0.3466458052
C   C10       1.0  0.14920  0.24570  0.08820  1.0000 0.6675797448
C   C11       1.0  0.63500  0.82000  0.42510  1.0000 0.6675797448
C   C12       1.0  0.78610  0.77440  0.45780  1.0000 -0.3386565029
C   C13       1.0  0.82380  0.65830  0.39110  1.0000 -0.0908857464
C   C14       1.0  0.99250  0.63780  0.42380  1.0000 -0.3303015062
C   C15       1.0  0.11860  0.75680  0.42130  1.0000 0.627490905
C   C16       1.0  0.47020  0.00330  0.80030  1.0000 0.6675797448
C   C17       1.0  0.30140  0.99050  0.74840  1.0000 -0.3303015062
C   C18       1.0  0.19650  0.84160  0.72400  1.0000 -0.0908857464
C   C19       1.0  0.02350  0.84480  0.68400  1.0000 -0.3386565029
C   C20       1.0  0.94720  0.92070  0.75100  1.0000 0.6675797448
C   C21       1.0  0.93080  0.31660  0.81430  1.0000 0.6814408571
C   C22       1.0  0.05070  0.45430  0.82990  1.0000 -0.3303015062
C   C23       1.0  0.97510  0.58350  0.82900  1.0000 -0.1022367805
C   C24       1.0  0.88500  0.60810  0.89950  1.0000 -0.3466458052
C   C25       1.0  0.85080  0.75430  0.91180  1.0000 0.6675797448
C   C26       1.0  0.36500  0.18000  0.57490  1.0000 0.6675797448
C   C27       1.0  0.21390  0.22560  0.54220  1.0000 -0.3386565029
C   C28       1.0  0.17620  0.34170  0.60890  1.0000 -0.0908857464
C   C29       1.0  0.00750  0.36220  0.57620  1.0000 -0.3303015062
C   C30       1.0  0.88140  0.24320  0.57870  1.0000 0.627490905
O   O1        1.0  0.41990  0.93370  0.22460  1.0000 -0.7693474173
O   O2        1.0  0.49790  0.04180  0.13180  1.0000 -0.5991027683
O   O3        1.0  0.18450  0.05190  0.27870  1.0000 -0.7225627929
O   O4        1.0  0.99000  0.05200  0.16710  1.0000 -0.5714954167
O   O5        1.0  0.03540  0.76320  0.13510  1.0000 -0.6811248391
O   O6        1.0  0.19340  0.71090  0.24780  1.0000 -0.6397204329
O   O7        1.0  0.06090  0.14100  0.02460  1.0000 -0.727790448
O   O8        1.0  0.26260  0.22140  0.14320  1.0000 -0.6129306882
O   O9        1.0  0.53880  0.75530  0.34980  1.0000 -0.5889217585
O   O10       1.0  0.60630  0.92790  0.47600  1.0000 -0.7693474173
O   O11       1.0  0.08350  0.86090  0.39220  1.0000 -0.6397204329
O   O12       1.0  0.26210  0.74600  0.44590  1.0000 -0.6547033519
O   O13       1.0  0.58010  0.06630  0.77540  1.0000 -0.7693474173
O   O14       1.0  0.50210  0.95820  0.86820  1.0000 -0.5991027683
O   O15       1.0  0.81550  0.94810  0.72130  1.0000 -0.7225627929
O   O16       1.0  0.01000  0.94800  0.83290  1.0000 -0.5714954167
O   O17       1.0  0.96460  0.23680  0.86490  1.0000 -0.6811248391
O   O18       1.0  0.80660  0.28910  0.75220  1.0000 -0.6397204329
O   O19       1.0  0.93910  0.85900  0.97540  1.0000 -0.727790448
O   O20       1.0  0.73740  0.77860  0.85680  1.0000 -0.6129306882
O   O21       1.0  0.46120  0.24470  0.65020  1.0000 -0.5889217585
O   O22       1.0  0.39370  0.07210  0.52400  1.0000 -0.7693474173
O   O23       1.0  0.91650  0.13910  0.60780  1.0000 -0.6337241858
O   O24       1.0  0.73790  0.25400  0.55410  1.0000 -0.6547033519
