# DDEC6 charges by PACMAN v1.1 (https://github.com/mtap-research/PACMAN-charge/)
data_2018[Nd][nan]3[ASR]1
_chemical_formula_sum              "Nd4 C10 O24"
_cell_length_a       6.2596
_cell_length_b       8.6108
_cell_length_c       12.9187
_cell_angle_alpha    105.366
_cell_angle_beta     90.451
_cell_angle_gamma    105.115

_symmetry_space_group_name_H-M    "P 1"
_symmetry_Int_Tables_number       1

loop_
  _symmetry_equiv_pos_as_xyz
  'x, y, z'

loop_
  _atom_site_type_symbol
  _atom_site_label
  _atom_site_symmetry_multiplicity
  _atom_site_fract_x
  _atom_site_fract_y
  _atom_site_fract_z
  _atom_site_occupancy
  _atom_site_charge
Nd  Nd1       1.0  0.05777  0.02794  0.75760  1.0000 2.023037454
Nd  Nd2       1.0  0.30912  0.66677  0.57506  1.0000 2.0721893514
Nd  Nd3       1.0  0.94223  0.97206  0.24240  1.0000 2.023037454
Nd  Nd4       1.0  0.69088  0.33323  0.42494  1.0000 2.0721893514
C   C1        1.0  0.90520  0.91800  0.97730  1.0000 0.5244025494
C   C2        1.0  0.44250  0.05080  0.54540  1.0000 0.5429314579
C   C3        1.0  0.78480  0.70780  0.63070  1.0000 0.8903345074
C   C4        1.0  0.04440  0.30290  0.62750  1.0000 0.5314707662
C   C5        1.0  0.22970  0.39490  0.71940  1.0000 0.5314707662
C   C6        1.0  0.09480  0.08200  0.02270  1.0000 0.5244025494
C   C7        1.0  0.55750  0.94920  0.45460  1.0000 0.5429314579
C   C8        1.0  0.21520  0.29220  0.36930  1.0000 0.8903345074
C   C9        1.0  0.95560  0.69710  0.37250  1.0000 0.5314707662
C   C10       1.0  0.77030  0.60510  0.28060  1.0000 0.5314707662
O   O1        1.0  0.85890  0.86960  0.88010  1.0000 -0.5125784372
O   O2        1.0  0.94360  0.15670  0.62610  1.0000 -0.5595773404
O   O3        1.0  0.26740  0.31590  0.78240  1.0000 -0.5750270282
O   O4        1.0  0.35970  0.89820  0.79490  1.0000 -0.4012762998
O   O5        1.0  0.32660  0.97050  0.60340  1.0000 -0.6306400691
O   O6        1.0  0.18320  0.15090  0.95320  1.0000 -0.5595773404
O   O7        1.0  0.70200  0.83320  0.66270  1.0000 -0.7106068526
O   O8        1.0  0.98910  0.73100  0.65960  1.0000 -0.7405346279
O   O9        1.0  0.52040  0.79800  0.44510  1.0000 -0.5274220799
O   O10       1.0  0.33870  0.43310  0.42510  1.0000 -0.7405346279
O   O11       1.0  0.00520  0.38410  0.56580  1.0000 -0.6306400691
O   O12       1.0  0.33760  0.54280  0.72280  1.0000 -0.5274220799
O   O13       1.0  0.14110  0.13040  0.11990  1.0000 -0.5125784372
O   O14       1.0  0.05640  0.84330  0.37390  1.0000 -0.5595773404
O   O15       1.0  0.73260  0.68410  0.21760  1.0000 -0.5750270282
O   O16       1.0  0.64030  0.10180  0.20510  1.0000 -0.4012762998
O   O17       1.0  0.67340  0.02950  0.39660  1.0000 -0.6306400691
O   O18       1.0  0.81680  0.84910  0.04680  1.0000 -0.5595773404
O   O19       1.0  0.29800  0.16680  0.33730  1.0000 -0.7106068526
O   O20       1.0  0.01090  0.26900  0.34040  1.0000 -0.7405346279
O   O21       1.0  0.47960  0.20200  0.55490  1.0000 -0.5274220799
O   O22       1.0  0.66130  0.56690  0.57490  1.0000 -0.7405346279
O   O23       1.0  0.99480  0.61590  0.43420  1.0000 -0.6306400691
O   O24       1.0  0.66240  0.45720  0.27720  1.0000 -0.5274220799
