# DDEC6 charges by PACMAN v1.1 (https://github.com/mtap-research/PACMAN-charge/)
data_2018[Gd][nan]3[ASR]4
_chemical_formula_sum              "Gd32 H252 C316 O156"
_cell_length_a       21.1898
_cell_length_b       21.7439
_cell_length_c       29.3712
_cell_angle_alpha    90
_cell_angle_beta     96.091
_cell_angle_gamma    90

_symmetry_space_group_name_H-M    "P 1"
_symmetry_Int_Tables_number       1

loop_
  _symmetry_equiv_pos_as_xyz
  'x, y, z'

loop_
  _atom_site_type_symbol
  _atom_site_label
  _atom_site_symmetry_multiplicity
  _atom_site_fract_x
  _atom_site_fract_y
  _atom_site_fract_z
  _atom_site_occupancy
  _atom_site_charge
Gd  Gd1       1.0  0.75312  0.20991  0.32873  1.0000 2.040651919
Gd  Gd2       1.0  0.64817  0.07072  0.38170  1.0000 2.040651919
Gd  Gd3       1.0  0.59307  0.02647  0.52016  1.0000 2.0283350562
Gd  Gd4       1.0  0.63116  0.11824  0.65581  1.0000 2.0208726541
Gd  Gd5       1.0  0.73131  0.27914  0.70120  1.0000 2.0016202942
Gd  Gd6       1.0  0.84158  0.42062  0.64259  1.0000 2.0283350562
Gd  Gd7       1.0  0.89078  0.45798  0.51208  1.0000 2.0208726541
Gd  Gd8       1.0  0.86029  0.37799  0.38013  1.0000 2.0283350562
Gd  Gd9       1.0  0.24688  0.70991  0.17127  1.0000 2.040651919
Gd  Gd10      1.0  0.35183  0.57072  0.11830  1.0000 2.040651919
Gd  Gd11      1.0  0.40693  0.52647  0.97984  1.0000 2.0283350562
Gd  Gd12      1.0  0.36884  0.61824  0.84419  1.0000 2.0208726541
Gd  Gd13      1.0  0.26869  0.77914  0.79880  1.0000 2.0016202942
Gd  Gd14      1.0  0.15842  0.92062  0.85741  1.0000 2.0283350562
Gd  Gd15      1.0  0.10922  0.95798  0.98792  1.0000 2.0208726541
Gd  Gd16      1.0  0.13971  0.87799  0.11987  1.0000 2.0283350562
Gd  Gd17      1.0  0.24688  0.79009  0.67127  1.0000 2.040651919
Gd  Gd18      1.0  0.35183  0.92928  0.61830  1.0000 2.040651919
Gd  Gd19      1.0  0.40693  0.97353  0.47984  1.0000 2.0283350562
Gd  Gd20      1.0  0.36884  0.88176  0.34419  1.0000 2.0208726541
Gd  Gd21      1.0  0.26869  0.72086  0.29880  1.0000 2.0016202942
Gd  Gd22      1.0  0.15842  0.57938  0.35741  1.0000 2.0283350562
Gd  Gd23      1.0  0.10922  0.54202  0.48792  1.0000 2.0208726541
Gd  Gd24      1.0  0.13971  0.62201  0.61987  1.0000 2.0283350562
Gd  Gd25      1.0  0.75312  0.29009  0.82873  1.0000 2.040651919
Gd  Gd26      1.0  0.64817  0.42928  0.88170  1.0000 2.040651919
Gd  Gd27      1.0  0.59307  0.47353  0.02016  1.0000 2.0283350562
Gd  Gd28      1.0  0.63116  0.38176  0.15581  1.0000 2.0208726541
Gd  Gd29      1.0  0.73131  0.22086  0.20120  1.0000 2.0016202942
Gd  Gd30      1.0  0.84158  0.07938  0.14259  1.0000 2.0283350562
Gd  Gd31      1.0  0.89078  0.04202  0.01208  1.0000 2.0208726541
Gd  Gd32      1.0  0.86029  0.12201  0.88013  1.0000 2.0283350562
H   H1        1.0  0.98024  0.13255  0.48103  1.0000 0.1207858092
H   H2        1.0  0.87285  0.04883  0.40183  1.0000 0.1107041756
H   H3        1.0  0.98173  0.03500  0.42007  1.0000 0.0909665694
H   H4        1.0  0.97198  0.03164  0.47327  1.0000 0.0815300642
H   H5        1.0  0.91078  0.94481  0.40987  1.0000 0.139272402
H   H6        1.0  0.97981  0.93155  0.43566  1.0000 0.1207858092
H   H7        1.0  0.92015  0.93831  0.46444  1.0000 0.128094861
H   H8        1.0  0.90068  0.03039  0.52304  1.0000 0.1207858092
H   H9        1.0  0.79283  0.98817  0.60345  1.0000 0.1107041756
H   H10       1.0  0.89742  0.96881  0.63778  1.0000 0.1000717015
H   H11       1.0  0.92562  0.99457  0.59297  1.0000 0.0815300642
H   H12       1.0  0.87384  0.91516  0.54892  1.0000 0.1207858092
H   H13       1.0  0.91956  0.88631  0.59032  1.0000 0.128094861
H   H14       1.0  0.84467  0.88970  0.59333  1.0000 0.139272402
H   H15       1.0  0.92636  0.09084  0.61711  1.0000 0.1207858092
H   H16       1.0  0.94882  0.22791  0.68164  1.0000 0.1107041756
H   H17       1.0  0.01705  0.13567  0.63833  1.0000 0.0815300642
H   H18       1.0  0.00774  0.13723  0.69164  1.0000 0.1000717015
H   H19       1.0  0.06758  0.23101  0.69885  1.0000 0.1207858092
H   H20       1.0  0.10892  0.17514  0.68257  1.0000 0.1107041756
H   H21       1.0  0.07982  0.22508  0.64620  1.0000 0.1107041756
H   H22       1.0  0.00601  0.19336  0.57490  1.0000 0.1207858092
H   H23       1.0  0.02678  0.29076  0.47892  1.0000 0.1207858092
H   H24       1.0  0.06507  0.17618  0.51775  1.0000 0.0815300642
H   H25       1.0  0.08863  0.20322  0.47184  1.0000 0.0909665694
H   H26       1.0  0.12035  0.25258  0.56272  1.0000 0.1107041756
H   H27       1.0  0.16965  0.22651  0.52982  1.0000 0.1207858092
H   H28       1.0  0.13459  0.29070  0.51834  1.0000 0.139272402
H   H29       1.0  0.51436  0.33314  0.41091  1.0000 0.1207858092
H   H30       1.0  0.47217  0.17583  0.43149  1.0000 0.1107041756
H   H31       1.0  0.42593  0.29858  0.43567  1.0000 0.0909665694
H   H32       1.0  0.38714  0.23987  0.45035  1.0000 0.1000717015
H   H33       1.0  0.40044  0.20167  0.37179  1.0000 0.1107041756
H   H34       1.0  0.34683  0.25225  0.37705  1.0000 0.1207858092
H   H35       1.0  0.41366  0.27237  0.36100  1.0000 0.1107041756
H   H36       1.0  0.47874  0.30404  0.50878  1.0000 0.1207858092
H   H37       1.0  0.52222  0.30814  0.62897  1.0000 0.1107041756
H   H38       1.0  0.42412  0.32823  0.58895  1.0000 0.1000717015
H   H39       1.0  0.45584  0.37062  0.55321  1.0000 0.0815300642
H   H40       1.0  0.41495  0.43589  0.60096  1.0000 0.128094861
H   H41       1.0  0.44324  0.39805  0.64522  1.0000 0.139272402
H   H42       1.0  0.48966  0.43668  0.61649  1.0000 0.1207858092
H   H43       1.0  0.55139  0.42129  0.54404  1.0000 0.128094861
H   H44       1.0  0.68339  0.52276  0.54257  1.0000 0.1207858092
H   H45       1.0  0.55651  0.50548  0.50022  1.0000 0.0815300642
H   H46       1.0  0.59983  0.56396  0.49197  1.0000 0.1000717015
H   H47       1.0  0.60338  0.58637  0.57093  1.0000 0.139272402
H   H48       1.0  0.53342  0.59095  0.54463  1.0000 0.1207858092
H   H49       1.0  0.55358  0.53191  0.57531  1.0000 0.1207858092
H   H50       1.0  0.58812  0.44633  0.44801  1.0000 0.1207858092
H   H51       1.0  0.63512  0.38804  0.34323  1.0000 0.1107041756
H   H52       1.0  0.52431  0.42677  0.38099  1.0000 0.0909665694
H   H53       1.0  0.56583  0.47125  0.35262  1.0000 0.1107041756
H   H54       1.0  0.49664  0.44117  0.29482  1.0000 0.139272402
H   H55       1.0  0.54531  0.38519  0.29286  1.0000 0.1107041756
H   H56       1.0  0.48289  0.37698  0.31853  1.0000 0.1207858092
H   H57       1.0  0.00163  0.52781  0.60356  1.0000 0.0815300642
H   H58       1.0  0.84974  0.57569  0.62533  1.0000 0.0694448765
H   H59       1.0  0.87127  0.38128  0.78325  1.0000 0.128094861
H   H60       1.0  0.80263  0.14700  0.74064  1.0000 0.1107041756
H   H61       1.0  0.60671  0.92466  0.64436  1.0000 0.1107041756
H   H62       1.0  0.49503  0.05737  0.59881  1.0000 0.1000717015
H   H63       1.0  0.59344  0.21401  0.77163  1.0000 0.1207858092
H   H64       1.0  0.01976  0.63255  0.01897  1.0000 0.1207858092
H   H65       1.0  0.12715  0.54883  0.09817  1.0000 0.1107041756
H   H66       1.0  0.01827  0.53500  0.07993  1.0000 0.0909665694
H   H67       1.0  0.02802  0.53164  0.02673  1.0000 0.0815300642
H   H68       1.0  0.08922  0.44481  0.09013  1.0000 0.139272402
H   H69       1.0  0.02019  0.43155  0.06434  1.0000 0.1207858092
H   H70       1.0  0.07985  0.43831  0.03556  1.0000 0.128094861
H   H71       1.0  0.09932  0.53039  0.97696  1.0000 0.1207858092
H   H72       1.0  0.20717  0.48817  0.89655  1.0000 0.1107041756
H   H73       1.0  0.10258  0.46881  0.86222  1.0000 0.1000717015
H   H74       1.0  0.07438  0.49457  0.90703  1.0000 0.0815300642
H   H75       1.0  0.12616  0.41516  0.95108  1.0000 0.1207858092
H   H76       1.0  0.08044  0.38631  0.90968  1.0000 0.128094861
H   H77       1.0  0.15533  0.38970  0.90667  1.0000 0.139272402
H   H78       1.0  0.07364  0.59084  0.88289  1.0000 0.1207858092
H   H79       1.0  0.05118  0.72791  0.81836  1.0000 0.1107041756
H   H80       1.0  0.98295  0.63567  0.86167  1.0000 0.0815300642
H   H81       1.0  0.99226  0.63723  0.80836  1.0000 0.1000717015
H   H82       1.0  0.93242  0.73101  0.80115  1.0000 0.1207858092
H   H83       1.0  0.89108  0.67514  0.81743  1.0000 0.1207858092
H   H84       1.0  0.92018  0.72508  0.85380  1.0000 0.1107041756
H   H85       1.0  0.99399  0.69336  0.92510  1.0000 0.1207858092
H   H86       1.0  0.97322  0.79076  0.02108  1.0000 0.1207858092
H   H87       1.0  0.93493  0.67618  0.98225  1.0000 0.0815300642
H   H88       1.0  0.91137  0.70322  0.02816  1.0000 0.0909665694
H   H89       1.0  0.87965  0.75258  0.93728  1.0000 0.1107041756
H   H90       1.0  0.83035  0.72651  0.97018  1.0000 0.1207858092
H   H91       1.0  0.86541  0.79070  0.98166  1.0000 0.139272402
H   H92       1.0  0.48564  0.83314  0.08909  1.0000 0.1207858092
H   H93       1.0  0.52783  0.67583  0.06851  1.0000 0.1107041756
H   H94       1.0  0.57407  0.79858  0.06433  1.0000 0.0909665694
H   H95       1.0  0.61286  0.73987  0.04965  1.0000 0.1000717015
H   H96       1.0  0.59956  0.70167  0.12821  1.0000 0.1107041756
H   H97       1.0  0.65317  0.75225  0.12295  1.0000 0.1207858092
H   H98       1.0  0.58634  0.77237  0.13900  1.0000 0.1107041756
H   H99       1.0  0.52126  0.80404  0.99122  1.0000 0.1207858092
H   H100      1.0  0.47778  0.80814  0.87103  1.0000 0.1107041756
H   H101      1.0  0.57588  0.82823  0.91105  1.0000 0.1000717015
H   H102      1.0  0.54416  0.87062  0.94679  1.0000 0.0815300642
H   H103      1.0  0.58505  0.93589  0.89904  1.0000 0.128094861
H   H104      1.0  0.55676  0.89805  0.85478  1.0000 0.139272402
H   H105      1.0  0.51034  0.93668  0.88351  1.0000 0.1207858092
H   H106      1.0  0.44861  0.92129  0.95596  1.0000 0.128094861
H   H107      1.0  0.31661  0.02276  0.95743  1.0000 0.1207858092
H   H108      1.0  0.44349  0.00548  0.99978  1.0000 0.0815300642
H   H109      1.0  0.40017  0.06396  0.00803  1.0000 0.1000717015
H   H110      1.0  0.39662  0.08637  0.92907  1.0000 0.139272402
H   H111      1.0  0.46658  0.09095  0.95537  1.0000 0.1207858092
H   H112      1.0  0.44642  0.03191  0.92469  1.0000 0.1207858092
H   H113      1.0  0.41188  0.94633  0.05199  1.0000 0.1207858092
H   H114      1.0  0.36488  0.88804  0.15677  1.0000 0.1107041756
H   H115      1.0  0.47569  0.92677  0.11901  1.0000 0.0909665694
H   H116      1.0  0.43417  0.97125  0.14738  1.0000 0.1107041756
H   H117      1.0  0.50336  0.94117  0.20518  1.0000 0.139272402
H   H118      1.0  0.45469  0.88519  0.20714  1.0000 0.1207858092
H   H119      1.0  0.51711  0.87698  0.18147  1.0000 0.1207858092
H   H120      1.0  0.99837  0.02781  0.89644  1.0000 0.0694448765
H   H121      1.0  0.15026  0.07569  0.87467  1.0000 0.0694448765
H   H122      1.0  0.12873  0.88128  0.71675  1.0000 0.128094861
H   H123      1.0  0.19737  0.64700  0.75936  1.0000 0.1107041756
H   H124      1.0  0.39329  0.42466  0.85564  1.0000 0.1107041756
H   H125      1.0  0.50497  0.55737  0.90119  1.0000 0.1000717015
H   H126      1.0  0.40656  0.71401  0.72837  1.0000 0.1207858092
H   H127      1.0  0.01976  0.86745  0.51897  1.0000 0.1207858092
H   H128      1.0  0.12715  0.95117  0.59817  1.0000 0.1107041756
H   H129      1.0  0.01827  0.96500  0.57993  1.0000 0.0909665694
H   H130      1.0  0.02802  0.96836  0.52673  1.0000 0.0815300642
H   H131      1.0  0.08922  0.05519  0.59013  1.0000 0.139272402
H   H132      1.0  0.02019  0.06845  0.56434  1.0000 0.1207858092
H   H133      1.0  0.07985  0.06169  0.53556  1.0000 0.128094861
H   H134      1.0  0.09932  0.96961  0.47696  1.0000 0.1207858092
H   H135      1.0  0.20717  0.01183  0.39655  1.0000 0.1107041756
H   H136      1.0  0.10258  0.03119  0.36222  1.0000 0.1000717015
H   H137      1.0  0.07438  0.00543  0.40703  1.0000 0.0815300642
H   H138      1.0  0.12616  0.08484  0.45108  1.0000 0.1207858092
H   H139      1.0  0.08044  0.11369  0.40968  1.0000 0.128094861
H   H140      1.0  0.15533  0.11030  0.40667  1.0000 0.139272402
H   H141      1.0  0.07364  0.90916  0.38289  1.0000 0.1207858092
H   H142      1.0  0.05118  0.77209  0.31836  1.0000 0.1107041756
H   H143      1.0  0.98295  0.86433  0.36167  1.0000 0.0815300642
H   H144      1.0  0.99226  0.86277  0.30836  1.0000 0.1000717015
H   H145      1.0  0.93242  0.76899  0.30115  1.0000 0.1207858092
H   H146      1.0  0.89108  0.82486  0.31743  1.0000 0.1107041756
H   H147      1.0  0.92018  0.77492  0.35380  1.0000 0.1107041756
H   H148      1.0  0.99399  0.80664  0.42510  1.0000 0.1207858092
H   H149      1.0  0.97322  0.70924  0.52108  1.0000 0.1207858092
H   H150      1.0  0.93493  0.82382  0.48225  1.0000 0.0815300642
H   H151      1.0  0.91137  0.79678  0.52816  1.0000 0.0909665694
H   H152      1.0  0.87965  0.74742  0.43728  1.0000 0.1107041756
H   H153      1.0  0.83035  0.77349  0.47018  1.0000 0.1207858092
H   H154      1.0  0.86541  0.70930  0.48166  1.0000 0.139272402
H   H155      1.0  0.48564  0.66686  0.58909  1.0000 0.1207858092
H   H156      1.0  0.52783  0.82417  0.56851  1.0000 0.1107041756
H   H157      1.0  0.57407  0.70142  0.56433  1.0000 0.0909665694
H   H158      1.0  0.61286  0.76013  0.54965  1.0000 0.1000717015
H   H159      1.0  0.59956  0.79833  0.62821  1.0000 0.1107041756
H   H160      1.0  0.65317  0.74775  0.62295  1.0000 0.1207858092
H   H161      1.0  0.58634  0.72763  0.63900  1.0000 0.1107041756
H   H162      1.0  0.52126  0.69596  0.49122  1.0000 0.1207858092
H   H163      1.0  0.47778  0.69186  0.37103  1.0000 0.1107041756
H   H164      1.0  0.57588  0.67177  0.41105  1.0000 0.1000717015
H   H165      1.0  0.54416  0.62938  0.44679  1.0000 0.0815300642
H   H166      1.0  0.58505  0.56411  0.39904  1.0000 0.128094861
H   H167      1.0  0.55676  0.60195  0.35478  1.0000 0.139272402
H   H168      1.0  0.51034  0.56332  0.38351  1.0000 0.1207858092
H   H169      1.0  0.44861  0.57871  0.45596  1.0000 0.128094861
H   H170      1.0  0.31661  0.47724  0.45743  1.0000 0.1107041756
H   H171      1.0  0.44349  0.49452  0.49978  1.0000 0.0815300642
H   H172      1.0  0.40017  0.43604  0.50803  1.0000 0.1000717015
H   H173      1.0  0.39662  0.41363  0.42907  1.0000 0.139272402
H   H174      1.0  0.46658  0.40905  0.45537  1.0000 0.1207858092
H   H175      1.0  0.44642  0.46809  0.42469  1.0000 0.1207858092
H   H176      1.0  0.41188  0.55367  0.55199  1.0000 0.1207858092
H   H177      1.0  0.36488  0.61196  0.65677  1.0000 0.1107041756
H   H178      1.0  0.47569  0.57323  0.61901  1.0000 0.0909665694
H   H179      1.0  0.43417  0.52875  0.64738  1.0000 0.1107041756
H   H180      1.0  0.50336  0.55883  0.70518  1.0000 0.139272402
H   H181      1.0  0.45469  0.61481  0.70714  1.0000 0.1107041756
H   H182      1.0  0.51711  0.62302  0.68147  1.0000 0.1207858092
H   H183      1.0  0.99837  0.47219  0.39644  1.0000 0.0815300642
H   H184      1.0  0.15026  0.42431  0.37467  1.0000 0.0694448765
H   H185      1.0  0.12873  0.61872  0.21675  1.0000 0.128094861
H   H186      1.0  0.19737  0.85300  0.25936  1.0000 0.1107041756
H   H187      1.0  0.39329  0.07534  0.35564  1.0000 0.1107041756
H   H188      1.0  0.50497  0.94263  0.40119  1.0000 0.1000717015
H   H189      1.0  0.40656  0.78599  0.22837  1.0000 0.1207858092
H   H190      1.0  0.98024  0.36745  0.98103  1.0000 0.1207858092
H   H191      1.0  0.87285  0.45117  0.90183  1.0000 0.1107041756
H   H192      1.0  0.98173  0.46500  0.92007  1.0000 0.0909665694
H   H193      1.0  0.97198  0.46836  0.97327  1.0000 0.0815300642
H   H194      1.0  0.91078  0.55519  0.90987  1.0000 0.139272402
H   H195      1.0  0.97981  0.56845  0.93566  1.0000 0.1207858092
H   H196      1.0  0.92015  0.56169  0.96444  1.0000 0.128094861
H   H197      1.0  0.90068  0.46961  0.02304  1.0000 0.1207858092
H   H198      1.0  0.79283  0.51183  0.10345  1.0000 0.1107041756
H   H199      1.0  0.89742  0.53119  0.13778  1.0000 0.1000717015
H   H200      1.0  0.92562  0.50543  0.09297  1.0000 0.0815300642
H   H201      1.0  0.87384  0.58484  0.04892  1.0000 0.1207858092
H   H202      1.0  0.91956  0.61369  0.09032  1.0000 0.128094861
H   H203      1.0  0.84467  0.61030  0.09333  1.0000 0.139272402
H   H204      1.0  0.92636  0.40916  0.11711  1.0000 0.1207858092
H   H205      1.0  0.94882  0.27209  0.18164  1.0000 0.1107041756
H   H206      1.0  0.01705  0.36433  0.13833  1.0000 0.0815300642
H   H207      1.0  0.00774  0.36277  0.19164  1.0000 0.1000717015
H   H208      1.0  0.06758  0.26899  0.19885  1.0000 0.1207858092
H   H209      1.0  0.10892  0.32486  0.18257  1.0000 0.1207858092
H   H210      1.0  0.07982  0.27492  0.14620  1.0000 0.1107041756
H   H211      1.0  0.00601  0.30664  0.07490  1.0000 0.1207858092
H   H212      1.0  0.02678  0.20924  0.97892  1.0000 0.1207858092
H   H213      1.0  0.06507  0.32382  0.01775  1.0000 0.0815300642
H   H214      1.0  0.08863  0.29678  0.97184  1.0000 0.0909665694
H   H215      1.0  0.12035  0.24742  0.06272  1.0000 0.1107041756
H   H216      1.0  0.16965  0.27349  0.02982  1.0000 0.1207858092
H   H217      1.0  0.13459  0.20930  0.01834  1.0000 0.139272402
H   H218      1.0  0.51436  0.16686  0.91091  1.0000 0.1207858092
H   H219      1.0  0.47217  0.32417  0.93149  1.0000 0.1107041756
H   H220      1.0  0.42593  0.20142  0.93567  1.0000 0.0909665694
H   H221      1.0  0.38714  0.26013  0.95035  1.0000 0.1000717015
H   H222      1.0  0.40044  0.29833  0.87179  1.0000 0.1107041756
H   H223      1.0  0.34683  0.24775  0.87705  1.0000 0.1207858092
H   H224      1.0  0.41366  0.22763  0.86100  1.0000 0.1107041756
H   H225      1.0  0.47874  0.19596  0.00878  1.0000 0.1207858092
H   H226      1.0  0.52222  0.19186  0.12897  1.0000 0.1107041756
H   H227      1.0  0.42412  0.17177  0.08895  1.0000 0.1000717015
H   H228      1.0  0.45584  0.12938  0.05321  1.0000 0.0815300642
H   H229      1.0  0.41495  0.06411  0.10096  1.0000 0.128094861
H   H230      1.0  0.44324  0.10195  0.14522  1.0000 0.139272402
H   H231      1.0  0.48966  0.06332  0.11649  1.0000 0.1207858092
H   H232      1.0  0.55139  0.07871  0.04404  1.0000 0.128094861
H   H233      1.0  0.68339  0.97724  0.04257  1.0000 0.1207858092
H   H234      1.0  0.55651  0.99452  0.00022  1.0000 0.0815300642
H   H235      1.0  0.59983  0.93604  0.99197  1.0000 0.1000717015
H   H236      1.0  0.60338  0.91363  0.07093  1.0000 0.139272402
H   H237      1.0  0.53342  0.90905  0.04463  1.0000 0.1207858092
H   H238      1.0  0.55358  0.96809  0.07531  1.0000 0.1207858092
H   H239      1.0  0.58812  0.05367  0.94801  1.0000 0.1207858092
H   H240      1.0  0.63512  0.11196  0.84323  1.0000 0.1107041756
H   H241      1.0  0.52431  0.07323  0.88099  1.0000 0.0909665694
H   H242      1.0  0.56583  0.02875  0.85262  1.0000 0.1107041756
H   H243      1.0  0.49664  0.05883  0.79482  1.0000 0.139272402
H   H244      1.0  0.54531  0.11481  0.79286  1.0000 0.1107041756
H   H245      1.0  0.48289  0.12302  0.81853  1.0000 0.1207858092
H   H246      1.0  0.00163  0.97219  0.10356  1.0000 0.0694448765
H   H247      1.0  0.84974  0.92431  0.12533  1.0000 0.0694448765
H   H248      1.0  0.87127  0.11872  0.28325  1.0000 0.128094861
H   H249      1.0  0.80263  0.35300  0.24064  1.0000 0.1107041756
H   H250      1.0  0.60671  0.57534  0.14436  1.0000 0.1107041756
H   H251      1.0  0.49503  0.44263  0.09881  1.0000 0.1000717015
H   H252      1.0  0.59344  0.28599  0.27163  1.0000 0.1207858092
C   C1        1.0  0.92390  0.25600  0.43090  1.0000 0.168881915
C   C2        1.0  0.87590  0.23080  0.40180  1.0000 0.128094861
C   C3        1.0  0.86670  0.16620  0.40200  1.0000 0.1911261959
C   C4        1.0  0.90500  0.12960  0.43160  1.0000 -0.0093273749
C   C5        1.0  0.95380  0.15770  0.46060  1.0000 -0.2185422427
C   C6        1.0  0.96480  0.22100  0.46040  1.0000 0.0021340098
C   C7        1.0  0.89210  0.06040  0.43320  1.0000 -0.0501635236
C   C8        1.0  0.95170  0.02270  0.44200  1.0000 -0.15176986
C   C9        1.0  0.93950  0.95300  0.43760  1.0000 -0.3791831903
C   C10       1.0  0.84070  0.04790  0.46540  1.0000 0.0084402225
C   C11       1.0  0.77710  0.05140  0.44990  1.0000 0.151930891
C   C12       1.0  0.72900  0.04360  0.47840  1.0000 0.1597700478
C   C13       1.0  0.74750  0.03000  0.52460  1.0000 0.168881915
C   C14       1.0  0.81080  0.02440  0.54160  1.0000 0.0021340098
C   C15       1.0  0.85710  0.03370  0.51170  1.0000 -0.2094321142
C   C16       1.0  0.82870  0.01200  0.59260  1.0000 -0.0299090263
C   C17       1.0  0.88890  0.97340  0.60410  1.0000 -0.15176986
C   C18       1.0  0.88110  0.91060  0.58230  1.0000 -0.3629002854
C   C19       1.0  0.83240  0.07340  0.61920  1.0000 -0.0218933018
C   C20       1.0  0.77650  0.09770  0.63200  1.0000 0.1977464522
C   C21       1.0  0.77710  0.15660  0.65270  1.0000 0.128094861
C   C22       1.0  0.83330  0.18880  0.66020  1.0000 0.151930891
C   C23       1.0  0.89080  0.16430  0.64730  1.0000 0.0084402225
C   C24       1.0  0.88850  0.10750  0.62670  1.0000 -0.2094321142
C   C25       1.0  0.95210  0.20180  0.65400  1.0000 -0.0501635236
C   C26       1.0  0.01240  0.16330  0.66460  1.0000 -0.1610282014
C   C27       1.0  0.07260  0.20210  0.67390  1.0000 -0.3380679976
C   C28       1.0  0.95530  0.24630  0.61410  1.0000 0.0217168116
C   C29       1.0  0.92280  0.30240  0.61330  1.0000 0.1597700478
C   C30       1.0  0.91990  0.33950  0.57620  1.0000 0.128094861
C   C31       1.0  0.95250  0.32490  0.53900  1.0000 0.176110217
C   C32       1.0  0.98590  0.26930  0.53820  1.0000 0.0217168116
C   C33       1.0  0.98490  0.23190  0.57540  1.0000 -0.2094321142
C   C34       1.0  0.01510  0.25140  0.49360  1.0000 -0.0501635236
C   C35       1.0  0.07440  0.21470  0.50170  1.0000 -0.15176986
C   C36       1.0  0.13000  0.24940  0.53090  1.0000 -0.3380679976
C   C37       1.0  0.59600  0.32290  0.38280  1.0000 -0.0093273749
C   C38       1.0  0.64000  0.27960  0.37150  1.0000 0.1597700478
C   C39       1.0  0.63140  0.21650  0.38290  1.0000 0.168881915
C   C40       1.0  0.57730  0.19790  0.40300  1.0000 0.168881915
C   C41       1.0  0.53380  0.24140  0.41540  1.0000 -0.0093273749
C   C42       1.0  0.54450  0.30320  0.40380  1.0000 -0.2185422427
C   C43       1.0  0.48090  0.21920  0.44160  1.0000 -0.0299090263
C   C44       1.0  0.41860  0.25410  0.43010  1.0000 -0.1610282014
C   C45       1.0  0.39260  0.24420  0.38060  1.0000 -0.3380679976
C   C46       1.0  0.50500  0.21560  0.49350  1.0000 -0.0299090263
C   C47       1.0  0.53420  0.16400  0.51110  1.0000 0.168881915
C   C48       1.0  0.55900  0.16230  0.55740  1.0000 0.151930891
C   C49       1.0  0.55300  0.21500  0.58510  1.0000 0.1911261959
C   C50       1.0  0.52250  0.26760  0.56670  1.0000 -0.0093273749
C   C51       1.0  0.49910  0.26810  0.52160  1.0000 -0.2094321142
C   C52       1.0  0.52230  0.32380  0.59690  1.0000 -0.0382361676
C   C53       1.0  0.45920  0.35740  0.58560  1.0000 -0.1441677384
C   C54       1.0  0.45110  0.41150  0.61450  1.0000 -0.3692311629
C   C55       1.0  0.58240  0.36120  0.59630  1.0000 -0.0218933018
C   C56       1.0  0.63660  0.34690  0.62410  1.0000 0.168881915
C   C57       1.0  0.69460  0.37690  0.62250  1.0000 0.151930891
C   C58       1.0  0.69630  0.42620  0.59130  1.0000 0.1911261959
C   C59       1.0  0.64230  0.44340  0.56170  1.0000 0.0084402225
C   C60       1.0  0.58770  0.41080  0.56430  1.0000 -0.2094321142
C   C61       1.0  0.65010  0.49420  0.52810  1.0000 -0.0382361676
C   C62       1.0  0.59050  0.53250  0.51470  1.0000 -0.15176986
C   C63       1.0  0.56840  0.56300  0.55470  1.0000 -0.3791831903
C   C64       1.0  0.67450  0.46830  0.48430  1.0000 -0.0093273749
C   C65       1.0  0.73780  0.45870  0.48320  1.0000 0.1597700478
C   C66       1.0  0.76220  0.42990  0.44660  1.0000 0.168881915
C   C67       1.0  0.72020  0.40950  0.40930  1.0000 0.1911261959
C   C68       1.0  0.65480  0.41700  0.40970  1.0000 -0.0026737501
C   C69       1.0  0.63270  0.44380  0.44680  1.0000 -0.2094321142
C   C70       1.0  0.61040  0.38990  0.37040  1.0000 -0.0382361676
C   C71       1.0  0.55270  0.42800  0.35640  1.0000 -0.1610282014
C   C72       1.0  0.51610  0.40580  0.31160  1.0000 -0.3380679976
C   C73       1.0  0.01760  0.52090  0.57500  1.0000 0.5822242315
C   C74       1.0  0.86450  0.56480  0.59700  1.0000 0.5158057398
C   C75       1.0  0.84380  0.36870  0.75730  1.0000 0.5672147289
C   C76       1.0  0.79920  0.16360  0.77020  1.0000 0.5857131695
C   C77       1.0  0.60340  0.96300  0.62880  1.0000 0.5607125476
C   C78       1.0  0.47160  0.02530  0.58300  1.0000 0.5822242315
C   C79       1.0  0.62510  0.22770  0.75340  1.0000 0.5158057398
C   C80       1.0  0.07610  0.75600  0.06910  1.0000 0.1597700478
C   C81       1.0  0.12410  0.73080  0.09820  1.0000 0.128094861
C   C82       1.0  0.13330  0.66620  0.09800  1.0000 0.1911261959
C   C83       1.0  0.09500  0.62960  0.06840  1.0000 -0.0093273749
C   C84       1.0  0.04620  0.65770  0.03940  1.0000 -0.2185422427
C   C85       1.0  0.03520  0.72100  0.03960  1.0000 0.0021340098
C   C86       1.0  0.10790  0.56040  0.06680  1.0000 -0.0501635236
C   C87       1.0  0.04830  0.52270  0.05800  1.0000 -0.15176986
C   C88       1.0  0.06050  0.45300  0.06240  1.0000 -0.3791831903
C   C89       1.0  0.15930  0.54790  0.03460  1.0000 0.0084402225
C   C90       1.0  0.22290  0.55140  0.05010  1.0000 0.151930891
C   C91       1.0  0.27100  0.54360  0.02160  1.0000 0.1597700478
C   C92       1.0  0.25250  0.53000  0.97540  1.0000 0.168881915
C   C93       1.0  0.18920  0.52440  0.95840  1.0000 0.0021340098
C   C94       1.0  0.14290  0.53370  0.98830  1.0000 -0.2094321142
C   C95       1.0  0.17130  0.51200  0.90740  1.0000 -0.0299090263
C   C96       1.0  0.11110  0.47340  0.89590  1.0000 -0.15176986
C   C97       1.0  0.11890  0.41060  0.91770  1.0000 -0.3629002854
C   C98       1.0  0.16760  0.57340  0.88080  1.0000 -0.0299090263
C   C99       1.0  0.22350  0.59770  0.86800  1.0000 0.1977464522
C   C100      1.0  0.22290  0.65660  0.84730  1.0000 0.128094861
C   C101      1.0  0.16670  0.68880  0.83980  1.0000 0.151930891
C   C102      1.0  0.10920  0.66430  0.85270  1.0000 0.0084402225
C   C103      1.0  0.11150  0.60750  0.87330  1.0000 -0.2094321142
C   C104      1.0  0.04790  0.70180  0.84600  1.0000 -0.0501635236
C   C105      1.0  0.98760  0.66330  0.83540  1.0000 -0.1610282014
C   C106      1.0  0.92740  0.70210  0.82610  1.0000 -0.3380679976
C   C107      1.0  0.04470  0.74630  0.88590  1.0000 0.0217168116
C   C108      1.0  0.07720  0.80240  0.88670  1.0000 0.151930891
C   C109      1.0  0.08010  0.83950  0.92380  1.0000 0.128094861
C   C110      1.0  0.04750  0.82490  0.96100  1.0000 0.176110217
C   C111      1.0  0.01410  0.76930  0.96180  1.0000 0.0217168116
C   C112      1.0  0.01510  0.73190  0.92460  1.0000 -0.2094321142
C   C113      1.0  0.98490  0.75140  0.00640  1.0000 -0.0501635236
C   C114      1.0  0.92560  0.71470  0.99830  1.0000 -0.15176986
C   C115      1.0  0.87000  0.74940  0.96910  1.0000 -0.3380679976
C   C116      1.0  0.40400  0.82290  0.11720  1.0000 -0.0093273749
C   C117      1.0  0.36000  0.77960  0.12850  1.0000 0.1597700478
C   C118      1.0  0.36860  0.71650  0.11710  1.0000 0.168881915
C   C119      1.0  0.42270  0.69790  0.09700  1.0000 0.168881915
C   C120      1.0  0.46620  0.74140  0.08460  1.0000 -0.0093273749
C   C121      1.0  0.45550  0.80320  0.09620  1.0000 -0.2185422427
C   C122      1.0  0.51910  0.71920  0.05840  1.0000 -0.0299090263
C   C123      1.0  0.58140  0.75410  0.06990  1.0000 -0.1610282014
C   C124      1.0  0.60740  0.74420  0.11940  1.0000 -0.3380679976
C   C125      1.0  0.49500  0.71560  0.00650  1.0000 -0.0299090263
C   C126      1.0  0.46580  0.66400  0.98890  1.0000 0.168881915
C   C127      1.0  0.44100  0.66230  0.94260  1.0000 0.151930891
C   C128      1.0  0.44700  0.71500  0.91490  1.0000 0.1911261959
C   C129      1.0  0.47750  0.76760  0.93330  1.0000 -0.0093273749
C   C130      1.0  0.50090  0.76810  0.97840  1.0000 -0.2094321142
C   C131      1.0  0.47770  0.82380  0.90310  1.0000 -0.0382361676
C   C132      1.0  0.54080  0.85740  0.91440  1.0000 -0.1441677384
C   C133      1.0  0.54890  0.91150  0.88550  1.0000 -0.3692311629
C   C134      1.0  0.41760  0.86120  0.90370  1.0000 -0.0218933018
C   C135      1.0  0.36340  0.84690  0.87590  1.0000 0.168881915
C   C136      1.0  0.30540  0.87690  0.87750  1.0000 0.151930891
C   C137      1.0  0.30370  0.92620  0.90870  1.0000 0.1911261959
C   C138      1.0  0.35770  0.94340  0.93830  1.0000 0.0084402225
C   C139      1.0  0.41230  0.91080  0.93570  1.0000 -0.2094321142
C   C140      1.0  0.34990  0.99420  0.97190  1.0000 -0.0382361676
C   C141      1.0  0.40950  0.03250  0.98530  1.0000 -0.15176986
C   C142      1.0  0.43160  0.06300  0.94530  1.0000 -0.3791831903
C   C143      1.0  0.32550  0.96830  0.01570  1.0000 -0.0026737501
C   C144      1.0  0.26220  0.95870  0.01680  1.0000 0.1597700478
C   C145      1.0  0.23780  0.92990  0.05340  1.0000 0.168881915
C   C146      1.0  0.27980  0.90950  0.09070  1.0000 0.1911261959
C   C147      1.0  0.34520  0.91700  0.09030  1.0000 0.0021340098
C   C148      1.0  0.36730  0.94380  0.05320  1.0000 -0.2094321142
C   C149      1.0  0.38960  0.88990  0.12960  1.0000 -0.0382361676
C   C150      1.0  0.44730  0.92800  0.14360  1.0000 -0.1610282014
C   C151      1.0  0.48390  0.90580  0.18840  1.0000 -0.3380679976
C   C152      1.0  0.98240  0.02090  0.92500  1.0000 0.5822242315
C   C153      1.0  0.13550  0.06480  0.90300  1.0000 0.5158057398
C   C154      1.0  0.15620  0.86870  0.74270  1.0000 0.5672147289
C   C155      1.0  0.20080  0.66360  0.72980  1.0000 0.5822242315
C   C156      1.0  0.39660  0.46300  0.87120  1.0000 0.5607125476
C   C157      1.0  0.52840  0.52530  0.91700  1.0000 0.5822242315
C   C158      1.0  0.37490  0.72770  0.74660  1.0000 0.5158057398
C   C159      1.0  0.07610  0.74400  0.56910  1.0000 0.168881915
C   C160      1.0  0.12410  0.76920  0.59820  1.0000 0.128094861
C   C161      1.0  0.13330  0.83380  0.59800  1.0000 0.1911261959
C   C162      1.0  0.09500  0.87040  0.56840  1.0000 -0.0093273749
C   C163      1.0  0.04620  0.84230  0.53940  1.0000 -0.2185422427
C   C164      1.0  0.03520  0.77900  0.53960  1.0000 0.0021340098
C   C165      1.0  0.10790  0.93960  0.56680  1.0000 -0.0501635236
C   C166      1.0  0.04830  0.97730  0.55800  1.0000 -0.15176986
C   C167      1.0  0.06050  0.04700  0.56240  1.0000 -0.3791831903
C   C168      1.0  0.15930  0.95210  0.53460  1.0000 0.0084402225
C   C169      1.0  0.22290  0.94860  0.55010  1.0000 0.151930891
C   C170      1.0  0.27100  0.95640  0.52160  1.0000 0.1597700478
C   C171      1.0  0.25250  0.97000  0.47540  1.0000 0.168881915
C   C172      1.0  0.18920  0.97560  0.45840  1.0000 0.0021340098
C   C173      1.0  0.14290  0.96630  0.48830  1.0000 -0.2094321142
C   C174      1.0  0.17130  0.98800  0.40740  1.0000 -0.0299090263
C   C175      1.0  0.11110  0.02660  0.39590  1.0000 -0.15176986
C   C176      1.0  0.11890  0.08940  0.41770  1.0000 -0.3629002854
C   C177      1.0  0.16760  0.92660  0.38080  1.0000 -0.0218933018
C   C178      1.0  0.22350  0.90230  0.36800  1.0000 0.1977464522
C   C179      1.0  0.22290  0.84340  0.34730  1.0000 0.128094861
C   C180      1.0  0.16670  0.81120  0.33980  1.0000 0.151930891
C   C181      1.0  0.10920  0.83570  0.35270  1.0000 0.0084402225
C   C182      1.0  0.11150  0.89250  0.37330  1.0000 -0.2094321142
C   C183      1.0  0.04790  0.79820  0.34600  1.0000 -0.0501635236
C   C184      1.0  0.98760  0.83670  0.33540  1.0000 -0.1610282014
C   C185      1.0  0.92740  0.79790  0.32610  1.0000 -0.3380679976
C   C186      1.0  0.04470  0.75370  0.38590  1.0000 0.0217168116
C   C187      1.0  0.07720  0.69760  0.38670  1.0000 0.151930891
C   C188      1.0  0.08010  0.66050  0.42380  1.0000 0.128094861
C   C189      1.0  0.04750  0.67510  0.46100  1.0000 0.176110217
C   C190      1.0  0.01410  0.73070  0.46180  1.0000 0.0217168116
C   C191      1.0  0.01510  0.76810  0.42460  1.0000 -0.2094321142
C   C192      1.0  0.98490  0.74860  0.50640  1.0000 -0.0501635236
C   C193      1.0  0.92560  0.78530  0.49830  1.0000 -0.1610282014
C   C194      1.0  0.87000  0.75060  0.46910  1.0000 -0.3380679976
C   C195      1.0  0.40400  0.67710  0.61720  1.0000 -0.0093273749
C   C196      1.0  0.36000  0.72040  0.62850  1.0000 0.1597700478
C   C197      1.0  0.36860  0.78350  0.61710  1.0000 0.168881915
C   C198      1.0  0.42270  0.80210  0.59700  1.0000 0.168881915
C   C199      1.0  0.46620  0.75860  0.58460  1.0000 -0.0093273749
C   C200      1.0  0.45550  0.69680  0.59620  1.0000 -0.2185422427
C   C201      1.0  0.51910  0.78080  0.55840  1.0000 -0.0299090263
C   C202      1.0  0.58140  0.74590  0.56990  1.0000 -0.1610282014
C   C203      1.0  0.60740  0.75580  0.61940  1.0000 -0.3380679976
C   C204      1.0  0.49500  0.78440  0.50650  1.0000 -0.0299090263
C   C205      1.0  0.46580  0.83600  0.48890  1.0000 0.176110217
C   C206      1.0  0.44100  0.83770  0.44260  1.0000 0.151930891
C   C207      1.0  0.44700  0.78500  0.41490  1.0000 0.1911261959
C   C208      1.0  0.47750  0.73240  0.43330  1.0000 -0.0093273749
C   C209      1.0  0.50090  0.73190  0.47840  1.0000 -0.2094321142
C   C210      1.0  0.47770  0.67620  0.40310  1.0000 -0.0382361676
C   C211      1.0  0.54080  0.64260  0.41440  1.0000 -0.1441677384
C   C212      1.0  0.54890  0.58850  0.38550  1.0000 -0.3692311629
C   C213      1.0  0.41760  0.63880  0.40370  1.0000 -0.0218933018
C   C214      1.0  0.36340  0.65310  0.37590  1.0000 0.168881915
C   C215      1.0  0.30540  0.62310  0.37750  1.0000 0.151930891
C   C216      1.0  0.30370  0.57380  0.40870  1.0000 0.1977464522
C   C217      1.0  0.35770  0.55660  0.43830  1.0000 0.0084402225
C   C218      1.0  0.41230  0.58920  0.43570  1.0000 -0.2094321142
C   C219      1.0  0.34990  0.50580  0.47190  1.0000 -0.0382361676
C   C220      1.0  0.40950  0.46750  0.48530  1.0000 -0.15176986
C   C221      1.0  0.43160  0.43700  0.44530  1.0000 -0.3791831903
C   C222      1.0  0.32550  0.53170  0.51570  1.0000 -0.0026737501
C   C223      1.0  0.26220  0.54130  0.51680  1.0000 0.1597700478
C   C224      1.0  0.23780  0.57010  0.55340  1.0000 0.168881915
C   C225      1.0  0.27980  0.59050  0.59070  1.0000 0.1911261959
C   C226      1.0  0.34520  0.58300  0.59030  1.0000 -0.0026737501
C   C227      1.0  0.36730  0.55620  0.55320  1.0000 -0.2094321142
C   C228      1.0  0.38960  0.61010  0.62960  1.0000 -0.0382361676
C   C229      1.0  0.44730  0.57200  0.64360  1.0000 -0.1610282014
C   C230      1.0  0.48390  0.59420  0.68840  1.0000 -0.3380679976
C   C231      1.0  0.98240  0.47910  0.42500  1.0000 0.5822242315
C   C232      1.0  0.13550  0.43520  0.40300  1.0000 0.5158057398
C   C233      1.0  0.15620  0.63130  0.24270  1.0000 0.5672147289
C   C234      1.0  0.20080  0.83640  0.22980  1.0000 0.5857131695
C   C235      1.0  0.39660  0.03700  0.37120  1.0000 0.5607125476
C   C236      1.0  0.52840  0.97470  0.41700  1.0000 0.5822242315
C   C237      1.0  0.37490  0.77230  0.24660  1.0000 0.5158057398
C   C238      1.0  0.92390  0.24400  0.93090  1.0000 0.168881915
C   C239      1.0  0.87590  0.26920  0.90180  1.0000 0.128094861
C   C240      1.0  0.86670  0.33380  0.90200  1.0000 0.1911261959
C   C241      1.0  0.90500  0.37040  0.93160  1.0000 -0.0093273749
C   C242      1.0  0.95380  0.34230  0.96060  1.0000 -0.2185422427
C   C243      1.0  0.96480  0.27900  0.96040  1.0000 0.0021340098
C   C244      1.0  0.89210  0.43960  0.93320  1.0000 -0.0501635236
C   C245      1.0  0.95170  0.47730  0.94200  1.0000 -0.15176986
C   C246      1.0  0.93950  0.54700  0.93760  1.0000 -0.3791831903
C   C247      1.0  0.84070  0.45210  0.96540  1.0000 0.0084402225
C   C248      1.0  0.77710  0.44860  0.94990  1.0000 0.151930891
C   C249      1.0  0.72900  0.45640  0.97840  1.0000 0.1597700478
C   C250      1.0  0.74750  0.47000  0.02460  1.0000 0.168881915
C   C251      1.0  0.81080  0.47560  0.04160  1.0000 0.0021340098
C   C252      1.0  0.85710  0.46630  0.01170  1.0000 -0.2094321142
C   C253      1.0  0.82870  0.48800  0.09260  1.0000 -0.0299090263
C   C254      1.0  0.88890  0.52660  0.10410  1.0000 -0.15176986
C   C255      1.0  0.88110  0.58940  0.08230  1.0000 -0.3629002854
C   C256      1.0  0.83240  0.42660  0.11920  1.0000 -0.0218933018
C   C257      1.0  0.77650  0.40230  0.13200  1.0000 0.1977464522
C   C258      1.0  0.77710  0.34340  0.15270  1.0000 0.128094861
C   C259      1.0  0.83330  0.31120  0.16020  1.0000 0.151930891
C   C260      1.0  0.89080  0.33570  0.14730  1.0000 0.0084402225
C   C261      1.0  0.88850  0.39250  0.12670  1.0000 -0.2094321142
C   C262      1.0  0.95210  0.29820  0.15400  1.0000 -0.0501635236
C   C263      1.0  0.01240  0.33670  0.16460  1.0000 -0.1610282014
C   C264      1.0  0.07260  0.29790  0.17390  1.0000 -0.3380679976
C   C265      1.0  0.95530  0.25370  0.11410  1.0000 0.0217168116
C   C266      1.0  0.92280  0.19760  0.11330  1.0000 0.151930891
C   C267      1.0  0.91990  0.16050  0.07620  1.0000 0.128094861
C   C268      1.0  0.95250  0.17510  0.03900  1.0000 0.176110217
C   C269      1.0  0.98590  0.23070  0.03820  1.0000 0.0217168116
C   C270      1.0  0.98490  0.26810  0.07540  1.0000 -0.2094321142
C   C271      1.0  0.01510  0.24860  0.99360  1.0000 -0.0501635236
C   C272      1.0  0.07440  0.28530  0.00170  1.0000 -0.15176986
C   C273      1.0  0.13000  0.25060  0.03090  1.0000 -0.3380679976
C   C274      1.0  0.59600  0.17710  0.88280  1.0000 -0.0093273749
C   C275      1.0  0.64000  0.22040  0.87150  1.0000 0.1597700478
C   C276      1.0  0.63140  0.28350  0.88290  1.0000 0.168881915
C   C277      1.0  0.57730  0.30210  0.90300  1.0000 0.168881915
C   C278      1.0  0.53380  0.25860  0.91540  1.0000 -0.0093273749
C   C279      1.0  0.54450  0.19680  0.90380  1.0000 -0.2185422427
C   C280      1.0  0.48090  0.28080  0.94160  1.0000 -0.0299090263
C   C281      1.0  0.41860  0.24590  0.93010  1.0000 -0.1610282014
C   C282      1.0  0.39260  0.25580  0.88060  1.0000 -0.3380679976
C   C283      1.0  0.50500  0.28440  0.99350  1.0000 -0.0299090263
C   C284      1.0  0.53420  0.33600  0.01110  1.0000 0.176110217
C   C285      1.0  0.55900  0.33770  0.05740  1.0000 0.151930891
C   C286      1.0  0.55300  0.28500  0.08510  1.0000 0.1977464522
C   C287      1.0  0.52250  0.23240  0.06670  1.0000 -0.0093273749
C   C288      1.0  0.49910  0.23190  0.02160  1.0000 -0.2094321142
C   C289      1.0  0.52230  0.17620  0.09690  1.0000 -0.0382361676
C   C290      1.0  0.45920  0.14260  0.08560  1.0000 -0.1441677384
C   C291      1.0  0.45110  0.08850  0.11450  1.0000 -0.3692311629
C   C292      1.0  0.58240  0.13880  0.09630  1.0000 -0.0218933018
C   C293      1.0  0.63660  0.15310  0.12410  1.0000 0.168881915
C   C294      1.0  0.69460  0.12310  0.12250  1.0000 0.151930891
C   C295      1.0  0.69630  0.07380  0.09130  1.0000 0.1911261959
C   C296      1.0  0.64230  0.05660  0.06170  1.0000 0.0084402225
C   C297      1.0  0.58770  0.08920  0.06430  1.0000 -0.2094321142
C   C298      1.0  0.65010  0.00580  0.02810  1.0000 -0.0382361676
C   C299      1.0  0.59050  0.96750  0.01470  1.0000 -0.15176986
C   C300      1.0  0.56840  0.93700  0.05470  1.0000 -0.3791831903
C   C301      1.0  0.67450  0.03170  0.98430  1.0000 -0.0026737501
C   C302      1.0  0.73780  0.04130  0.98320  1.0000 0.151930891
C   C303      1.0  0.76220  0.07010  0.94660  1.0000 0.168881915
C   C304      1.0  0.72020  0.09050  0.90930  1.0000 0.1911261959
C   C305      1.0  0.65480  0.08300  0.90970  1.0000 0.0021340098
C   C306      1.0  0.63270  0.05620  0.94680  1.0000 -0.2094321142
C   C307      1.0  0.61040  0.11010  0.87040  1.0000 -0.0382361676
C   C308      1.0  0.55270  0.07200  0.85640  1.0000 -0.1610282014
C   C309      1.0  0.51610  0.09420  0.81160  1.0000 -0.3380679976
C   C310      1.0  0.01760  0.97910  0.07500  1.0000 0.5822242315
C   C311      1.0  0.86450  0.93520  0.09700  1.0000 0.5149720326
C   C312      1.0  0.84380  0.13130  0.25730  1.0000 0.5672147289
C   C313      1.0  0.79920  0.33640  0.27020  1.0000 0.5857131695
C   C314      1.0  0.60340  0.53700  0.12880  1.0000 0.5607125476
C   C315      1.0  0.47160  0.47470  0.08300  1.0000 0.5822242315
C   C316      1.0  0.62510  0.27230  0.25340  1.0000 0.5158057398
O   O1        1.0  0.92860  0.31970  0.42900  1.0000 -0.6702472304
O   O2        1.0  0.83620  0.26720  0.37230  1.0000 -0.7374384189
O   O3        1.0  0.81830  0.14430  0.37200  1.0000 -0.6198281928
O   O4        1.0  0.75700  0.06560  0.40430  1.0000 -0.6198281928
O   O5        1.0  0.66720  0.05000  0.46280  1.0000 -0.6869430825
O   O6        1.0  0.69870  0.02390  0.55180  1.0000 -0.6511195932
O   O7        1.0  0.71960  0.07000  0.62740  1.0000 -0.5775321259
O   O8        1.0  0.72340  0.18160  0.66440  1.0000 -0.7097395792
O   O9        1.0  0.83020  0.24520  0.68230  1.0000 -0.6593919828
O   O10       1.0  0.89210  0.32300  0.64960  1.0000 -0.6309735611
O   O11       1.0  0.88400  0.39200  0.57510  1.0000 -0.7193234905
O   O12       1.0  0.94850  0.36720  0.50410  1.0000 -0.5775321259
O   O13       1.0  0.69300  0.29110  0.35020  1.0000 -0.6309735611
O   O14       1.0  0.67440  0.17490  0.37300  1.0000 -0.6511195932
O   O15       1.0  0.57250  0.13610  0.41070  1.0000 -0.6094775951
O   O16       1.0  0.54290  0.11250  0.48610  1.0000 -0.6198281928
O   O17       1.0  0.59060  0.11100  0.57500  1.0000 -0.7628658399
O   O18       1.0  0.58050  0.20890  0.62970  1.0000 -0.63989885
O   O19       1.0  0.63780  0.30000  0.65560  1.0000 -0.6198281928
O   O20       1.0  0.74850  0.35950  0.64880  1.0000 -0.7193234905
O   O21       1.0  0.75420  0.45460  0.59220  1.0000 -0.6309735611
O   O22       1.0  0.78270  0.47970  0.51760  1.0000 -0.6511195932
O   O23       1.0  0.82380  0.41920  0.44790  1.0000 -0.6702472304
O   O24       1.0  0.74790  0.38360  0.37420  1.0000 -0.6042963847
O   O25       1.0  0.71070  0.10380  0.30950  1.0000 -0.8558024749
O   O26       1.0  0.48210  0.01390  0.54110  1.0000 -0.6869430825
O   O27       1.0  0.43290  0.99690  0.60340  1.0000 -0.5775321259
O   O28       1.0  0.59710  0.96130  0.58590  1.0000 -0.5684605821
O   O29       1.0  0.60570  0.01090  0.65340  1.0000 -0.63989885
O   O30       1.0  0.63440  0.20220  0.71800  1.0000 -0.5229234457
O   O31       1.0  0.66420  0.27920  0.76600  1.0000 -0.7193234905
O   O32       1.0  0.77220  0.21490  0.77090  1.0000 -0.63989885
O   O33       1.0  0.82150  0.13250  0.80200  1.0000 -0.5262182936
O   O34       1.0  0.80300  0.32520  0.76420  1.0000 -0.6869430825
O   O35       1.0  0.85040  0.39420  0.72230  1.0000 -0.5229234457
O   O36       1.0  0.87120  0.50940  0.58990  1.0000 -0.63989885
O   O37       1.0  0.87490  0.60850  0.57080  1.0000 -0.4629615927
O   O38       1.0  0.99120  0.48280  0.54770  1.0000 -0.5775321259
O   O39       1.0  0.06610  0.55080  0.56480  1.0000 -0.6702472304
O   O40       1.0  0.07140  0.81970  0.07100  1.0000 -0.6702472304
O   O41       1.0  0.16380  0.76720  0.12770  1.0000 -0.7374384189
O   O42       1.0  0.18170  0.64430  0.12800  1.0000 -0.6198281928
O   O43       1.0  0.24300  0.56560  0.09570  1.0000 -0.6198281928
O   O44       1.0  0.33280  0.55000  0.03720  1.0000 -0.6869430825
O   O45       1.0  0.30130  0.52390  0.94820  1.0000 -0.6511195932
O   O46       1.0  0.28040  0.57000  0.87260  1.0000 -0.5775321259
O   O47       1.0  0.27660  0.68160  0.83560  1.0000 -0.7097395792
O   O48       1.0  0.16980  0.74520  0.81770  1.0000 -0.6593919828
O   O49       1.0  0.10790  0.82300  0.85040  1.0000 -0.6309735611
O   O50       1.0  0.11600  0.89200  0.92490  1.0000 -0.7193234905
O   O51       1.0  0.05150  0.86720  0.99590  1.0000 -0.5775321259
O   O52       1.0  0.30700  0.79110  0.14980  1.0000 -0.6309735611
O   O53       1.0  0.32560  0.67490  0.12700  1.0000 -0.6511195932
O   O54       1.0  0.42750  0.63610  0.08930  1.0000 -0.6094775951
O   O55       1.0  0.45710  0.61250  0.01390  1.0000 -0.6198281928
O   O56       1.0  0.40940  0.61100  0.92500  1.0000 -0.7628658399
O   O57       1.0  0.41950  0.70890  0.87030  1.0000 -0.63989885
O   O58       1.0  0.36220  0.80000  0.84440  1.0000 -0.6198281928
O   O59       1.0  0.25150  0.85950  0.85120  1.0000 -0.7193234905
O   O60       1.0  0.24580  0.95460  0.90780  1.0000 -0.6309735611
O   O61       1.0  0.21730  0.97970  0.98240  1.0000 -0.6511195932
O   O62       1.0  0.17620  0.91920  0.05210  1.0000 -0.6702472304
O   O63       1.0  0.25210  0.88360  0.12580  1.0000 -0.6094775951
O   O64       1.0  0.28930  0.60380  0.19050  1.0000 -0.8446782812
O   O65       1.0  0.51790  0.51390  0.95890  1.0000 -0.6869430825
O   O66       1.0  0.56710  0.49690  0.89660  1.0000 -0.5775321259
O   O67       1.0  0.40290  0.46130  0.91410  1.0000 -0.5684605821
O   O68       1.0  0.39430  0.51090  0.84660  1.0000 -0.6309735611
O   O69       1.0  0.36560  0.70220  0.78200  1.0000 -0.5229234457
O   O70       1.0  0.33580  0.77920  0.73400  1.0000 -0.7282206202
O   O71       1.0  0.22780  0.71490  0.72910  1.0000 -0.63989885
O   O72       1.0  0.17850  0.63250  0.69800  1.0000 -0.5229234457
O   O73       1.0  0.19700  0.82520  0.73580  1.0000 -0.6869430825
O   O74       1.0  0.14960  0.89420  0.77770  1.0000 -0.5262182936
O   O75       1.0  0.12880  0.00940  0.91010  1.0000 -0.63989885
O   O76       1.0  0.12510  0.10850  0.92920  1.0000 -0.4629615927
O   O77       1.0  0.00880  0.98280  0.95230  1.0000 -0.5775321259
O   O78       1.0  0.93390  0.05080  0.93520  1.0000 -0.6702472304
O   O79       1.0  0.07140  0.68030  0.57100  1.0000 -0.6702472304
O   O80       1.0  0.16380  0.73280  0.62770  1.0000 -0.7374384189
O   O81       1.0  0.18170  0.85570  0.62800  1.0000 -0.6198281928
O   O82       1.0  0.24300  0.93440  0.59570  1.0000 -0.6198281928
O   O83       1.0  0.33280  0.95000  0.53720  1.0000 -0.6869430825
O   O84       1.0  0.30130  0.97610  0.44820  1.0000 -0.6511195932
O   O85       1.0  0.28040  0.93000  0.37260  1.0000 -0.5775321259
O   O86       1.0  0.27660  0.81840  0.33560  1.0000 -0.7097395792
O   O87       1.0  0.16980  0.75480  0.31770  1.0000 -0.6593919828
O   O88       1.0  0.10790  0.67700  0.35040  1.0000 -0.6309735611
O   O89       1.0  0.11600  0.60800  0.42490  1.0000 -0.7193234905
O   O90       1.0  0.05150  0.63280  0.49590  1.0000 -0.5775321259
O   O91       1.0  0.30700  0.70890  0.64980  1.0000 -0.6309735611
O   O92       1.0  0.32560  0.82510  0.62700  1.0000 -0.6511195932
O   O93       1.0  0.42750  0.86390  0.58930  1.0000 -0.6094775951
O   O94       1.0  0.45710  0.88750  0.51390  1.0000 -0.6198281928
O   O95       1.0  0.40940  0.88900  0.42500  1.0000 -0.7628658399
O   O96       1.0  0.41950  0.79110  0.37030  1.0000 -0.63989885
O   O97       1.0  0.36220  0.70000  0.34440  1.0000 -0.6198281928
O   O98       1.0  0.25150  0.64050  0.35120  1.0000 -0.7193234905
O   O99       1.0  0.24580  0.54540  0.40780  1.0000 -0.6309735611
O   O100      1.0  0.21730  0.52030  0.48240  1.0000 -0.6511195932
O   O101      1.0  0.17620  0.58080  0.55210  1.0000 -0.6702472304
O   O102      1.0  0.25210  0.61640  0.62580  1.0000 -0.6094775951
O   O103      1.0  0.28930  0.89620  0.69050  1.0000 -0.8493600771
O   O104      1.0  0.51790  0.98610  0.45890  1.0000 -0.6869430825
O   O105      1.0  0.56710  0.00310  0.39660  1.0000 -0.5775321259
O   O106      1.0  0.40290  0.03870  0.41410  1.0000 -0.5684605821
O   O107      1.0  0.39430  0.98910  0.34660  1.0000 -0.6309735611
O   O108      1.0  0.36560  0.79780  0.28200  1.0000 -0.5229234457
O   O109      1.0  0.33580  0.72080  0.23400  1.0000 -0.7282206202
O   O110      1.0  0.22780  0.78510  0.22910  1.0000 -0.63989885
O   O111      1.0  0.17850  0.86750  0.19800  1.0000 -0.5229234457
O   O112      1.0  0.19700  0.67480  0.23580  1.0000 -0.6869430825
O   O113      1.0  0.14960  0.60580  0.27770  1.0000 -0.5262182936
O   O114      1.0  0.12880  0.49060  0.41010  1.0000 -0.63989885
O   O115      1.0  0.12510  0.39150  0.42920  1.0000 -0.4629615927
O   O116      1.0  0.00880  0.51720  0.45230  1.0000 -0.5775321259
O   O117      1.0  0.93390  0.44920  0.43520  1.0000 -0.6702472304
O   O118      1.0  0.92860  0.18030  0.92900  1.0000 -0.6702472304
O   O119      1.0  0.83620  0.23280  0.87230  1.0000 -0.7282206202
O   O120      1.0  0.81830  0.35570  0.87200  1.0000 -0.6198281928
O   O121      1.0  0.75700  0.43440  0.90430  1.0000 -0.6198281928
O   O122      1.0  0.66720  0.45000  0.96280  1.0000 -0.6869430825
O   O123      1.0  0.69870  0.47610  0.05180  1.0000 -0.6511195932
O   O124      1.0  0.71960  0.43000  0.12740  1.0000 -0.5775321259
O   O125      1.0  0.72340  0.31840  0.16440  1.0000 -0.7097395792
O   O126      1.0  0.83020  0.25480  0.18230  1.0000 -0.6593919828
O   O127      1.0  0.89210  0.17700  0.14960  1.0000 -0.6309735611
O   O128      1.0  0.88400  0.10800  0.07510  1.0000 -0.7193234905
O   O129      1.0  0.94850  0.13280  0.00410  1.0000 -0.5775321259
O   O130      1.0  0.69300  0.20890  0.85020  1.0000 -0.6309735611
O   O131      1.0  0.67440  0.32510  0.87300  1.0000 -0.6511195932
O   O132      1.0  0.57250  0.36390  0.91070  1.0000 -0.6094775951
O   O133      1.0  0.54290  0.38750  0.98610  1.0000 -0.6198281928
O   O134      1.0  0.59060  0.38900  0.07500  1.0000 -0.7628658399
O   O135      1.0  0.58050  0.29110  0.12970  1.0000 -0.63989885
O   O136      1.0  0.63780  0.20000  0.15560  1.0000 -0.6198281928
O   O137      1.0  0.74850  0.14050  0.14880  1.0000 -0.7193234905
O   O138      1.0  0.75420  0.04540  0.09220  1.0000 -0.6309735611
O   O139      1.0  0.78270  0.02030  0.01760  1.0000 -0.6511195932
O   O140      1.0  0.82380  0.08080  0.94790  1.0000 -0.6702472304
O   O141      1.0  0.74790  0.11640  0.87420  1.0000 -0.6094775951
O   O142      1.0  0.71070  0.39620  0.80950  1.0000 -0.8493600771
O   O143      1.0  0.48210  0.48610  0.04110  1.0000 -0.6869430825
O   O144      1.0  0.43290  0.50310  0.10340  1.0000 -0.5775321259
O   O145      1.0  0.59710  0.53870  0.08590  1.0000 -0.5684605821
O   O146      1.0  0.60570  0.48910  0.15340  1.0000 -0.6309735611
O   O147      1.0  0.63440  0.29780  0.21800  1.0000 -0.5229234457
O   O148      1.0  0.66420  0.22080  0.26600  1.0000 -0.7193234905
O   O149      1.0  0.77220  0.28510  0.27090  1.0000 -0.6309735611
O   O150      1.0  0.82150  0.36750  0.30200  1.0000 -0.5262182936
O   O151      1.0  0.80300  0.17480  0.26420  1.0000 -0.6869430825
O   O152      1.0  0.85040  0.10580  0.22230  1.0000 -0.5229234457
O   O153      1.0  0.87120  0.99060  0.08990  1.0000 -0.63989885
O   O154      1.0  0.87490  0.89150  0.07080  1.0000 -0.4654116615
O   O155      1.0  0.99120  0.01720  0.04770  1.0000 -0.5775321259
O   O156      1.0  0.06610  0.94920  0.06480  1.0000 -0.6702472304
