# DDEC6 charges by PACMAN v1.1 (https://github.com/mtap-research/PACMAN-charge/)
data_2018[Co][cds]3[ASR]1
_chemical_formula_sum              "Co2 H88 C96 S4 N16 O4"
_cell_length_a       10.3756
_cell_length_b       19.1855
_cell_length_c       16.2699
_cell_angle_alpha    90
_cell_angle_beta     106.881
_cell_angle_gamma    90

_symmetry_space_group_name_H-M    "P 1"
_symmetry_Int_Tables_number       1

loop_
  _symmetry_equiv_pos_as_xyz
  'x, y, z'

loop_
  _atom_site_type_symbol
  _atom_site_label
  _atom_site_symmetry_multiplicity
  _atom_site_fract_x
  _atom_site_fract_y
  _atom_site_fract_z
  _atom_site_occupancy
  _atom_site_charge
Co  Co1       1.0  0.00000  0.50000  0.00000  1.0000 0.6799001761
Co  Co2       1.0  0.00000  0.00000  0.50000  1.0000 0.6799001761
H   H1        1.0  0.79530  0.45300  0.09960  1.0000 0.1088591562
H   H2        1.0  0.72160  0.48620  0.21510  1.0000 0.1338458426
H   H3        1.0  0.04070  0.61690  0.28750  1.0000 0.1389736973
H   H4        1.0  0.10680  0.57780  0.17150  1.0000 0.1006026776
H   H5        1.0  0.70550  0.50150  0.34780  1.0000 0.1211433437
H   H6        1.0  0.69040  0.66950  0.49660  1.0000 0.1211433437
H   H7        1.0  0.04790  0.74200  0.42500  1.0000 0.1389736973
H   H8        1.0  0.11360  0.85590  0.45830  1.0000 0.1088591562
H   H9        1.0  0.77100  0.90050  0.50310  1.0000 0.1006026776
H   H10       1.0  0.69560  0.78700  0.47300  1.0000 0.1389736973
H   H11       1.0  0.51840  0.50390  0.64640  1.0000 0.1211433437
H   H12       1.0  0.73160  0.53870  0.71770  1.0000 0.1006026776
H   H13       1.0  0.64670  0.60630  0.70830  1.0000 0.1088591562
H   H14       1.0  0.91650  0.58550  0.76530  1.0000 0.1088591562
H   H15       1.0  0.83000  0.64720  0.78100  1.0000 0.1088591562
H   H16       1.0  0.90360  0.64990  0.64590  1.0000 0.1006026776
H   H17       1.0  0.82170  0.71210  0.66560  1.0000 0.0895286922
H   H18       1.0  0.07350  0.71020  0.78210  1.0000 0.0895286922
H   H19       1.0  0.00130  0.75460  0.70230  1.0000 0.1006026776
H   H20       1.0  0.19650  0.71290  0.68480  1.0000 0.1211433437
H   H21       1.0  0.15060  0.63690  0.69270  1.0000 0.1211433437
H   H22       1.0  0.07850  0.68130  0.61290  1.0000 0.1088591562
H   H23       1.0  0.20470  0.95300  0.40040  1.0000 0.1088591562
H   H24       1.0  0.27840  0.98620  0.28490  1.0000 0.1338458426
H   H25       1.0  0.95930  0.11690  0.21250  1.0000 0.1389736973
H   H26       1.0  0.89320  0.07780  0.32850  1.0000 0.1006026776
H   H27       1.0  0.29450  0.00150  0.15220  1.0000 0.1211433437
H   H28       1.0  0.30960  0.16950  0.00340  1.0000 0.1211433437
H   H29       1.0  0.95210  0.24200  0.07500  1.0000 0.1389736973
H   H30       1.0  0.88640  0.35590  0.04170  1.0000 0.1088591562
H   H31       1.0  0.22900  0.40050  0.99690  1.0000 0.1006026776
H   H32       1.0  0.30440  0.28700  0.02700  1.0000 0.1389736973
H   H33       1.0  0.48160  0.00390  0.85360  1.0000 0.1211433437
H   H34       1.0  0.26840  0.03870  0.78230  1.0000 0.1006026776
H   H35       1.0  0.35330  0.10630  0.79170  1.0000 0.1088591562
H   H36       1.0  0.08350  0.08550  0.73470  1.0000 0.1088591562
H   H37       1.0  0.17000  0.14720  0.71900  1.0000 0.1088591562
H   H38       1.0  0.09640  0.14990  0.85410  1.0000 0.1006026776
H   H39       1.0  0.17830  0.21210  0.83440  1.0000 0.0895286922
H   H40       1.0  0.92650  0.21020  0.71790  1.0000 0.0895286922
H   H41       1.0  0.99870  0.25460  0.79770  1.0000 0.1006026776
H   H42       1.0  0.80350  0.21290  0.81520  1.0000 0.1211433437
H   H43       1.0  0.84940  0.13690  0.80730  1.0000 0.1211433437
H   H44       1.0  0.92150  0.18130  0.88710  1.0000 0.1088591562
H   H45       1.0  0.20470  0.54700  0.90040  1.0000 0.1088591562
H   H46       1.0  0.27840  0.51380  0.78490  1.0000 0.1338458426
H   H47       1.0  0.95930  0.38310  0.71250  1.0000 0.1389736973
H   H48       1.0  0.89320  0.42220  0.82850  1.0000 0.1006026776
H   H49       1.0  0.29450  0.49850  0.65220  1.0000 0.1211433437
H   H50       1.0  0.30960  0.33050  0.50340  1.0000 0.1211433437
H   H51       1.0  0.95210  0.25800  0.57500  1.0000 0.1389736973
H   H52       1.0  0.88640  0.14410  0.54170  1.0000 0.1088591562
H   H53       1.0  0.22900  0.09950  0.49690  1.0000 0.1006026776
H   H54       1.0  0.30440  0.21300  0.52700  1.0000 0.1389736973
H   H55       1.0  0.48160  0.49610  0.35360  1.0000 0.1211433437
H   H56       1.0  0.26840  0.46130  0.28230  1.0000 0.1006026776
H   H57       1.0  0.35330  0.39370  0.29170  1.0000 0.1088591562
H   H58       1.0  0.08350  0.41450  0.23470  1.0000 0.1088591562
H   H59       1.0  0.17000  0.35280  0.21900  1.0000 0.1088591562
H   H60       1.0  0.09640  0.35010  0.35410  1.0000 0.1006026776
H   H61       1.0  0.17830  0.28790  0.33440  1.0000 0.0895286922
H   H62       1.0  0.92650  0.28980  0.21790  1.0000 0.0895286922
H   H63       1.0  0.99870  0.24540  0.29770  1.0000 0.1006026776
H   H64       1.0  0.80350  0.28710  0.31520  1.0000 0.1211433437
H   H65       1.0  0.84940  0.36310  0.30730  1.0000 0.1211433437
H   H66       1.0  0.92150  0.31870  0.38710  1.0000 0.1088591562
H   H67       1.0  0.79530  0.04700  0.59960  1.0000 0.1088591562
H   H68       1.0  0.72160  0.01380  0.71510  1.0000 0.1338458426
H   H69       1.0  0.04070  0.88310  0.78750  1.0000 0.1389736973
H   H70       1.0  0.10680  0.92220  0.67150  1.0000 0.1006026776
H   H71       1.0  0.70550  0.99850  0.84780  1.0000 0.1211433437
H   H72       1.0  0.69040  0.83050  0.99660  1.0000 0.1211433437
H   H73       1.0  0.04790  0.75800  0.92500  1.0000 0.1389736973
H   H74       1.0  0.11360  0.64410  0.95830  1.0000 0.1088591562
H   H75       1.0  0.77100  0.59950  0.00310  1.0000 0.1006026776
H   H76       1.0  0.69560  0.71300  0.97300  1.0000 0.1389736973
H   H77       1.0  0.51840  0.99610  0.14640  1.0000 0.1211433437
H   H78       1.0  0.73160  0.96130  0.21770  1.0000 0.1006026776
H   H79       1.0  0.64670  0.89370  0.20830  1.0000 0.1088591562
H   H80       1.0  0.91650  0.91450  0.26530  1.0000 0.1088591562
H   H81       1.0  0.83000  0.85280  0.28100  1.0000 0.1088591562
H   H82       1.0  0.90360  0.85010  0.14590  1.0000 0.1006026776
H   H83       1.0  0.82170  0.78790  0.16560  1.0000 0.0895286922
H   H84       1.0  0.07350  0.78980  0.28210  1.0000 0.0895286922
H   H85       1.0  0.00130  0.74540  0.20230  1.0000 0.1006026776
H   H86       1.0  0.19650  0.78710  0.18480  1.0000 0.1211433437
H   H87       1.0  0.15060  0.86310  0.19270  1.0000 0.1211433437
H   H88       1.0  0.07850  0.81870  0.11290  1.0000 0.1088591562
C   C1        1.0  0.30370  0.53671  0.10550  1.0000 0.2616508968
C   C2        1.0  0.84550  0.48691  0.13840  1.0000 0.0690023321
C   C3        1.0  0.80100  0.50647  0.20771  1.0000 -0.1973819144
C   C4        1.0  0.87210  0.55637  0.26523  1.0000 0.1006026776
C   C5        1.0  0.98760  0.58318  0.24980  1.0000 -0.1869592302
C   C6        1.0  0.02650  0.55976  0.18010  1.0000 0.0764568683
C   C7        1.0  0.82160  0.58480  0.33590  1.0000 0.2025164671
C   C8        1.0  0.73270  0.54715  0.36800  1.0000 -0.2354395043
C   C9        1.0  0.68390  0.57813  0.43090  1.0000 0.1389736973
C   C10       1.0  0.72440  0.64602  0.45580  1.0000 -0.2354395043
C   C11       1.0  0.81340  0.67970  0.42040  1.0000 0.1860039152
C   C12       1.0  0.86260  0.75160  0.44511  1.0000 0.0895286922
C   C13       1.0  0.98900  0.77358  0.44110  1.0000 -0.1869592302
C   C14       1.0  0.02680  0.84187  0.46030  1.0000 0.0647257187
C   C15       1.0  0.82740  0.86785  0.48640  1.0000 0.0895286922
C   C16       1.0  0.78200  0.79984  0.46910  1.0000 -0.1973819144
C   C17       1.0  0.58960  0.53873  0.46760  1.0000 -0.0107108618
C   C18       1.0  0.59910  0.54172  0.55590  1.0000 0.2051332809
C   C19       1.0  0.51030  0.50280  0.58672  1.0000 -0.2828638487
C   C20       1.0  0.72090  0.58470  0.69530  1.0000 -0.0283127369
C   C21       1.0  0.85240  0.62000  0.73840  1.0000 -0.2089059695
C   C22       1.0  0.88980  0.67890  0.69000  1.0000 -0.1782181047
C   C23       1.0  0.02950  0.70890  0.72220  1.0000 -0.1238918759
C   C24       1.0  0.12120  0.68240  0.67300  1.0000 -0.3590254419
C   C25       1.0  0.69630  0.03671  0.39450  1.0000 0.2616508968
C   C26       1.0  0.15450  0.98691  0.36160  1.0000 0.0690023321
C   C27       1.0  0.19900  0.00647  0.29229  1.0000 -0.1973819144
C   C28       1.0  0.12790  0.05637  0.23477  1.0000 0.1006026776
C   C29       1.0  0.01240  0.08318  0.25020  1.0000 -0.1869592302
C   C30       1.0  0.97350  0.05976  0.31990  1.0000 0.0764568683
C   C31       1.0  0.17840  0.08480  0.16410  1.0000 0.2025164671
C   C32       1.0  0.26730  0.04715  0.13200  1.0000 -0.2354395043
C   C33       1.0  0.31610  0.07813  0.06910  1.0000 0.1389736973
C   C34       1.0  0.27560  0.14602  0.04420  1.0000 -0.2327308476
C   C35       1.0  0.18660  0.17970  0.07960  1.0000 0.1860039152
C   C36       1.0  0.13740  0.25160  0.05489  1.0000 0.0895286922
C   C37       1.0  0.01100  0.27358  0.05890  1.0000 -0.1869592302
C   C38       1.0  0.97320  0.34187  0.03970  1.0000 0.0690023321
C   C39       1.0  0.17260  0.36785  0.01360  1.0000 0.0895286922
C   C40       1.0  0.21800  0.29984  0.03090  1.0000 -0.1973819144
C   C41       1.0  0.41040  0.03873  0.03240  1.0000 -0.0107108618
C   C42       1.0  0.40090  0.04172  0.94410  1.0000 0.2051332809
C   C43       1.0  0.48970  0.00280  0.91328  1.0000 -0.2828638487
C   C44       1.0  0.27910  0.08470  0.80470  1.0000 -0.0283127369
C   C45       1.0  0.14760  0.12000  0.76160  1.0000 -0.2089059695
C   C46       1.0  0.11020  0.17890  0.81000  1.0000 -0.1782181047
C   C47       1.0  0.97050  0.20890  0.77780  1.0000 -0.1238918759
C   C48       1.0  0.87880  0.18240  0.82700  1.0000 -0.3590254419
C   C49       1.0  0.69630  0.46329  0.89450  1.0000 0.2616508968
C   C50       1.0  0.15450  0.51309  0.86160  1.0000 0.0690023321
C   C51       1.0  0.19900  0.49353  0.79229  1.0000 -0.1973819144
C   C52       1.0  0.12790  0.44363  0.73477  1.0000 0.1006026776
C   C53       1.0  0.01240  0.41682  0.75020  1.0000 -0.1869592302
C   C54       1.0  0.97350  0.44024  0.81990  1.0000 0.0764568683
C   C55       1.0  0.17840  0.41520  0.66410  1.0000 0.2025164671
C   C56       1.0  0.26730  0.45285  0.63200  1.0000 -0.2354395043
C   C57       1.0  0.31610  0.42187  0.56910  1.0000 0.1389736973
C   C58       1.0  0.27560  0.35398  0.54420  1.0000 -0.2354395043
C   C59       1.0  0.18660  0.32030  0.57960  1.0000 0.1860039152
C   C60       1.0  0.13740  0.24840  0.55489  1.0000 0.0895286922
C   C61       1.0  0.01100  0.22642  0.55890  1.0000 -0.1869592302
C   C62       1.0  0.97320  0.15813  0.53970  1.0000 0.0690023321
C   C63       1.0  0.17260  0.13215  0.51360  1.0000 0.0895286922
C   C64       1.0  0.21800  0.20016  0.53090  1.0000 -0.1973819144
C   C65       1.0  0.41040  0.46127  0.53240  1.0000 -0.0107108618
C   C66       1.0  0.40090  0.45828  0.44410  1.0000 0.2025164671
C   C67       1.0  0.48970  0.49720  0.41328  1.0000 -0.2828638487
C   C68       1.0  0.27910  0.41530  0.30470  1.0000 -0.0283127369
C   C69       1.0  0.14760  0.38000  0.26160  1.0000 -0.2089059695
C   C70       1.0  0.11020  0.32110  0.31000  1.0000 -0.1782181047
C   C71       1.0  0.97050  0.29110  0.27780  1.0000 -0.1238918759
C   C72       1.0  0.87880  0.31760  0.32700  1.0000 -0.3590254419
C   C73       1.0  0.30370  0.96329  0.60550  1.0000 0.2616508968
C   C74       1.0  0.84550  0.01309  0.63840  1.0000 0.0690023321
C   C75       1.0  0.80100  0.99353  0.70771  1.0000 -0.1973819144
C   C76       1.0  0.87210  0.94363  0.76523  1.0000 0.1006026776
C   C77       1.0  0.98760  0.91682  0.74980  1.0000 -0.1869592302
C   C78       1.0  0.02650  0.94024  0.68010  1.0000 0.0764568683
C   C79       1.0  0.82160  0.91520  0.83590  1.0000 0.2025164671
C   C80       1.0  0.73270  0.95285  0.86800  1.0000 -0.2354395043
C   C81       1.0  0.68390  0.92187  0.93090  1.0000 0.1389736973
C   C82       1.0  0.72440  0.85398  0.95580  1.0000 -0.2354395043
C   C83       1.0  0.81340  0.82030  0.92040  1.0000 0.1860039152
C   C84       1.0  0.86260  0.74840  0.94511  1.0000 0.0895286922
C   C85       1.0  0.98900  0.72642  0.94110  1.0000 -0.1869592302
C   C86       1.0  0.02680  0.65813  0.96030  1.0000 0.0647257187
C   C87       1.0  0.82740  0.63215  0.98640  1.0000 0.0895286922
C   C88       1.0  0.78200  0.70016  0.96910  1.0000 -0.1973819144
C   C89       1.0  0.58960  0.96127  0.96760  1.0000 -0.0107108618
C   C90       1.0  0.59910  0.95828  0.05590  1.0000 0.2051332809
C   C91       1.0  0.51030  0.99720  0.08672  1.0000 -0.2828638487
C   C92       1.0  0.72090  0.91530  0.19530  1.0000 -0.0283127369
C   C93       1.0  0.85240  0.88000  0.23840  1.0000 -0.2089059695
C   C94       1.0  0.88980  0.82110  0.19000  1.0000 -0.1782181047
C   C95       1.0  0.02950  0.79110  0.22220  1.0000 -0.1238918759
C   C96       1.0  0.12120  0.81760  0.17300  1.0000 -0.3590254419
S   S1        1.0  0.44655  0.55565  0.17687  1.0000 -0.4096788176
S   S2        1.0  0.55345  0.05565  0.32313  1.0000 -0.4096788176
S   S3        1.0  0.55345  0.44435  0.82313  1.0000 -0.4096788176
S   S4        1.0  0.44655  0.94435  0.67687  1.0000 -0.4096788176
N   N1        1.0  0.95600  0.51313  0.12393  1.0000 -0.2327308476
N   N2        1.0  0.86510  0.64929  0.36181  1.0000 -0.3333945878
N   N3        1.0  0.94710  0.89007  0.48107  1.0000 -0.2354395043
N   N4        1.0  0.19850  0.52642  0.05735  1.0000 -0.5132309132
N   N5        1.0  0.04400  0.01313  0.37607  1.0000 -0.2327308476
N   N6        1.0  0.13490  0.14929  0.13819  1.0000 -0.3333945878
N   N7        1.0  0.05290  0.39007  0.01893  1.0000 -0.2327308476
N   N8        1.0  0.80150  0.02642  0.44265  1.0000 -0.5132309132
N   N9        1.0  0.04400  0.48687  0.87607  1.0000 -0.2327308476
N   N10       1.0  0.13490  0.35071  0.63819  1.0000 -0.3333945878
N   N11       1.0  0.05290  0.10993  0.51893  1.0000 -0.2327308476
N   N12       1.0  0.80150  0.47358  0.94265  1.0000 -0.5132309132
N   N13       1.0  0.95600  0.98687  0.62393  1.0000 -0.2327308476
N   N14       1.0  0.86510  0.85071  0.86181  1.0000 -0.3333945878
N   N15       1.0  0.94710  0.60993  0.98107  1.0000 -0.2327308476
N   N16       1.0  0.19850  0.97358  0.55735  1.0000 -0.5132309132
O   O1        1.0  0.69690  0.58225  0.60670  1.0000 -0.164010641
O   O2        1.0  0.30310  0.08225  0.89330  1.0000 -0.164010641
O   O3        1.0  0.30310  0.41775  0.39330  1.0000 -0.164010641
O   O4        1.0  0.69690  0.91775  0.10670  1.0000 -0.164010641
