# DDEC6 charges by PACMAN v1.1 (https://github.com/mtap-research/PACMAN-charge/)
data_2018[U][nan]3[ASR]2
_chemical_formula_sum              "U16 P24 H80 C72 O72"
_cell_length_a       9.9357
_cell_length_b       20.5884
_cell_length_c       23.529
_cell_angle_alpha    90
_cell_angle_beta     90
_cell_angle_gamma    90

_symmetry_space_group_name_H-M    "P 1"
_symmetry_Int_Tables_number       1

loop_
  _symmetry_equiv_pos_as_xyz
  'x, y, z'

loop_
  _atom_site_type_symbol
  _atom_site_label
  _atom_site_symmetry_multiplicity
  _atom_site_fract_x
  _atom_site_fract_y
  _atom_site_fract_z
  _atom_site_occupancy
  _atom_site_charge
U   U1        1.0  0.96716  0.17529  0.56150  1.0000 2.0300444412
U   U2        1.0  0.98232  0.05563  0.76947  1.0000 2.0664707668
U   U3        1.0  0.53284  0.82471  0.06150  1.0000 2.0300444412
U   U4        1.0  0.51768  0.94437  0.26947  1.0000 2.0620998549
U   U5        1.0  0.03284  0.67529  0.93850  1.0000 2.0300444412
U   U6        1.0  0.01768  0.55563  0.73053  1.0000 2.0620998549
U   U7        1.0  0.46716  0.32471  0.43850  1.0000 2.0300444412
U   U8        1.0  0.48232  0.44437  0.23053  1.0000 2.0620998549
U   U9        1.0  0.03284  0.82471  0.43850  1.0000 2.0300444412
U   U10       1.0  0.01768  0.94437  0.23053  1.0000 2.0620998549
U   U11       1.0  0.46716  0.17529  0.93850  1.0000 2.0300444412
U   U12       1.0  0.48232  0.05563  0.73053  1.0000 2.0664707668
U   U13       1.0  0.96716  0.32471  0.06150  1.0000 2.0300444412
U   U14       1.0  0.98232  0.44437  0.26947  1.0000 2.0664707668
U   U15       1.0  0.53284  0.67529  0.56150  1.0000 2.0300444412
U   U16       1.0  0.51768  0.55563  0.76947  1.0000 2.0620998549
P   P1        1.0  0.59910  0.19240  0.53150  1.0000 1.3686991381
P   P2        1.0  0.24121  0.94465  0.35381  1.0000 1.362912898
P   P3        1.0  0.18194  0.05797  0.64477  1.0000 1.3794197488
P   P4        1.0  0.90090  0.80760  0.03150  1.0000 1.3686991381
P   P5        1.0  0.25879  0.05535  0.85381  1.0000 1.362912898
P   P6        1.0  0.31806  0.94203  0.14477  1.0000 1.3794197488
P   P7        1.0  0.40090  0.69240  0.96850  1.0000 1.3686991381
P   P8        1.0  0.75879  0.44465  0.14619  1.0000 1.362912898
P   P9        1.0  0.81806  0.55797  0.85523  1.0000 1.3794197488
P   P10       1.0  0.09910  0.30760  0.46850  1.0000 1.3686991381
P   P11       1.0  0.74121  0.55535  0.64619  1.0000 1.362912898
P   P12       1.0  0.68194  0.44203  0.35523  1.0000 1.3794197488
P   P13       1.0  0.40090  0.80760  0.46850  1.0000 1.3686991381
P   P14       1.0  0.75879  0.05535  0.64619  1.0000 1.362912898
P   P15       1.0  0.81806  0.94203  0.35523  1.0000 1.3794197488
P   P16       1.0  0.09910  0.19240  0.96850  1.0000 1.3686991381
P   P17       1.0  0.74121  0.94465  0.14619  1.0000 1.362912898
P   P18       1.0  0.68194  0.05797  0.85523  1.0000 1.3794197488
P   P19       1.0  0.59910  0.30760  0.03150  1.0000 1.3686991381
P   P20       1.0  0.24121  0.55535  0.85381  1.0000 1.362912898
P   P21       1.0  0.18194  0.44203  0.14477  1.0000 1.3794197488
P   P22       1.0  0.90090  0.69240  0.53150  1.0000 1.3686991381
P   P23       1.0  0.25879  0.44465  0.35381  1.0000 1.362912898
P   P24       1.0  0.31806  0.55797  0.64477  1.0000 1.3794197488
H   H1        1.0  0.56690  0.14420  0.60420  1.0000 0.3495590734
H   H2        1.0  0.42550  0.09270  0.40470  1.0000 0.1169078397
H   H3        1.0  0.12870  0.99810  0.48450  1.0000 0.1032296597
H   H4        1.0  0.44570  0.06300  0.57210  1.0000 0.1277078587
H   H5        1.0  0.61790  0.12790  0.45290  1.0000 0.1520882823
H   H6        1.0  0.65420  0.08830  0.50740  1.0000 0.1447632807
H   H7        1.0  0.23540  0.05640  0.35050  1.0000 0.1520882823
H   H8        1.0  0.10740  0.03010  0.38180  1.0000 0.1520882823
H   H9        1.0  0.28530  0.96820  0.60640  1.0000 0.1575411457
H   H10       1.0  0.13910  0.97470  0.58220  1.0000 0.1575411457
H   H11       1.0  0.93310  0.85580  0.10420  1.0000 0.3495590734
H   H12       1.0  0.07450  0.90730  0.90470  1.0000 0.1169078397
H   H13       1.0  0.37130  0.00190  0.98450  1.0000 0.1032296597
H   H14       1.0  0.05430  0.93700  0.07210  1.0000 0.1277078587
H   H15       1.0  0.88210  0.87210  0.95290  1.0000 0.1520882823
H   H16       1.0  0.84580  0.91170  0.00740  1.0000 0.1447632807
H   H17       1.0  0.26460  0.94360  0.85050  1.0000 0.1520882823
H   H18       1.0  0.39260  0.96990  0.88180  1.0000 0.1520882823
H   H19       1.0  0.21470  0.03180  0.10640  1.0000 0.1575411457
H   H20       1.0  0.36090  0.02530  0.08220  1.0000 0.1575411457
H   H21       1.0  0.43310  0.64420  0.89580  1.0000 0.3495590734
H   H22       1.0  0.57450  0.59270  0.09530  1.0000 0.1169078397
H   H23       1.0  0.87130  0.49810  0.01550  1.0000 0.1032296597
H   H24       1.0  0.55430  0.56300  0.92790  1.0000 0.1277078587
H   H25       1.0  0.38210  0.62790  0.04710  1.0000 0.1520882823
H   H26       1.0  0.34580  0.58830  0.99260  1.0000 0.1447632807
H   H27       1.0  0.76460  0.55640  0.14950  1.0000 0.1520882823
H   H28       1.0  0.89260  0.53010  0.11820  1.0000 0.1520882823
H   H29       1.0  0.71470  0.46820  0.89360  1.0000 0.1575411457
H   H30       1.0  0.86090  0.47470  0.91780  1.0000 0.1575411457
H   H31       1.0  0.06690  0.35580  0.39580  1.0000 0.3495590734
H   H32       1.0  0.92550  0.40730  0.59530  1.0000 0.1169078397
H   H33       1.0  0.62870  0.50190  0.51550  1.0000 0.1032296597
H   H34       1.0  0.94570  0.43700  0.42790  1.0000 0.1277078587
H   H35       1.0  0.11790  0.37210  0.54710  1.0000 0.1520882823
H   H36       1.0  0.15420  0.41170  0.49260  1.0000 0.1447632807
H   H37       1.0  0.73540  0.44360  0.64950  1.0000 0.1520882823
H   H38       1.0  0.60740  0.46990  0.61820  1.0000 0.1520882823
H   H39       1.0  0.78530  0.53180  0.39360  1.0000 0.1575411457
H   H40       1.0  0.63910  0.52530  0.41780  1.0000 0.1575411457
H   H41       1.0  0.43310  0.85580  0.39580  1.0000 0.3495590734
H   H42       1.0  0.57450  0.90730  0.59530  1.0000 0.1169078397
H   H43       1.0  0.87130  0.00190  0.51550  1.0000 0.1032296597
H   H44       1.0  0.55430  0.93700  0.42790  1.0000 0.1277078587
H   H45       1.0  0.38210  0.87210  0.54710  1.0000 0.1520882823
H   H46       1.0  0.34580  0.91170  0.49260  1.0000 0.1447632807
H   H47       1.0  0.76460  0.94360  0.64950  1.0000 0.1520882823
H   H48       1.0  0.89260  0.96990  0.61820  1.0000 0.1520882823
H   H49       1.0  0.71470  0.03180  0.39360  1.0000 0.1575411457
H   H50       1.0  0.86090  0.02530  0.41780  1.0000 0.1575411457
H   H51       1.0  0.06690  0.14420  0.89580  1.0000 0.3495590734
H   H52       1.0  0.92550  0.09270  0.09530  1.0000 0.1169078397
H   H53       1.0  0.62870  0.99810  0.01550  1.0000 0.1032296597
H   H54       1.0  0.94570  0.06300  0.92790  1.0000 0.1277078587
H   H55       1.0  0.11790  0.12790  0.04710  1.0000 0.1520882823
H   H56       1.0  0.15420  0.08830  0.99260  1.0000 0.1447632807
H   H57       1.0  0.73540  0.05640  0.14950  1.0000 0.1520882823
H   H58       1.0  0.60740  0.03010  0.11820  1.0000 0.1520882823
H   H59       1.0  0.78530  0.96820  0.89360  1.0000 0.1575411457
H   H60       1.0  0.63910  0.97470  0.91780  1.0000 0.1575411457
H   H61       1.0  0.56690  0.35580  0.10420  1.0000 0.3495590734
H   H62       1.0  0.42550  0.40730  0.90470  1.0000 0.1169078397
H   H63       1.0  0.12870  0.50190  0.98450  1.0000 0.1032296597
H   H64       1.0  0.44570  0.43700  0.07210  1.0000 0.1277078587
H   H65       1.0  0.61790  0.37210  0.95290  1.0000 0.1520882823
H   H66       1.0  0.65420  0.41170  0.00740  1.0000 0.1447632807
H   H67       1.0  0.23540  0.44360  0.85050  1.0000 0.1520882823
H   H68       1.0  0.10740  0.46990  0.88180  1.0000 0.1520882823
H   H69       1.0  0.28530  0.53180  0.10640  1.0000 0.1575411457
H   H70       1.0  0.13910  0.52530  0.08220  1.0000 0.1575411457
H   H71       1.0  0.93310  0.64420  0.60420  1.0000 0.3495590734
H   H72       1.0  0.07450  0.59270  0.40470  1.0000 0.1169078397
H   H73       1.0  0.37130  0.49810  0.48450  1.0000 0.1032296597
H   H74       1.0  0.05430  0.56300  0.57210  1.0000 0.1277078587
H   H75       1.0  0.88210  0.62790  0.45290  1.0000 0.1520882823
H   H76       1.0  0.84580  0.58830  0.50740  1.0000 0.1447632807
H   H77       1.0  0.26460  0.55640  0.35050  1.0000 0.1520882823
H   H78       1.0  0.39260  0.53010  0.38180  1.0000 0.1520882823
H   H79       1.0  0.21470  0.46820  0.60640  1.0000 0.1575411457
H   H80       1.0  0.36090  0.47470  0.58220  1.0000 0.1575411457
C   C1        1.0  0.45460  0.08530  0.48900  1.0000 0.1659935611
C   C2        1.0  0.38820  0.07600  0.43790  1.0000 -0.2451794249
C   C3        1.0  0.26650  0.04210  0.43490  1.0000 0.1659935611
C   C4        1.0  0.21140  0.01930  0.48550  1.0000 -0.2906961543
C   C5        1.0  0.27580  0.02700  0.53720  1.0000 0.1575411457
C   C6        1.0  0.39940  0.05910  0.53800  1.0000 -0.2403545988
C   C7        1.0  0.58970  0.11860  0.49150  1.0000 -0.6292514158
C   C8        1.0  0.20420  0.02540  0.37870  1.0000 -0.6115242121
C   C9        1.0  0.22040  0.99870  0.59110  1.0000 -0.6115242121
C   C10       1.0  0.04540  0.91470  0.98900  1.0000 0.1575411457
C   C11       1.0  0.11180  0.92400  0.93790  1.0000 -0.2451794249
C   C12       1.0  0.23350  0.95790  0.93490  1.0000 0.1659935611
C   C13       1.0  0.28860  0.98070  0.98550  1.0000 -0.2906961543
C   C14       1.0  0.22420  0.97300  0.03720  1.0000 0.1520882823
C   C15       1.0  0.10060  0.94090  0.03800  1.0000 -0.2403545988
C   C16       1.0  0.91030  0.88140  0.99150  1.0000 -0.6292514158
C   C17       1.0  0.29580  0.97460  0.87870  1.0000 -0.6115242121
C   C18       1.0  0.27960  0.00130  0.09110  1.0000 -0.6115242121
C   C19       1.0  0.54540  0.58530  0.01100  1.0000 0.1659935611
C   C20       1.0  0.61180  0.57600  0.06210  1.0000 -0.2403545988
C   C21       1.0  0.73350  0.54210  0.06510  1.0000 0.1659935611
C   C22       1.0  0.78860  0.51930  0.01450  1.0000 -0.2906961543
C   C23       1.0  0.72420  0.52700  0.96280  1.0000 0.1575411457
C   C24       1.0  0.60060  0.55910  0.96200  1.0000 -0.2403545988
C   C25       1.0  0.41030  0.61860  0.00850  1.0000 -0.6292514158
C   C26       1.0  0.79580  0.52540  0.12130  1.0000 -0.6115242121
C   C27       1.0  0.77960  0.49870  0.90890  1.0000 -0.6115242121
C   C28       1.0  0.95460  0.41470  0.51100  1.0000 0.1659935611
C   C29       1.0  0.88820  0.42400  0.56210  1.0000 -0.2451794249
C   C30       1.0  0.76650  0.45790  0.56510  1.0000 0.1659935611
C   C31       1.0  0.71140  0.48070  0.51450  1.0000 -0.2906961543
C   C32       1.0  0.77580  0.47300  0.46280  1.0000 0.1520882823
C   C33       1.0  0.89940  0.44090  0.46200  1.0000 -0.2403545988
C   C34       1.0  0.08970  0.38140  0.50850  1.0000 -0.6292514158
C   C35       1.0  0.70420  0.47460  0.62130  1.0000 -0.6115242121
C   C36       1.0  0.72040  0.50130  0.40890  1.0000 -0.6115242121
C   C37       1.0  0.54540  0.91470  0.51100  1.0000 0.1659935611
C   C38       1.0  0.61180  0.92400  0.56210  1.0000 -0.2403545988
C   C39       1.0  0.73350  0.95790  0.56510  1.0000 0.1659935611
C   C40       1.0  0.78860  0.98070  0.51450  1.0000 -0.2906961543
C   C41       1.0  0.72420  0.97300  0.46280  1.0000 0.1520882823
C   C42       1.0  0.60060  0.94090  0.46200  1.0000 -0.2403545988
C   C43       1.0  0.41030  0.88140  0.50850  1.0000 -0.6292514158
C   C44       1.0  0.79580  0.97460  0.62130  1.0000 -0.6115242121
C   C45       1.0  0.77960  0.00130  0.40890  1.0000 -0.6115242121
C   C46       1.0  0.95460  0.08530  0.01100  1.0000 0.1659935611
C   C47       1.0  0.88820  0.07600  0.06210  1.0000 -0.2451794249
C   C48       1.0  0.76650  0.04210  0.06510  1.0000 0.1659935611
C   C49       1.0  0.71140  0.01930  0.01450  1.0000 -0.2906961543
C   C50       1.0  0.77580  0.02700  0.96280  1.0000 0.1575411457
C   C51       1.0  0.89940  0.05910  0.96200  1.0000 -0.2403545988
C   C52       1.0  0.08970  0.11860  0.00850  1.0000 -0.6292514158
C   C53       1.0  0.70420  0.02540  0.12130  1.0000 -0.6115242121
C   C54       1.0  0.72040  0.99870  0.90890  1.0000 -0.6115242121
C   C55       1.0  0.45460  0.41470  0.98900  1.0000 0.1659935611
C   C56       1.0  0.38820  0.42400  0.93790  1.0000 -0.2451794249
C   C57       1.0  0.26650  0.45790  0.93490  1.0000 0.1659935611
C   C58       1.0  0.21140  0.48070  0.98550  1.0000 -0.2906961543
C   C59       1.0  0.27580  0.47300  0.03720  1.0000 0.1520882823
C   C60       1.0  0.39940  0.44090  0.03800  1.0000 -0.2403545988
C   C61       1.0  0.58970  0.38140  0.99150  1.0000 -0.6292514158
C   C62       1.0  0.20420  0.47460  0.87870  1.0000 -0.6115242121
C   C63       1.0  0.22040  0.50130  0.09110  1.0000 -0.6115242121
C   C64       1.0  0.04540  0.58530  0.48900  1.0000 0.1659935611
C   C65       1.0  0.11180  0.57600  0.43790  1.0000 -0.2451794249
C   C66       1.0  0.23350  0.54210  0.43490  1.0000 0.1659935611
C   C67       1.0  0.28860  0.51930  0.48550  1.0000 -0.2906961543
C   C68       1.0  0.22420  0.52700  0.53720  1.0000 0.1575411457
C   C69       1.0  0.10060  0.55910  0.53800  1.0000 -0.2403545988
C   C70       1.0  0.91030  0.61860  0.49150  1.0000 -0.6292514158
C   C71       1.0  0.29580  0.52540  0.37870  1.0000 -0.6115242121
C   C72       1.0  0.27960  0.49870  0.59110  1.0000 -0.6115242121
O   O1        1.0  0.50810  0.24330  0.50630  1.0000 -0.8704133758
O   O2        1.0  0.74640  0.21250  0.53400  1.0000 -0.8788381489
O   O3        1.0  0.54100  0.17970  0.59280  1.0000 -0.5811716271
O   O4        1.0  0.19640  0.94270  0.29240  1.0000 -0.9535961998
O   O5        1.0  0.39450  0.93500  0.35400  1.0000 -0.8626308282
O   O6        1.0  0.17960  0.89450  0.39190  1.0000 -0.8704133758
O   O7        1.0  0.10300  0.11120  0.61740  1.0000 -0.8788381489
O   O8        1.0  0.10240  0.02310  0.69120  1.0000 -0.9192720604
O   O9        1.0  0.31480  0.08380  0.66820  1.0000 -0.8626308282
O   O10       1.0  0.99190  0.75670  0.00630  1.0000 -0.8704133758
O   O11       1.0  0.75360  0.78750  0.03400  1.0000 -0.8788381489
O   O12       1.0  0.95900  0.82030  0.09280  1.0000 -0.5811716271
O   O13       1.0  0.30360  0.05730  0.79240  1.0000 -0.9535961998
O   O14       1.0  0.10550  0.06500  0.85400  1.0000 -0.8626308282
O   O15       1.0  0.32040  0.10550  0.89190  1.0000 -0.8704133758
O   O16       1.0  0.39700  0.88880  0.11740  1.0000 -0.8788381489
O   O17       1.0  0.39760  0.97690  0.19120  1.0000 -0.9192720604
O   O18       1.0  0.18520  0.91620  0.16820  1.0000 -0.8626308282
O   O19       1.0  0.49190  0.74330  0.99370  1.0000 -0.8704133758
O   O20       1.0  0.25360  0.71250  0.96600  1.0000 -0.8788381489
O   O21       1.0  0.45900  0.67970  0.90720  1.0000 -0.5811716271
O   O22       1.0  0.80360  0.44270  0.20760  1.0000 -0.9535961998
O   O23       1.0  0.60550  0.43500  0.14600  1.0000 -0.8626308282
O   O24       1.0  0.82040  0.39450  0.10810  1.0000 -0.8704133758
O   O25       1.0  0.89700  0.61120  0.88260  1.0000 -0.8788381489
O   O26       1.0  0.89760  0.52310  0.80880  1.0000 -0.9192720604
O   O27       1.0  0.68520  0.58380  0.83180  1.0000 -0.8626308282
O   O28       1.0  0.00810  0.25670  0.49370  1.0000 -0.8704133758
O   O29       1.0  0.24640  0.28750  0.46600  1.0000 -0.8788381489
O   O30       1.0  0.04100  0.32030  0.40720  1.0000 -0.5811716271
O   O31       1.0  0.69640  0.55730  0.70760  1.0000 -0.9535961998
O   O32       1.0  0.89450  0.56500  0.64600  1.0000 -0.8626308282
O   O33       1.0  0.67960  0.60550  0.60810  1.0000 -0.8704133758
O   O34       1.0  0.60300  0.38880  0.38260  1.0000 -0.8788381489
O   O35       1.0  0.60240  0.47690  0.30880  1.0000 -0.9192720604
O   O36       1.0  0.81480  0.41620  0.33180  1.0000 -0.8626308282
O   O37       1.0  0.49190  0.75670  0.49370  1.0000 -0.8704133758
O   O38       1.0  0.25360  0.78750  0.46600  1.0000 -0.8788381489
O   O39       1.0  0.45900  0.82030  0.40720  1.0000 -0.5811716271
O   O40       1.0  0.80360  0.05730  0.70760  1.0000 -0.9535961998
O   O41       1.0  0.60550  0.06500  0.64600  1.0000 -0.8626308282
O   O42       1.0  0.82040  0.10550  0.60810  1.0000 -0.8704133758
O   O43       1.0  0.89700  0.88880  0.38260  1.0000 -0.8788381489
O   O44       1.0  0.89760  0.97690  0.30880  1.0000 -0.9192720604
O   O45       1.0  0.68520  0.91620  0.33180  1.0000 -0.8626308282
O   O46       1.0  0.00810  0.24330  0.99370  1.0000 -0.8704133758
O   O47       1.0  0.24640  0.21250  0.96600  1.0000 -0.8704133758
O   O48       1.0  0.04100  0.17970  0.90720  1.0000 -0.5811716271
O   O49       1.0  0.69640  0.94270  0.20760  1.0000 -0.9535961998
O   O50       1.0  0.89450  0.93500  0.14600  1.0000 -0.8626308282
O   O51       1.0  0.67960  0.89450  0.10810  1.0000 -0.8704133758
O   O52       1.0  0.60300  0.11120  0.88260  1.0000 -0.8788381489
O   O53       1.0  0.60240  0.02310  0.80880  1.0000 -0.9192720604
O   O54       1.0  0.81480  0.08380  0.83180  1.0000 -0.8626308282
O   O55       1.0  0.50810  0.25670  0.00630  1.0000 -0.8704133758
O   O56       1.0  0.74640  0.28750  0.03400  1.0000 -0.8788381489
O   O57       1.0  0.54100  0.32030  0.09280  1.0000 -0.5811716271
O   O58       1.0  0.19640  0.55730  0.79240  1.0000 -0.9535961998
O   O59       1.0  0.39450  0.56500  0.85400  1.0000 -0.8626308282
O   O60       1.0  0.17960  0.60550  0.89190  1.0000 -0.8704133758
O   O61       1.0  0.10300  0.38880  0.11740  1.0000 -0.8788381489
O   O62       1.0  0.10240  0.47690  0.19120  1.0000 -0.9192720604
O   O63       1.0  0.31480  0.41620  0.16820  1.0000 -0.8626308282
O   O64       1.0  0.99190  0.74330  0.50630  1.0000 -0.8704133758
O   O65       1.0  0.75360  0.71250  0.53400  1.0000 -0.8788381489
O   O66       1.0  0.95900  0.67970  0.59280  1.0000 -0.5811716271
O   O67       1.0  0.30360  0.44270  0.29240  1.0000 -0.9535961998
O   O68       1.0  0.10550  0.43500  0.35400  1.0000 -0.8626308282
O   O69       1.0  0.32040  0.39450  0.39190  1.0000 -0.8704133758
O   O70       1.0  0.39700  0.61120  0.61740  1.0000 -0.8788381489
O   O71       1.0  0.39760  0.52310  0.69120  1.0000 -0.9192720604
O   O72       1.0  0.18520  0.58380  0.66820  1.0000 -0.8626308282
