# DDEC6 charges by PACMAN v1.1 (https://github.com/mtap-research/PACMAN-charge/)
data_2018[Sm][nan]3[ASR]1
_chemical_formula_sum              "Sm4 H36 C68 N4 O24"
_cell_length_a       6.87
_cell_length_b       13.86
_cell_length_c       17.71
_cell_angle_alpha    88.64
_cell_angle_beta     79.67
_cell_angle_gamma    84.36

_symmetry_space_group_name_H-M    "P 1"
_symmetry_Int_Tables_number       1

loop_
  _symmetry_equiv_pos_as_xyz
  'x, y, z'

loop_
  _atom_site_type_symbol
  _atom_site_label
  _atom_site_symmetry_multiplicity
  _atom_site_fract_x
  _atom_site_fract_y
  _atom_site_fract_z
  _atom_site_occupancy
  _atom_site_charge
Sm  Sm1       1.0  0.71363  0.63158  0.46055  1.0000 2.105497468
Sm  Sm2       1.0  0.28637  0.36842  0.53945  1.0000 2.105497468
Sm  Sm3       1.0  0.31350  0.36973  0.95584  1.0000 2.1182552462
Sm  Sm4       1.0  0.68650  0.63027  0.04416  1.0000 2.1182552462
H   H1        1.0  0.37945  0.76857  0.62202  1.0000 0.1092614805
H   H2        1.0  0.62055  0.23143  0.37798  1.0000 0.1092614805
H   H3        1.0  0.77378  0.15330  0.50732  1.0000 0.1243444791
H   H4        1.0  0.22622  0.84670  0.49268  1.0000 0.1243444791
H   H5        1.0  0.64121  0.99269  0.49532  1.0000 0.0994028936
H   H6        1.0  0.35879  0.00731  0.50468  1.0000 0.0994028936
H   H7        1.0  0.90758  0.71522  0.87541  1.0000 0.0927626913
H   H8        1.0  0.09242  0.28478  0.12459  1.0000 0.0927626913
H   H9        1.0  0.39745  0.79334  0.86441  1.0000 0.1092614805
H   H10       1.0  0.60255  0.20666  0.13559  1.0000 0.1092614805
H   H11       1.0  0.52223  0.90413  0.61512  1.0000 0.1092614805
H   H12       1.0  0.47777  0.09587  0.38488  1.0000 0.1092614805
H   H13       1.0  0.20245  0.93545  0.84984  1.0000 0.0994028936
H   H14       1.0  0.79755  0.06455  0.15016  1.0000 0.0994028936
H   H15       1.0  0.48096  0.08611  0.60494  1.0000 0.0816159545
H   H16       1.0  0.51904  0.91389  0.39506  1.0000 0.0816159545
H   H17       1.0  0.85910  0.72544  0.63557  1.0000 0.1092614805
H   H18       1.0  0.14090  0.27456  0.36443  1.0000 0.1092614805
H   H19       1.0  0.97776  0.45097  0.74579  1.0000 0.1305198593
H   H20       1.0  0.02224  0.54903  0.25421  1.0000 0.1305198593
H   H21       1.0  0.70592  0.85368  0.87845  1.0000 0.1092614805
H   H22       1.0  0.29408  0.14632  0.12155  1.0000 0.1092614805
H   H23       1.0  0.78087  0.15362  0.99227  1.0000 0.1305198593
H   H24       1.0  0.21913  0.84638  0.00773  1.0000 0.1305198593
H   H25       1.0  0.36787  0.00550  0.98233  1.0000 0.0994028936
H   H26       1.0  0.63213  0.99450  0.01767  1.0000 0.0994028936
H   H27       1.0  0.94806  0.04436  0.64841  1.0000 0.0737720465
H   H28       1.0  0.05194  0.95564  0.35159  1.0000 0.0737720465
H   H29       1.0  0.43594  0.51230  0.76100  1.0000 0.1243444791
H   H30       1.0  0.56406  0.48770  0.23900  1.0000 0.1243444791
H   H31       1.0  0.00408  0.86388  0.64038  1.0000 0.0994028936
H   H32       1.0  0.99592  0.13612  0.35962  1.0000 0.0994028936
H   H33       1.0  0.17431  0.11361  0.82769  1.0000 0.0816159545
H   H34       1.0  0.82569  0.88639  0.17231  1.0000 0.0816159545
H   H35       1.0  0.65361  0.03525  0.87304  1.0000 0.0816159545
H   H36       1.0  0.34639  0.96475  0.12696  1.0000 0.0816159545
C   C1        1.0  0.40810  0.57296  0.61492  1.0000 0.6537927872
C   C2        1.0  0.59190  0.42704  0.38508  1.0000 0.6537927872
C   C3        1.0  0.45591  0.60076  0.89528  1.0000 0.6702470517
C   C4        1.0  0.54409  0.39924  0.10472  1.0000 0.6702470517
C   C5        1.0  0.38922  0.73582  0.67839  1.0000 -0.1176815333
C   C6        1.0  0.61078  0.26418  0.32161  1.0000 -0.1176815333
C   C7        1.0  0.08388  0.08883  0.98623  1.0000 -0.0201910597
C   C8        1.0  0.91612  0.91117  0.01377  1.0000 -0.0201910597
C   C9        1.0  0.87220  0.08578  0.50395  1.0000 -0.0942380467
C   C10       1.0  0.12780  0.91422  0.49605  1.0000 -0.0942380467
C   C11       1.0  0.88426  0.73462  0.75581  1.0000 0.0588629207
C   C12       1.0  0.11574  0.26538  0.24419  1.0000 0.0588629207
C   C13       1.0  0.38315  0.79521  0.74239  1.0000 0.0510752236
C   C14       1.0  0.61685  0.20479  0.25761  1.0000 0.0510752236
C   C15       1.0  0.79881  0.99682  0.49760  1.0000 -0.0983806391
C   C16       1.0  0.20119  0.00318  0.50240  1.0000 -0.0983806391
C   C17       1.0  0.90710  0.67863  0.82125  1.0000 -0.1095749366
C   C18       1.0  0.09290  0.32137  0.17875  1.0000 -0.1095749366
C   C19       1.0  0.97367  0.51900  0.88585  1.0000 0.6702470517
C   C20       1.0  0.02633  0.48100  0.11415  1.0000 0.6702470517
C   C21       1.0  0.42073  0.64816  0.82038  1.0000 -0.0473625103
C   C22       1.0  0.57927  0.35184  0.17962  1.0000 -0.0473625103
C   C23       1.0  0.85804  0.84203  0.75879  1.0000 0.0994028936
C   C24       1.0  0.14196  0.15797  0.24121  1.0000 0.0994028936
C   C25       1.0  0.92429  0.91006  0.49342  1.0000 -0.0201910597
C   C26       1.0  0.07571  0.08994  0.50658  1.0000 -0.0201910597
C   C27       1.0  0.39786  0.74990  0.81353  1.0000 -0.1176815333
C   C28       1.0  0.60214  0.25010  0.18647  1.0000 -0.1176815333
C   C29       1.0  0.91759  0.58391  0.68439  1.0000 -0.0599925017
C   C30       1.0  0.08241  0.41609  0.31561  1.0000 -0.0599925017
C   C31       1.0  0.44289  0.94761  0.66423  1.0000 -0.1815456787
C   C32       1.0  0.55711  0.05239  0.33577  1.0000 -0.1815456787
C   C33       1.0  0.26980  0.96457  0.79401  1.0000 -0.1743231753
C   C34       1.0  0.73020  0.03543  0.20599  1.0000 -0.1743231753
C   C35       1.0  0.36537  0.90275  0.73373  1.0000 0.0994028936
C   C36       1.0  0.63463  0.09725  0.26627  1.0000 0.0994028936
C   C37       1.0  0.40523  0.63425  0.68470  1.0000 -0.0413758533
C   C38       1.0  0.59477  0.36575  0.31530  1.0000 -0.0413758533
C   C39       1.0  0.42096  0.04896  0.65825  1.0000 0.0816159545
C   C40       1.0  0.57904  0.95104  0.34175  1.0000 0.0816159545
C   C41       1.0  0.88501  0.68507  0.68744  1.0000 -0.0983806391
C   C42       1.0  0.11499  0.31493  0.31256  1.0000 -0.0983806391
C   C43       1.0  0.91175  0.53174  0.61308  1.0000 0.6823386436
C   C44       1.0  0.08825  0.46826  0.38692  1.0000 0.6823386436
C   C45       1.0  0.95033  0.52961  0.74870  1.0000 -0.0749049971
C   C46       1.0  0.04967  0.47039  0.25130  1.0000 -0.0808138936
C   C47       1.0  0.76329  0.89253  0.82544  1.0000 -0.1815456787
C   C48       1.0  0.23671  0.10747  0.17456  1.0000 -0.1815456787
C   C49       1.0  0.87585  0.08597  0.99575  1.0000 -0.0942380467
C   C50       1.0  0.12415  0.91403  0.00425  1.0000 -0.0942380467
C   C51       1.0  0.17242  0.18373  0.97106  1.0000 0.5537683254
C   C52       1.0  0.82758  0.81627  0.02894  1.0000 0.5537683254
C   C53       1.0  0.20624  0.00209  0.99042  1.0000 -0.0983806391
C   C54       1.0  0.79376  0.99791  0.00958  1.0000 -0.0983806391
C   C55       1.0  0.94215  0.57762  0.81727  1.0000 -0.0599925017
C   C56       1.0  0.05785  0.42238  0.18273  1.0000 -0.0599925017
C   C57       1.0  0.84833  0.81433  0.48172  1.0000 0.5565668231
C   C58       1.0  0.15167  0.18567  0.51828  1.0000 0.5565668231
C   C59       1.0  0.89304  0.99920  0.69787  1.0000 0.0994028936
C   C60       1.0  0.10696  0.00080  0.30213  1.0000 0.0994028936
C   C61       1.0  0.42078  0.59121  0.75603  1.0000 -0.0808138936
C   C62       1.0  0.57922  0.40879  0.24397  1.0000 -0.0808138936
C   C63       1.0  0.92483  0.89816  0.69372  1.0000 -0.1743231753
C   C64       1.0  0.07517  0.10184  0.30628  1.0000 -0.1743231753
C   C65       1.0  0.25258  0.06492  0.78191  1.0000 0.0927626913
C   C66       1.0  0.74742  0.93508  0.21809  1.0000 0.0994028936
C   C67       1.0  0.73361  0.99399  0.82296  1.0000 0.0927626913
C   C68       1.0  0.26639  0.00601  0.17704  1.0000 0.0927626913
N   N1        1.0  0.32510  0.10860  0.71512  1.0000 -0.2600881348
N   N2        1.0  0.67490  0.89140  0.28488  1.0000 -0.2600881348
N   N3        1.0  0.79719  0.04819  0.76081  1.0000 -0.2600881348
N   N4        1.0  0.20281  0.95181  0.23919  1.0000 -0.2600881348
O   O1        1.0  0.05523  0.26086  0.96446  1.0000 -0.6290274972
O   O2        1.0  0.94477  0.73914  0.03554  1.0000 -0.6290274972
O   O3        1.0  0.36156  0.18778  0.96523  1.0000 -0.6612664575
O   O4        1.0  0.63844  0.81222  0.03477  1.0000 -0.6612664575
O   O5        1.0  0.97487  0.74049  0.46475  1.0000 -0.6000840778
O   O6        1.0  0.02513  0.25951  0.53525  1.0000 -0.6000840778
O   O7        1.0  0.65928  0.80718  0.48740  1.0000 -0.6706321651
O   O8        1.0  0.34072  0.19282  0.51260  1.0000 -0.6706321651
O   O9        1.0  0.42591  0.61549  0.54858  1.0000 -0.716833126
O   O10       1.0  0.57409  0.38451  0.45142  1.0000 -0.716833126
O   O11       1.0  0.39100  0.48212  0.62362  1.0000 -0.6706321651
O   O12       1.0  0.60900  0.51788  0.37638  1.0000 -0.6706321651
O   O13       1.0  0.46200  0.50780  0.90192  1.0000 -0.7318769211
O   O14       1.0  0.53800  0.49220  0.09808  1.0000 -0.7318769211
O   O15       1.0  0.48543  0.65534  0.94880  1.0000 -0.6775650198
O   O16       1.0  0.51457  0.34466  0.05120  1.0000 -0.6775650198
O   O17       1.0  0.87893  0.55055  0.95119  1.0000 -0.7141561622
O   O18       1.0  0.12107  0.44945  0.04881  1.0000 -0.7141561622
O   O19       1.0  0.09084  0.44167  0.87776  1.0000 -0.6432499403
O   O20       1.0  0.90916  0.55833  0.12224  1.0000 -0.6432499403
O   O21       1.0  0.99693  0.44611  0.60324  1.0000 -0.6706321651
O   O22       1.0  0.00307  0.55389  0.39676  1.0000 -0.6706321651
O   O23       1.0  0.81324  0.57538  0.56546  1.0000 -0.7001474017
O   O24       1.0  0.18676  0.42462  0.43454  1.0000 -0.7001474017
