# DDEC6 charges by PACMAN v1.1 (https://github.com/mtap-research/PACMAN-charge/)
data_2018[YCu][nan]3[ASR]1
_chemical_formula_sum              "Y8 Cu4 H80 C208 N16 O64"
_cell_length_a       21.4599
_cell_length_b       21.4599
_cell_length_c       23.6853
_cell_angle_alpha    90
_cell_angle_beta     90
_cell_angle_gamma    90.9032

_symmetry_space_group_name_H-M    "P 1"
_symmetry_Int_Tables_number       1

loop_
  _symmetry_equiv_pos_as_xyz
  'x, y, z'

loop_
  _atom_site_type_symbol
  _atom_site_label
  _atom_site_symmetry_multiplicity
  _atom_site_fract_x
  _atom_site_fract_y
  _atom_site_fract_z
  _atom_site_occupancy
  _atom_site_charge
Y   Y1        1.0  0.37730  0.13696  0.94729  1.0000 1.7515019755
Y   Y2        1.0  0.12270  0.36304  0.44729  1.0000 1.7575513105
Y   Y3        1.0  0.36304  0.12270  0.55271  1.0000 1.7575513105
Y   Y4        1.0  0.13696  0.37730  0.05271  1.0000 1.7575513105
Y   Y5        1.0  0.62270  0.86304  0.05271  1.0000 1.7575513105
Y   Y6        1.0  0.87730  0.63696  0.55271  1.0000 1.7575513105
Y   Y7        1.0  0.63696  0.87730  0.44729  1.0000 1.7515019755
Y   Y8        1.0  0.86304  0.62270  0.94729  1.0000 1.7575513105
Cu  Cu1       1.0  0.62341  0.37659  0.26112  1.0000 0.6026253085
Cu  Cu2       1.0  0.87659  0.12341  0.76112  1.0000 0.6056128721
Cu  Cu3       1.0  0.12341  0.87659  0.23888  1.0000 0.6026253085
Cu  Cu4       1.0  0.37659  0.62341  0.73888  1.0000 0.6026253085
H   H1        1.0  0.48130  0.43750  0.10060  1.0000 0.136582888
H   H2        1.0  0.43170  0.23830  0.22400  1.0000 0.136582888
H   H3        1.0  0.48220  0.18900  0.30290  1.0000 0.1307037613
H   H4        1.0  0.68560  0.23260  0.42150  1.0000 0.136582888
H   H5        1.0  0.38730  0.40350  0.17740  1.0000 0.1215713079
H   H6        1.0  0.29390  0.30410  0.06370  1.0000 0.1307037613
H   H7        1.0  0.46870  0.25990  0.10520  1.0000 0.1307037613
H   H8        1.0  0.50730  0.21830  0.41550  1.0000 0.1307037613
H   H9        1.0  0.54760  0.04220  0.45600  1.0000 0.1459632571
H   H10       1.0  0.64870  0.13730  0.34000  1.0000 0.1307037613
H   H11       1.0  0.01870  0.06250  0.60060  1.0000 0.136582888
H   H12       1.0  0.06830  0.26170  0.72400  1.0000 0.136582888
H   H13       1.0  0.01780  0.31100  0.80290  1.0000 0.1307037613
H   H14       1.0  0.81440  0.26740  0.92150  1.0000 0.136582888
H   H15       1.0  0.11270  0.09650  0.67740  1.0000 0.1215713079
H   H16       1.0  0.20610  0.19590  0.56370  1.0000 0.1307037613
H   H17       1.0  0.03130  0.24010  0.60520  1.0000 0.1307037613
H   H18       1.0  0.99270  0.28170  0.91550  1.0000 0.1307037613
H   H19       1.0  0.95240  0.45780  0.95600  1.0000 0.1459632571
H   H20       1.0  0.85130  0.36270  0.84000  1.0000 0.1307037613
H   H21       1.0  0.06250  0.01870  0.39940  1.0000 0.136582888
H   H22       1.0  0.26170  0.06830  0.27600  1.0000 0.136582888
H   H23       1.0  0.31100  0.01780  0.19710  1.0000 0.1307037613
H   H24       1.0  0.26740  0.81440  0.07850  1.0000 0.136582888
H   H25       1.0  0.09650  0.11270  0.32260  1.0000 0.1215713079
H   H26       1.0  0.19590  0.20610  0.43630  1.0000 0.1307037613
H   H27       1.0  0.24010  0.03130  0.39480  1.0000 0.1307037613
H   H28       1.0  0.28170  0.99270  0.08450  1.0000 0.1307037613
H   H29       1.0  0.45780  0.95240  0.04400  1.0000 0.1459632571
H   H30       1.0  0.36270  0.85130  0.16000  1.0000 0.1307037613
H   H31       1.0  0.43750  0.48130  0.89940  1.0000 0.136582888
H   H32       1.0  0.23830  0.43170  0.77600  1.0000 0.136582888
H   H33       1.0  0.18900  0.48220  0.69710  1.0000 0.1307037613
H   H34       1.0  0.23260  0.68560  0.57850  1.0000 0.136582888
H   H35       1.0  0.40350  0.38730  0.82260  1.0000 0.1215713079
H   H36       1.0  0.30410  0.29390  0.93630  1.0000 0.1307037613
H   H37       1.0  0.25990  0.46870  0.89480  1.0000 0.1307037613
H   H38       1.0  0.21830  0.50730  0.58450  1.0000 0.1307037613
H   H39       1.0  0.04220  0.54760  0.54400  1.0000 0.1459632571
H   H40       1.0  0.13730  0.64870  0.66000  1.0000 0.1307037613
H   H41       1.0  0.51870  0.56250  0.89940  1.0000 0.136582888
H   H42       1.0  0.56830  0.76170  0.77600  1.0000 0.136582888
H   H43       1.0  0.51780  0.81100  0.69710  1.0000 0.1307037613
H   H44       1.0  0.31440  0.76740  0.57850  1.0000 0.136582888
H   H45       1.0  0.61270  0.59650  0.82260  1.0000 0.1215713079
H   H46       1.0  0.70610  0.69590  0.93630  1.0000 0.1307037613
H   H47       1.0  0.53130  0.74010  0.89480  1.0000 0.1307037613
H   H48       1.0  0.49270  0.78170  0.58450  1.0000 0.1307037613
H   H49       1.0  0.45240  0.95780  0.54400  1.0000 0.1459632571
H   H50       1.0  0.35130  0.86270  0.66000  1.0000 0.1307037613
H   H51       1.0  0.98130  0.93750  0.39940  1.0000 0.136582888
H   H52       1.0  0.93170  0.73830  0.27600  1.0000 0.136582888
H   H53       1.0  0.98220  0.68900  0.19710  1.0000 0.1307037613
H   H54       1.0  0.18560  0.73260  0.07850  1.0000 0.136582888
H   H55       1.0  0.88730  0.90350  0.32260  1.0000 0.1215713079
H   H56       1.0  0.79390  0.80410  0.43630  1.0000 0.1307037613
H   H57       1.0  0.96870  0.75990  0.39480  1.0000 0.1307037613
H   H58       1.0  0.00730  0.71830  0.08450  1.0000 0.1307037613
H   H59       1.0  0.04760  0.54220  0.04400  1.0000 0.1459632571
H   H60       1.0  0.14870  0.63730  0.16000  1.0000 0.1307037613
H   H61       1.0  0.93750  0.98130  0.60060  1.0000 0.136582888
H   H62       1.0  0.73830  0.93170  0.72400  1.0000 0.136582888
H   H63       1.0  0.68900  0.98220  0.80290  1.0000 0.1307037613
H   H64       1.0  0.73260  0.18560  0.92150  1.0000 0.136582888
H   H65       1.0  0.90350  0.88730  0.67740  1.0000 0.1215713079
H   H66       1.0  0.80410  0.79390  0.56370  1.0000 0.1307037613
H   H67       1.0  0.75990  0.96870  0.60520  1.0000 0.1307037613
H   H68       1.0  0.71830  0.00730  0.91550  1.0000 0.1307037613
H   H69       1.0  0.54220  0.04760  0.95600  1.0000 0.1459632571
H   H70       1.0  0.63730  0.14870  0.84000  1.0000 0.1307037613
H   H71       1.0  0.56250  0.51870  0.10060  1.0000 0.136582888
H   H72       1.0  0.76170  0.56830  0.22400  1.0000 0.136582888
H   H73       1.0  0.81100  0.51780  0.30290  1.0000 0.1307037613
H   H74       1.0  0.76740  0.31440  0.42150  1.0000 0.136582888
H   H75       1.0  0.59650  0.61270  0.17740  1.0000 0.1215713079
H   H76       1.0  0.69590  0.70610  0.06370  1.0000 0.1307037613
H   H77       1.0  0.74010  0.53130  0.10520  1.0000 0.1307037613
H   H78       1.0  0.78170  0.49270  0.41550  1.0000 0.1307037613
H   H79       1.0  0.95780  0.45240  0.45600  1.0000 0.1459632571
H   H80       1.0  0.86270  0.35130  0.34000  1.0000 0.1307037613
C   C1        1.0  0.51470  0.44050  0.12550  1.0000 -0.1768076272
C   C2        1.0  0.52744  0.39964  0.16950  1.0000 0.1818204854
C   C3        1.0  0.49192  0.34752  0.18340  1.0000 -0.0719586029
C   C4        1.0  0.50587  0.30647  0.22460  1.0000 0.1818204854
C   C5        1.0  0.46840  0.25200  0.24110  1.0000 -0.1497386801
C   C6        1.0  0.49624  0.22524  0.28510  1.0000 -0.1692121645
C   C7        1.0  0.55083  0.26003  0.30080  1.0000 0.1818204854
C   C8        1.0  0.59474  0.24408  0.33950  1.0000 -0.0719586029
C   C9        1.0  0.64766  0.27946  0.35200  1.0000 0.1818204854
C   C10       1.0  0.68875  0.26615  0.39670  1.0000 -0.1768076272
C   C11       1.0  0.43542  0.33382  0.14730  1.0000 0.0623295557
C   C12       1.0  0.38440  0.36940  0.15320  1.0000 -0.1317961888
C   C13       1.0  0.32770  0.35870  0.12550  1.0000 -0.0494579315
C   C14       1.0  0.32934  0.31106  0.08570  1.0000 -0.1003465923
C   C15       1.0  0.38050  0.27290  0.07640  1.0000 0.0061421264
C   C16       1.0  0.43410  0.28490  0.10920  1.0000 -0.1497386801
C   C17       1.0  0.57943  0.18745  0.37260  1.0000 0.0544655304
C   C18       1.0  0.53204  0.18352  0.41050  1.0000 -0.140859354
C   C19       1.0  0.51871  0.13169  0.44160  1.0000 0.003910923
C   C20       1.0  0.55602  0.07822  0.43550  1.0000 -0.1003465923
C   C21       1.0  0.60540  0.08160  0.39780  1.0000 0.003910923
C   C22       1.0  0.61609  0.13609  0.36600  1.0000 -0.1497386801
C   C23       1.0  0.27160  0.39480  0.13220  1.0000 0.5883035342
C   C24       1.0  0.38120  0.22120  0.03390  1.0000 0.5478386114
C   C25       1.0  0.46629  0.12909  0.48360  1.0000 0.5632537158
C   C26       1.0  0.64290  0.02290  0.39040  1.0000 0.5795769672
C   C27       1.0  0.98530  0.05950  0.62550  1.0000 -0.1768076272
C   C28       1.0  0.97256  0.10036  0.66950  1.0000 0.1818204854
C   C29       1.0  0.00808  0.15248  0.68340  1.0000 -0.0719586029
C   C30       1.0  0.99413  0.19353  0.72460  1.0000 0.1818204854
C   C31       1.0  0.03160  0.24800  0.74110  1.0000 -0.1497386801
C   C32       1.0  0.00376  0.27476  0.78510  1.0000 -0.1692121645
C   C33       1.0  0.94917  0.23997  0.80080  1.0000 0.1818204854
C   C34       1.0  0.90526  0.25592  0.83950  1.0000 -0.0719586029
C   C35       1.0  0.85234  0.22054  0.85200  1.0000 0.1818204854
C   C36       1.0  0.81125  0.23385  0.89670  1.0000 -0.1768076272
C   C37       1.0  0.06458  0.16618  0.64730  1.0000 0.0623295557
C   C38       1.0  0.11560  0.13060  0.65320  1.0000 -0.1317961888
C   C39       1.0  0.17230  0.14130  0.62550  1.0000 -0.0494579315
C   C40       1.0  0.17066  0.18894  0.58570  1.0000 -0.1003465923
C   C41       1.0  0.11950  0.22710  0.57640  1.0000 0.0061421264
C   C42       1.0  0.06590  0.21510  0.60920  1.0000 -0.1497386801
C   C43       1.0  0.92057  0.31255  0.87260  1.0000 0.0544655304
C   C44       1.0  0.96796  0.31648  0.91050  1.0000 -0.140859354
C   C45       1.0  0.98129  0.36831  0.94160  1.0000 0.003910923
C   C46       1.0  0.94398  0.42178  0.93550  1.0000 -0.1003465923
C   C47       1.0  0.89460  0.41840  0.89780  1.0000 0.003910923
C   C48       1.0  0.88391  0.36391  0.86600  1.0000 -0.1497386801
C   C49       1.0  0.22840  0.10520  0.63220  1.0000 0.5883035342
C   C50       1.0  0.11880  0.27880  0.53390  1.0000 0.5478386114
C   C51       1.0  0.03371  0.37091  0.98360  1.0000 0.5656031947
C   C52       1.0  0.85710  0.47710  0.89040  1.0000 0.5795769672
C   C53       1.0  0.05950  0.98530  0.37450  1.0000 -0.1768076272
C   C54       1.0  0.10036  0.97256  0.33050  1.0000 0.1818204854
C   C55       1.0  0.15248  0.00808  0.31660  1.0000 -0.0719586029
C   C56       1.0  0.19353  0.99413  0.27540  1.0000 0.1818204854
C   C57       1.0  0.24800  0.03160  0.25890  1.0000 -0.1497386801
C   C58       1.0  0.27476  0.00376  0.21490  1.0000 -0.1692121645
C   C59       1.0  0.23997  0.94917  0.19920  1.0000 0.1818204854
C   C60       1.0  0.25592  0.90526  0.16050  1.0000 -0.0719586029
C   C61       1.0  0.22054  0.85234  0.14800  1.0000 0.1818204854
C   C62       1.0  0.23385  0.81125  0.10330  1.0000 -0.1768076272
C   C63       1.0  0.16618  0.06458  0.35270  1.0000 0.0623295557
C   C64       1.0  0.13060  0.11560  0.34680  1.0000 -0.1317961888
C   C65       1.0  0.14130  0.17230  0.37450  1.0000 -0.0494579315
C   C66       1.0  0.18894  0.17066  0.41430  1.0000 -0.1003465923
C   C67       1.0  0.22710  0.11950  0.42360  1.0000 0.0061421264
C   C68       1.0  0.21510  0.06590  0.39080  1.0000 -0.1497386801
C   C69       1.0  0.31255  0.92057  0.12740  1.0000 0.0544655304
C   C70       1.0  0.31648  0.96796  0.08950  1.0000 -0.140859354
C   C71       1.0  0.36831  0.98129  0.05840  1.0000 0.0061421264
C   C72       1.0  0.42178  0.94398  0.06450  1.0000 -0.1003465923
C   C73       1.0  0.41840  0.89460  0.10220  1.0000 0.003910923
C   C74       1.0  0.36391  0.88391  0.13400  1.0000 -0.1497386801
C   C75       1.0  0.10520  0.22840  0.36780  1.0000 0.5883035342
C   C76       1.0  0.27880  0.11880  0.46610  1.0000 0.5478386114
C   C77       1.0  0.37091  0.03371  0.01640  1.0000 0.5632537158
C   C78       1.0  0.47710  0.85710  0.10960  1.0000 0.5795769672
C   C79       1.0  0.44050  0.51470  0.87450  1.0000 -0.1768076272
C   C80       1.0  0.39964  0.52744  0.83050  1.0000 0.1818204854
C   C81       1.0  0.34752  0.49192  0.81660  1.0000 -0.0719586029
C   C82       1.0  0.30647  0.50587  0.77540  1.0000 0.1854962091
C   C83       1.0  0.25200  0.46840  0.75890  1.0000 -0.1497386801
C   C84       1.0  0.22524  0.49624  0.71490  1.0000 -0.1692121645
C   C85       1.0  0.26003  0.55083  0.69920  1.0000 0.1818204854
C   C86       1.0  0.24408  0.59474  0.66050  1.0000 -0.0719586029
C   C87       1.0  0.27946  0.64766  0.64800  1.0000 0.1818204854
C   C88       1.0  0.26615  0.68875  0.60330  1.0000 -0.1768076272
C   C89       1.0  0.33382  0.43542  0.85270  1.0000 0.0651017929
C   C90       1.0  0.36940  0.38440  0.84680  1.0000 -0.1317961888
C   C91       1.0  0.35870  0.32770  0.87450  1.0000 -0.0494579315
C   C92       1.0  0.31106  0.32934  0.91430  1.0000 -0.1003465923
C   C93       1.0  0.27290  0.38050  0.92360  1.0000 0.0061421264
C   C94       1.0  0.28490  0.43410  0.89080  1.0000 -0.1497386801
C   C95       1.0  0.18745  0.57943  0.62740  1.0000 0.0623295557
C   C96       1.0  0.18352  0.53204  0.58950  1.0000 -0.140859354
C   C97       1.0  0.13169  0.51871  0.55840  1.0000 0.003910923
C   C98       1.0  0.07822  0.55602  0.56450  1.0000 -0.1003465923
C   C99       1.0  0.08160  0.60540  0.60220  1.0000 0.003910923
C   C100      1.0  0.13609  0.61609  0.63400  1.0000 -0.1497386801
C   C101      1.0  0.39480  0.27160  0.86780  1.0000 0.5883035342
C   C102      1.0  0.22120  0.38120  0.96610  1.0000 0.5478386114
C   C103      1.0  0.12909  0.46629  0.51640  1.0000 0.5632537158
C   C104      1.0  0.02290  0.64290  0.60960  1.0000 0.5795769672
C   C105      1.0  0.48530  0.55950  0.87450  1.0000 -0.1768076272
C   C106      1.0  0.47256  0.60036  0.83050  1.0000 0.1818204854
C   C107      1.0  0.50808  0.65248  0.81660  1.0000 -0.0719586029
C   C108      1.0  0.49413  0.69353  0.77540  1.0000 0.1818204854
C   C109      1.0  0.53160  0.74800  0.75890  1.0000 -0.1497386801
C   C110      1.0  0.50376  0.77476  0.71490  1.0000 -0.1692121645
C   C111      1.0  0.44917  0.73997  0.69920  1.0000 0.1818204854
C   C112      1.0  0.40526  0.75592  0.66050  1.0000 -0.0719586029
C   C113      1.0  0.35234  0.72054  0.64800  1.0000 0.1818204854
C   C114      1.0  0.31125  0.73385  0.60330  1.0000 -0.1768076272
C   C115      1.0  0.56458  0.66618  0.85270  1.0000 0.0623295557
C   C116      1.0  0.61560  0.63060  0.84680  1.0000 -0.1317961888
C   C117      1.0  0.67230  0.64130  0.87450  1.0000 -0.0494579315
C   C118      1.0  0.67066  0.68894  0.91430  1.0000 -0.1003465923
C   C119      1.0  0.61950  0.72710  0.92360  1.0000 0.0061421264
C   C120      1.0  0.56590  0.71510  0.89080  1.0000 -0.1497386801
C   C121      1.0  0.42057  0.81255  0.62740  1.0000 0.0544655304
C   C122      1.0  0.46796  0.81648  0.58950  1.0000 -0.140859354
C   C123      1.0  0.48129  0.86831  0.55840  1.0000 0.0061421264
C   C124      1.0  0.44398  0.92178  0.56450  1.0000 -0.1003465923
C   C125      1.0  0.39460  0.91840  0.60220  1.0000 0.003910923
C   C126      1.0  0.38391  0.86391  0.63400  1.0000 -0.1497386801
C   C127      1.0  0.72840  0.60520  0.86780  1.0000 0.5883035342
C   C128      1.0  0.61880  0.77880  0.96610  1.0000 0.5478386114
C   C129      1.0  0.53371  0.87091  0.51640  1.0000 0.5632537158
C   C130      1.0  0.35710  0.97710  0.60960  1.0000 0.5795769672
C   C131      1.0  0.01470  0.94050  0.37450  1.0000 -0.1768076272
C   C132      1.0  0.02744  0.89964  0.33050  1.0000 0.1818204854
C   C133      1.0  0.99192  0.84752  0.31660  1.0000 -0.0719586029
C   C134      1.0  0.00587  0.80647  0.27540  1.0000 0.1818204854
C   C135      1.0  0.96840  0.75200  0.25890  1.0000 -0.1497386801
C   C136      1.0  0.99624  0.72524  0.21490  1.0000 -0.1692121645
C   C137      1.0  0.05083  0.76003  0.19920  1.0000 0.1818204854
C   C138      1.0  0.09474  0.74408  0.16050  1.0000 -0.0719586029
C   C139      1.0  0.14766  0.77946  0.14800  1.0000 0.1818204854
C   C140      1.0  0.18875  0.76615  0.10330  1.0000 -0.1768076272
C   C141      1.0  0.93542  0.83382  0.35270  1.0000 0.0623295557
C   C142      1.0  0.88440  0.86940  0.34680  1.0000 -0.1317961888
C   C143      1.0  0.82770  0.85870  0.37450  1.0000 -0.0494579315
C   C144      1.0  0.82934  0.81106  0.41430  1.0000 -0.1003465923
C   C145      1.0  0.88050  0.77290  0.42360  1.0000 0.0061421264
C   C146      1.0  0.93410  0.78490  0.39080  1.0000 -0.1497386801
C   C147      1.0  0.07943  0.68745  0.12740  1.0000 0.0544655304
C   C148      1.0  0.03204  0.68352  0.08950  1.0000 -0.140859354
C   C149      1.0  0.01871  0.63169  0.05840  1.0000 0.003910923
C   C150      1.0  0.05602  0.57822  0.06450  1.0000 -0.1003465923
C   C151      1.0  0.10540  0.58160  0.10220  1.0000 0.003910923
C   C152      1.0  0.11609  0.63609  0.13400  1.0000 -0.140859354
C   C153      1.0  0.77160  0.89480  0.36780  1.0000 0.5883035342
C   C154      1.0  0.88120  0.72120  0.46610  1.0000 0.5478386114
C   C155      1.0  0.96629  0.62909  0.01640  1.0000 0.5632537158
C   C156      1.0  0.14290  0.52290  0.10960  1.0000 0.5795769672
C   C157      1.0  0.94050  0.01470  0.62550  1.0000 -0.1768076272
C   C158      1.0  0.89964  0.02744  0.66950  1.0000 0.1818204854
C   C159      1.0  0.84752  0.99192  0.68340  1.0000 -0.0761304443
C   C160      1.0  0.80647  0.00587  0.72460  1.0000 0.1818204854
C   C161      1.0  0.75200  0.96840  0.74110  1.0000 -0.1497386801
C   C162      1.0  0.72524  0.99624  0.78510  1.0000 -0.1692121645
C   C163      1.0  0.76003  0.05083  0.80080  1.0000 0.1818204854
C   C164      1.0  0.74408  0.09474  0.83950  1.0000 -0.0719586029
C   C165      1.0  0.77946  0.14766  0.85200  1.0000 0.1818204854
C   C166      1.0  0.76615  0.18875  0.89670  1.0000 -0.1768076272
C   C167      1.0  0.83382  0.93542  0.64730  1.0000 0.0623295557
C   C168      1.0  0.86940  0.88440  0.65320  1.0000 -0.1317961888
C   C169      1.0  0.85870  0.82770  0.62550  1.0000 -0.0494579315
C   C170      1.0  0.81106  0.82934  0.58570  1.0000 -0.1003465923
C   C171      1.0  0.77290  0.88050  0.57640  1.0000 0.0061421264
C   C172      1.0  0.78490  0.93410  0.60920  1.0000 -0.1497386801
C   C173      1.0  0.68745  0.07943  0.87260  1.0000 0.0623295557
C   C174      1.0  0.68352  0.03204  0.91050  1.0000 -0.140859354
C   C175      1.0  0.63169  0.01871  0.94160  1.0000 0.003910923
C   C176      1.0  0.57822  0.05602  0.93550  1.0000 -0.1003465923
C   C177      1.0  0.58160  0.10540  0.89780  1.0000 0.003910923
C   C178      1.0  0.63609  0.11609  0.86600  1.0000 -0.140859354
C   C179      1.0  0.89480  0.77160  0.63220  1.0000 0.5883035342
C   C180      1.0  0.72120  0.88120  0.53390  1.0000 0.5478386114
C   C181      1.0  0.62909  0.96629  0.98360  1.0000 0.5632537158
C   C182      1.0  0.52290  0.14290  0.89040  1.0000 0.5795769672
C   C183      1.0  0.55950  0.48530  0.12550  1.0000 -0.1768076272
C   C184      1.0  0.60036  0.47256  0.16950  1.0000 0.1818204854
C   C185      1.0  0.65248  0.50808  0.18340  1.0000 -0.0719586029
C   C186      1.0  0.69353  0.49413  0.22460  1.0000 0.1818204854
C   C187      1.0  0.74800  0.53160  0.24110  1.0000 -0.1497386801
C   C188      1.0  0.77476  0.50376  0.28510  1.0000 -0.1692121645
C   C189      1.0  0.73997  0.44917  0.30080  1.0000 0.1818204854
C   C190      1.0  0.75592  0.40526  0.33950  1.0000 -0.0719586029
C   C191      1.0  0.72054  0.35234  0.35200  1.0000 0.1818204854
C   C192      1.0  0.73385  0.31125  0.39670  1.0000 -0.1768076272
C   C193      1.0  0.66618  0.56458  0.14730  1.0000 0.0623295557
C   C194      1.0  0.63060  0.61560  0.15320  1.0000 -0.1317961888
C   C195      1.0  0.64130  0.67230  0.12550  1.0000 -0.0494579315
C   C196      1.0  0.68894  0.67066  0.08570  1.0000 -0.1003465923
C   C197      1.0  0.72710  0.61950  0.07640  1.0000 0.0061421264
C   C198      1.0  0.71510  0.56590  0.10920  1.0000 -0.1497386801
C   C199      1.0  0.81255  0.42057  0.37260  1.0000 0.0544655304
C   C200      1.0  0.81648  0.46796  0.41050  1.0000 -0.140859354
C   C201      1.0  0.86831  0.48129  0.44160  1.0000 0.003910923
C   C202      1.0  0.92178  0.44398  0.43550  1.0000 -0.1003465923
C   C203      1.0  0.91840  0.39460  0.39780  1.0000 0.003910923
C   C204      1.0  0.86391  0.38391  0.36600  1.0000 -0.1497386801
C   C205      1.0  0.60520  0.72840  0.13220  1.0000 0.5883035342
C   C206      1.0  0.77880  0.61880  0.03390  1.0000 0.5478386114
C   C207      1.0  0.87091  0.53371  0.48360  1.0000 0.5632537158
C   C208      1.0  0.97710  0.35710  0.39040  1.0000 0.5795769672
N   N1        1.0  0.55685  0.31085  0.26210  1.0000 -0.3621668488
N   N2        1.0  0.94315  0.18915  0.76210  1.0000 -0.3677567561
N   N3        1.0  0.18915  0.94315  0.23790  1.0000 -0.3621668488
N   N4        1.0  0.31085  0.55685  0.73790  1.0000 -0.3621668488
N   N5        1.0  0.44315  0.68915  0.73790  1.0000 -0.3621668488
N   N6        1.0  0.05685  0.81085  0.23790  1.0000 -0.3677567561
N   N7        1.0  0.81085  0.05685  0.76210  1.0000 -0.3621668488
N   N8        1.0  0.68915  0.44315  0.26210  1.0000 -0.3621668488
N   N9        1.0  0.58170  0.41830  0.19630  1.0000 -0.3677567561
N   N10       1.0  0.66580  0.33420  0.32540  1.0000 -0.3677567561
N   N11       1.0  0.91830  0.08170  0.69630  1.0000 -0.3677567561
N   N12       1.0  0.83420  0.16580  0.82540  1.0000 -0.3677567561
N   N13       1.0  0.08170  0.91830  0.30370  1.0000 -0.3677567561
N   N14       1.0  0.16580  0.83420  0.17460  1.0000 -0.3677567561
N   N15       1.0  0.41830  0.58170  0.80370  1.0000 -0.3677567561
N   N16       1.0  0.33420  0.66580  0.67460  1.0000 -0.3677567561
O   O1        1.0  0.27770  0.44730  0.15470  1.0000 -0.4009409328
O   O2        1.0  0.22359  0.37919  0.10560  1.0000 -0.6024060865
O   O3        1.0  0.32784  0.20906  0.01190  1.0000 -0.5717354734
O   O4        1.0  0.42795  0.19239  0.02150  1.0000 -0.5290183668
O   O5        1.0  0.43224  0.17704  0.49020  1.0000 -0.6067525168
O   O6        1.0  0.45225  0.07873  0.50710  1.0000 -0.5415779521
O   O7        1.0  0.63359  0.97915  0.41860  1.0000 -0.4821965416
O   O8        1.0  0.69070  0.02850  0.35680  1.0000 -0.4262281229
O   O9        1.0  0.22230  0.05270  0.65470  1.0000 -0.4056488295
O   O10       1.0  0.27641  0.12081  0.60560  1.0000 -0.6024060865
O   O11       1.0  0.17216  0.29094  0.51190  1.0000 -0.5717354734
O   O12       1.0  0.07205  0.30761  0.52150  1.0000 -0.5290183668
O   O13       1.0  0.06776  0.32296  0.99020  1.0000 -0.6067525168
O   O14       1.0  0.04775  0.42127  0.00710  1.0000 -0.5415779521
O   O15       1.0  0.86641  0.52085  0.91860  1.0000 -0.4821965416
O   O16       1.0  0.80930  0.47150  0.85680  1.0000 -0.4262281229
O   O17       1.0  0.05270  0.22230  0.34530  1.0000 -0.4056488295
O   O18       1.0  0.12081  0.27641  0.39440  1.0000 -0.6024060865
O   O19       1.0  0.29094  0.17216  0.48810  1.0000 -0.5717354734
O   O20       1.0  0.30761  0.07205  0.47850  1.0000 -0.5290183668
O   O21       1.0  0.32296  0.06776  0.00980  1.0000 -0.6067525168
O   O22       1.0  0.42127  0.04775  0.99290  1.0000 -0.5415779521
O   O23       1.0  0.52085  0.86641  0.08140  1.0000 -0.4857356369
O   O24       1.0  0.47150  0.80930  0.14320  1.0000 -0.4262281229
O   O25       1.0  0.44730  0.27770  0.84530  1.0000 -0.4056488295
O   O26       1.0  0.37919  0.22359  0.89440  1.0000 -0.6024060865
O   O27       1.0  0.20906  0.32784  0.98810  1.0000 -0.5717354734
O   O28       1.0  0.19239  0.42795  0.97850  1.0000 -0.5290183668
O   O29       1.0  0.17704  0.43224  0.50980  1.0000 -0.6067525168
O   O30       1.0  0.07873  0.45225  0.49290  1.0000 -0.5415779521
O   O31       1.0  0.97915  0.63359  0.58140  1.0000 -0.4821965416
O   O32       1.0  0.02850  0.69070  0.64320  1.0000 -0.4198796396
O   O33       1.0  0.72230  0.55270  0.84530  1.0000 -0.4009409328
O   O34       1.0  0.77641  0.62081  0.89440  1.0000 -0.6024060865
O   O35       1.0  0.67216  0.79094  0.98810  1.0000 -0.5717354734
O   O36       1.0  0.57205  0.80761  0.97850  1.0000 -0.5290183668
O   O37       1.0  0.56776  0.82296  0.50980  1.0000 -0.6067525168
O   O38       1.0  0.54775  0.92127  0.49290  1.0000 -0.5415779521
O   O39       1.0  0.36641  0.02085  0.58140  1.0000 -0.4857356369
O   O40       1.0  0.30930  0.97150  0.64320  1.0000 -0.4198796396
O   O41       1.0  0.77770  0.94730  0.34530  1.0000 -0.4009409328
O   O42       1.0  0.72359  0.87919  0.39440  1.0000 -0.6024060865
O   O43       1.0  0.82784  0.70906  0.48810  1.0000 -0.5717354734
O   O44       1.0  0.92795  0.69239  0.47850  1.0000 -0.5290183668
O   O45       1.0  0.93224  0.67704  0.00980  1.0000 -0.6067525168
O   O46       1.0  0.95225  0.57873  0.99290  1.0000 -0.5415779521
O   O47       1.0  0.13359  0.47915  0.08140  1.0000 -0.4857356369
O   O48       1.0  0.19070  0.52850  0.14320  1.0000 -0.4262281229
O   O49       1.0  0.94730  0.77770  0.65470  1.0000 -0.4009409328
O   O50       1.0  0.87919  0.72359  0.60560  1.0000 -0.6024060865
O   O51       1.0  0.70906  0.82784  0.51190  1.0000 -0.5717354734
O   O52       1.0  0.69239  0.92795  0.52150  1.0000 -0.5290183668
O   O53       1.0  0.67704  0.93224  0.99020  1.0000 -0.6067525168
O   O54       1.0  0.57873  0.95225  0.00710  1.0000 -0.5415779521
O   O55       1.0  0.47915  0.13359  0.91860  1.0000 -0.4821965416
O   O56       1.0  0.52850  0.19070  0.85680  1.0000 -0.4198796396
O   O57       1.0  0.55270  0.72230  0.15470  1.0000 -0.4009409328
O   O58       1.0  0.62081  0.77641  0.10560  1.0000 -0.6024060865
O   O59       1.0  0.79094  0.67216  0.01190  1.0000 -0.5717354734
O   O60       1.0  0.80761  0.57205  0.02150  1.0000 -0.5290183668
O   O61       1.0  0.82296  0.56776  0.49020  1.0000 -0.6067525168
O   O62       1.0  0.92127  0.54775  0.50710  1.0000 -0.5415779521
O   O63       1.0  0.02085  0.36641  0.41860  1.0000 -0.4821965416
O   O64       1.0  0.97150  0.30930  0.35680  1.0000 -0.4198796396
