# DDEC6 charges by PACMAN v1.1 (https://github.com/mtap-research/PACMAN-charge/)
data_2018[Zn][pth]3[ASR]2
_chemical_formula_sum              "Zn12 H168 C318 O48"
_cell_length_a       17.0482
_cell_length_b       17.0482
_cell_length_c       46.2316
_cell_angle_alpha    90
_cell_angle_beta     90
_cell_angle_gamma    120

_symmetry_space_group_name_H-M    "P 1"
_symmetry_Int_Tables_number       1

loop_
  _symmetry_equiv_pos_as_xyz
  'x, y, z'

loop_
  _atom_site_type_symbol
  _atom_site_label
  _atom_site_symmetry_multiplicity
  _atom_site_fract_x
  _atom_site_fract_y
  _atom_site_fract_z
  _atom_site_occupancy
  _atom_site_charge
Zn  Zn1       1.0  0.56460  0.33092  0.86847  1.0000 0.9042397946
Zn  Zn2       1.0  0.95675  0.47633  0.17524  1.0000 0.9335061719
Zn  Zn3       1.0  0.66908  0.23368  0.53514  1.0000 0.9042397946
Zn  Zn4       1.0  0.52367  0.48042  0.84191  1.0000 0.9335061719
Zn  Zn5       1.0  0.76632  0.43540  0.20180  1.0000 0.9042397946
Zn  Zn6       1.0  0.51958  0.04325  0.50857  1.0000 0.9335061719
Zn  Zn7       1.0  0.23368  0.66908  0.46486  1.0000 0.9042397946
Zn  Zn8       1.0  0.48042  0.52367  0.15810  1.0000 0.9335061719
Zn  Zn9       1.0  0.43540  0.76632  0.79820  1.0000 0.9042397946
Zn  Zn10      1.0  0.04325  0.51958  0.49143  1.0000 0.9335061719
Zn  Zn11      1.0  0.33092  0.56460  0.13153  1.0000 0.9042397946
Zn  Zn12      1.0  0.47633  0.95675  0.82476  1.0000 0.9335061719
H   H1        1.0  0.73319  0.29764  0.93660  1.0000 0.1189955875
H   H2        1.0  0.53943  0.05452  0.91014  1.0000 0.1189955875
H   H3        1.0  0.79040  0.23103  0.96694  1.0000 0.1189955875
H   H4        1.0  0.59162  0.98603  0.94337  1.0000 0.1189955875
H   H5        1.0  0.86629  0.14534  0.96667  1.0000 0.1189955875
H   H6        1.0  0.61839  0.95817  0.99279  1.0000 0.1283552019
H   H7        1.0  0.93211  0.08601  0.99560  1.0000 0.1189955875
H   H8        1.0  0.97254  0.98181  0.03112  1.0000 0.1189955875
H   H9        1.0  0.70416  0.75863  0.07203  1.0000 0.1189955875
H   H10       1.0  0.72428  0.01557  0.07033  1.0000 0.1283552019
H   H11       1.0  0.63925  0.74645  0.98627  1.0000 0.1189955875
H   H12       1.0  0.97333  0.88027  0.06271  1.0000 0.1118767896
H   H13       1.0  0.44108  0.77452  0.09240  1.0000 0.1283552019
H   H14       1.0  0.39131  0.65111  0.04828  1.0000 0.1283552019
H   H15       1.0  0.50571  0.90224  0.12121  1.0000 0.1118767896
H   H16       1.0  0.38402  0.56603  0.00896  1.0000 0.1118767896
H   H17       1.0  0.94833  0.73979  0.07480  1.0000 0.1118767896
H   H18       1.0  0.74077  0.72972  0.11731  1.0000 0.1189955875
H   H19       1.0  0.54445  0.04030  0.13345  1.0000 0.1189955875
H   H20       1.0  0.79298  0.09463  0.11134  1.0000 0.1189955875
H   H21       1.0  0.39417  0.46803  0.98370  1.0000 0.1118767896
H   H22       1.0  0.60217  0.67709  0.94459  1.0000 0.1118767896
H   H23       1.0  0.95741  0.64745  0.10938  1.0000 0.1189955875
H   H24       1.0  0.74567  0.63304  0.15138  1.0000 0.1283552019
H   H25       1.0  0.60425  0.17408  0.15824  1.0000 0.1283552019
H   H26       1.0  0.85328  0.23100  0.13502  1.0000 0.1189955875
H   H27       1.0  0.39432  0.37441  0.94889  1.0000 0.1283552019
H   H28       1.0  0.59526  0.58293  0.90805  1.0000 0.1118767896
H   H29       1.0  0.70236  0.43555  0.60327  1.0000 0.1189955875
H   H30       1.0  0.94548  0.48491  0.57681  1.0000 0.1189955875
H   H31       1.0  0.76897  0.55937  0.63360  1.0000 0.1189955875
H   H32       1.0  0.01397  0.60559  0.61003  1.0000 0.1189955875
H   H33       1.0  0.85466  0.72095  0.63333  1.0000 0.1189955875
H   H34       1.0  0.04183  0.66022  0.65946  1.0000 0.1283552019
H   H35       1.0  0.91399  0.84610  0.66226  1.0000 0.1189955875
H   H36       1.0  0.01819  0.99073  0.69779  1.0000 0.1189955875
H   H37       1.0  0.24137  0.94553  0.73870  1.0000 0.1189955875
H   H38       1.0  0.98443  0.70871  0.73700  1.0000 0.1283552019
H   H39       1.0  0.25355  0.89280  0.65294  1.0000 0.1189955875
H   H40       1.0  0.11973  0.09306  0.72938  1.0000 0.1118767896
H   H41       1.0  0.22548  0.66656  0.75906  1.0000 0.1283552019
H   H42       1.0  0.34889  0.74020  0.71495  1.0000 0.1283552019
H   H43       1.0  0.09776  0.60347  0.78787  1.0000 0.1118767896
H   H44       1.0  0.43397  0.81799  0.67563  1.0000 0.1118767896
H   H45       1.0  0.26021  0.20854  0.74147  1.0000 0.1118767896
H   H46       1.0  0.27028  0.01105  0.78397  1.0000 0.1189955875
H   H47       1.0  0.95970  0.50415  0.80012  1.0000 0.1189955875
H   H48       1.0  0.90537  0.69835  0.77800  1.0000 0.1189955875
H   H49       1.0  0.53197  0.92614  0.65036  1.0000 0.1118767896
H   H50       1.0  0.32291  0.92508  0.61125  1.0000 0.1118767896
H   H51       1.0  0.35255  0.30996  0.77604  1.0000 0.1189955875
H   H52       1.0  0.36696  0.11263  0.81805  1.0000 0.1283552019
H   H53       1.0  0.82592  0.43017  0.82491  1.0000 0.1283552019
H   H54       1.0  0.76900  0.62228  0.80169  1.0000 0.1189955875
H   H55       1.0  0.62559  0.01991  0.61555  1.0000 0.1283552019
H   H56       1.0  0.41707  0.01233  0.57472  1.0000 0.1118767896
H   H57       1.0  0.56445  0.26681  0.26993  1.0000 0.1189955875
H   H58       1.0  0.51509  0.46057  0.24347  1.0000 0.1189955875
H   H59       1.0  0.44063  0.20960  0.30027  1.0000 0.1189955875
H   H60       1.0  0.39441  0.40838  0.27670  1.0000 0.1118767896
H   H61       1.0  0.27905  0.13371  0.30000  1.0000 0.1189955875
H   H62       1.0  0.33978  0.38161  0.32612  1.0000 0.1283552019
H   H63       1.0  0.15390  0.06789  0.32893  1.0000 0.1189955875
H   H64       1.0  0.00927  0.02746  0.36445  1.0000 0.1189955875
H   H65       1.0  0.05447  0.29584  0.40536  1.0000 0.1189955875
H   H66       1.0  0.29129  0.27572  0.40366  1.0000 0.1283552019
H   H67       1.0  0.10720  0.36075  0.31960  1.0000 0.1189955875
H   H68       1.0  0.90694  0.02667  0.39604  1.0000 0.1118767896
H   H69       1.0  0.33344  0.55892  0.42573  1.0000 0.1283552019
H   H70       1.0  0.25980  0.60869  0.38161  1.0000 0.1283552019
H   H71       1.0  0.39653  0.49429  0.45454  1.0000 0.1118767896
H   H72       1.0  0.18201  0.61598  0.34229  1.0000 0.1118767896
H   H73       1.0  0.79146  0.05167  0.40813  1.0000 0.1118767896
H   H74       1.0  0.98895  0.25923  0.45064  1.0000 0.1189955875
H   H75       1.0  0.49585  0.45555  0.46678  1.0000 0.1189955875
H   H76       1.0  0.30165  0.20702  0.44467  1.0000 0.1189955875
H   H77       1.0  0.07386  0.60583  0.31703  1.0000 0.1118767896
H   H78       1.0  0.07492  0.39783  0.27792  1.0000 0.1118767896
H   H79       1.0  0.69004  0.04259  0.44271  1.0000 0.1189955875
H   H80       1.0  0.88737  0.25433  0.48471  1.0000 0.1283552019
H   H81       1.0  0.56983  0.39575  0.49157  1.0000 0.1283552019
H   H82       1.0  0.37772  0.14672  0.46835  1.0000 0.1189955875
H   H83       1.0  0.98009  0.60568  0.28222  1.0000 0.1283552019
H   H84       1.0  0.98767  0.40474  0.24138  1.0000 0.1118767896
H   H85       1.0  0.43555  0.70236  0.39674  1.0000 0.1189955875
H   H86       1.0  0.48491  0.94548  0.42320  1.0000 0.1189955875
H   H87       1.0  0.55937  0.76897  0.36640  1.0000 0.1189955875
H   H88       1.0  0.60559  0.01397  0.38997  1.0000 0.1189955875
H   H89       1.0  0.72095  0.85466  0.36667  1.0000 0.1189955875
H   H90       1.0  0.66022  0.04183  0.34054  1.0000 0.1283552019
H   H91       1.0  0.84610  0.91399  0.33774  1.0000 0.1189955875
H   H92       1.0  0.99073  0.01819  0.30222  1.0000 0.1189955875
H   H93       1.0  0.94553  0.24137  0.26131  1.0000 0.1189955875
H   H94       1.0  0.70871  0.98443  0.26300  1.0000 0.1283552019
H   H95       1.0  0.89280  0.25355  0.34707  1.0000 0.1189955875
H   H96       1.0  0.09306  0.11973  0.27063  1.0000 0.1118767896
H   H97       1.0  0.66656  0.22548  0.24094  1.0000 0.1283552019
H   H98       1.0  0.74020  0.34889  0.28506  1.0000 0.1283552019
H   H99       1.0  0.60347  0.09776  0.21213  1.0000 0.1118767896
H   H100      1.0  0.81799  0.43397  0.32438  1.0000 0.1118767896
H   H101      1.0  0.20854  0.26021  0.25854  1.0000 0.1118767896
H   H102      1.0  0.01105  0.27028  0.21602  1.0000 0.1189955875
H   H103      1.0  0.50415  0.95970  0.19989  1.0000 0.1189955875
H   H104      1.0  0.69835  0.90537  0.22200  1.0000 0.1189955875
H   H105      1.0  0.92614  0.53197  0.34963  1.0000 0.1118767896
H   H106      1.0  0.92508  0.32291  0.38875  1.0000 0.1118767896
H   H107      1.0  0.30996  0.35255  0.22395  1.0000 0.1189955875
H   H108      1.0  0.11263  0.36696  0.18196  1.0000 0.1283552019
H   H109      1.0  0.43017  0.82592  0.17510  1.0000 0.1283552019
H   H110      1.0  0.62228  0.76900  0.19832  1.0000 0.1189955875
H   H111      1.0  0.01991  0.62559  0.38444  1.0000 0.1283552019
H   H112      1.0  0.01233  0.41707  0.42529  1.0000 0.1118767896
H   H113      1.0  0.26681  0.56445  0.73007  1.0000 0.1189955875
H   H114      1.0  0.46057  0.51509  0.75653  1.0000 0.1189955875
H   H115      1.0  0.20960  0.44063  0.69973  1.0000 0.1189955875
H   H116      1.0  0.40838  0.39441  0.72330  1.0000 0.1189955875
H   H117      1.0  0.13371  0.27905  0.70000  1.0000 0.1189955875
H   H118      1.0  0.38161  0.33978  0.67388  1.0000 0.1283552019
H   H119      1.0  0.06789  0.15390  0.67107  1.0000 0.1189955875
H   H120      1.0  0.02746  0.00927  0.63555  1.0000 0.1189955875
H   H121      1.0  0.29584  0.05447  0.59464  1.0000 0.1189955875
H   H122      1.0  0.27572  0.29129  0.59634  1.0000 0.1283552019
H   H123      1.0  0.36075  0.10720  0.68040  1.0000 0.1189955875
H   H124      1.0  0.02667  0.90694  0.60396  1.0000 0.1118767896
H   H125      1.0  0.55892  0.33344  0.57427  1.0000 0.1283552019
H   H126      1.0  0.60869  0.25980  0.61839  1.0000 0.1283552019
H   H127      1.0  0.49429  0.39653  0.54546  1.0000 0.1118767896
H   H128      1.0  0.61598  0.18201  0.65771  1.0000 0.1118767896
H   H129      1.0  0.05167  0.79146  0.59187  1.0000 0.1118767896
H   H130      1.0  0.25923  0.98895  0.54936  1.0000 0.1189955875
H   H131      1.0  0.45555  0.49585  0.53322  1.0000 0.1189955875
H   H132      1.0  0.20702  0.30165  0.55533  1.0000 0.1189955875
H   H133      1.0  0.60583  0.07386  0.68297  1.0000 0.1118767896
H   H134      1.0  0.39783  0.07492  0.72208  1.0000 0.1118767896
H   H135      1.0  0.04259  0.69004  0.55729  1.0000 0.1189955875
H   H136      1.0  0.25433  0.88737  0.51529  1.0000 0.1283552019
H   H137      1.0  0.39575  0.56983  0.50843  1.0000 0.1283552019
H   H138      1.0  0.14672  0.37772  0.53165  1.0000 0.1189955875
H   H139      1.0  0.60568  0.98009  0.71778  1.0000 0.1283552019
H   H140      1.0  0.40474  0.98767  0.75862  1.0000 0.1118767896
H   H141      1.0  0.29764  0.73319  0.06340  1.0000 0.1189955875
H   H142      1.0  0.05452  0.53943  0.08986  1.0000 0.1189955875
H   H143      1.0  0.23103  0.79040  0.03306  1.0000 0.1189955875
H   H144      1.0  0.98603  0.59162  0.05663  1.0000 0.1189955875
H   H145      1.0  0.14534  0.86629  0.03333  1.0000 0.1189955875
H   H146      1.0  0.95817  0.61839  0.00721  1.0000 0.1283552019
H   H147      1.0  0.08601  0.93211  0.00440  1.0000 0.1283552019
H   H148      1.0  0.98181  0.97254  0.96888  1.0000 0.1189955875
H   H149      1.0  0.75863  0.70416  0.92797  1.0000 0.1189955875
H   H150      1.0  0.01557  0.72428  0.92967  1.0000 0.1283552019
H   H151      1.0  0.74645  0.63925  0.01373  1.0000 0.1189955875
H   H152      1.0  0.88027  0.97333  0.93729  1.0000 0.1118767896
H   H153      1.0  0.77452  0.44108  0.90760  1.0000 0.1283552019
H   H154      1.0  0.65111  0.39131  0.95172  1.0000 0.1283552019
H   H155      1.0  0.90224  0.50571  0.87879  1.0000 0.1118767896
H   H156      1.0  0.56603  0.38402  0.99104  1.0000 0.1118767896
H   H157      1.0  0.73979  0.94833  0.92520  1.0000 0.1118767896
H   H158      1.0  0.72972  0.74077  0.88269  1.0000 0.1189955875
H   H159      1.0  0.04030  0.54445  0.86655  1.0000 0.1189955875
H   H160      1.0  0.09463  0.79298  0.88866  1.0000 0.1189955875
H   H161      1.0  0.46803  0.39417  0.01630  1.0000 0.1118767896
H   H162      1.0  0.67709  0.60217  0.05541  1.0000 0.1118767896
H   H163      1.0  0.64745  0.95741  0.89062  1.0000 0.1189955875
H   H164      1.0  0.63304  0.74567  0.84862  1.0000 0.1283552019
H   H165      1.0  0.17408  0.60425  0.84176  1.0000 0.1283552019
H   H166      1.0  0.23100  0.85328  0.86498  1.0000 0.1189955875
H   H167      1.0  0.37441  0.39432  0.05111  1.0000 0.1283552019
H   H168      1.0  0.58293  0.59526  0.09195  1.0000 0.1118767896
C   C1        1.0  0.60000  0.22890  0.89970  1.0000 0.5435725262
C   C2        1.0  0.63340  0.18400  0.91969  1.0000 -0.0324963638
C   C3        1.0  0.70580  0.23490  0.93717  1.0000 -0.0881625776
C   C4        1.0  0.58950  0.09010  0.92169  1.0000 -0.0836054524
C   C5        1.0  0.73940  0.19500  0.95580  1.0000 -0.1495093015
C   C6        1.0  0.62160  0.04870  0.94151  1.0000 -0.1583210501
C   C7        1.0  0.69710  0.10170  0.95785  1.0000 0.0713033926
C   C8        1.0  0.73570  0.05780  0.97698  1.0000 0.0713033926
C   C9        1.0  0.82980  0.09490  0.97800  1.0000 -0.1583210501
C   C10       1.0  0.68100  0.98340  0.99338  1.0000 -0.189420685
C   C11       1.0  0.86940  0.05980  0.99498  1.0000 -0.1495093015
C   C12       1.0  0.72030  0.94570  0.01112  1.0000 0.017120761
C   C13       1.0  0.81380  0.98310  0.01153  1.0000 0.0110674702
C   C14       1.0  0.67410  0.86850  0.03271  1.0000 0.0332550957
C   C15       1.0  0.83590  0.92810  0.03118  1.0000 0.0110674702
C   C16       1.0  0.75590  0.86100  0.04292  1.0000 0.0110674702
C   C17       1.0  0.63230  0.89040  0.05823  1.0000 0.017120761
C   C18       1.0  0.59480  0.77920  0.02228  1.0000 0.017120761
C   C19       1.0  0.91860  0.93620  0.03890  1.0000 -0.1404052756
C   C20       1.0  0.75770  0.80210  0.06338  1.0000 -0.189420685
C   C21       1.0  0.54510  0.81990  0.06386  1.0000 0.017120761
C   C22       1.0  0.66800  0.96640  0.07497  1.0000 -0.189420685
C   C23       1.0  0.58990  0.72730  0.99861  1.0000 -0.1974378442
C   C24       1.0  0.52120  0.75090  0.04140  1.0000 0.017120761
C   C25       1.0  0.91840  0.87620  0.05796  1.0000 -0.1495093015
C   C26       1.0  0.83970  0.80830  0.07089  1.0000 0.0713033926
C   C27       1.0  0.49800  0.82300  0.08794  1.0000 -0.121895668
C   C28       1.0  0.62110  0.97130  0.09901  1.0000 0.0713033926
C   C29       1.0  0.50880  0.64470  0.99341  1.0000 0.0713033926
C   C30       1.0  0.44110  0.67030  0.03612  1.0000 -0.1280480539
C   C31       1.0  0.84550  0.74800  0.09248  1.0000 0.0713033926
C   C32       1.0  0.53700  0.89940  0.10514  1.0000 -0.1495093015
C   C33       1.0  0.65990  0.05690  0.11732  1.0000 0.0815725598
C   C34       1.0  0.43760  0.62000  0.01242  1.0000 -0.1404052756
C   C35       1.0  0.50270  0.58510  0.96859  1.0000 0.0815725598
C   C36       1.0  0.90840  0.72050  0.09035  1.0000 -0.1655504494
C   C37       1.0  0.78510  0.71330  0.11565  1.0000 -0.1495093015
C   C38       1.0  0.60670  0.07960  0.13304  1.0000 -0.1583210501
C   C39       1.0  0.75490  0.11250  0.11977  1.0000 -0.1495093015
C   C40       1.0  0.43710  0.49140  0.96898  1.0000 -0.1495093015
C   C41       1.0  0.55960  0.61570  0.94566  1.0000 -0.1404052756
C   C42       1.0  0.91320  0.66390  0.11119  1.0000 -0.0881625776
C   C43       1.0  0.78770  0.65550  0.13640  1.0000 -0.0881625776
C   C44       1.0  0.64290  0.15960  0.14840  1.0000 -0.0836054524
C   C45       1.0  0.79080  0.19280  0.13467  1.0000 -0.0881625776
C   C46       1.0  0.43680  0.43580  0.94794  1.0000 -0.0881625776
C   C47       1.0  0.55680  0.55950  0.92391  1.0000 -0.121895668
C   C48       1.0  0.85530  0.63200  0.13413  1.0000 -0.0364459035
C   C49       1.0  0.73450  0.21830  0.14952  1.0000 -0.0610870932
C   C50       1.0  0.49510  0.46590  0.92594  1.0000 -0.0215194653
C   C51       1.0  0.85640  0.56710  0.15559  1.0000 0.6011910647
C   C52       1.0  0.77630  0.30570  0.16453  1.0000 0.5942829758
C   C53       1.0  0.49920  0.40480  0.90301  1.0000 0.567527325
C   C54       1.0  0.77110  0.37110  0.56637  1.0000 0.5435725262
C   C55       1.0  0.81600  0.44940  0.58635  1.0000 -0.0324963638
C   C56       1.0  0.76510  0.47090  0.60384  1.0000 -0.0881625776
C   C57       1.0  0.90990  0.49940  0.58835  1.0000 -0.0836054524
C   C58       1.0  0.80500  0.54440  0.62247  1.0000 -0.1495093015
C   C59       1.0  0.95130  0.57290  0.60818  1.0000 -0.1583210501
C   C60       1.0  0.89830  0.59540  0.62452  1.0000 0.0713033926
C   C61       1.0  0.94220  0.67790  0.64365  1.0000 0.0713033926
C   C62       1.0  0.90510  0.73490  0.64467  1.0000 -0.1583210501
C   C63       1.0  0.01660  0.69760  0.66004  1.0000 -0.189420685
C   C64       1.0  0.94020  0.80960  0.66165  1.0000 -0.1495093015
C   C65       1.0  0.05430  0.77460  0.67778  1.0000 0.017120761
C   C66       1.0  0.01690  0.83070  0.67819  1.0000 0.0110674702
C   C67       1.0  0.13150  0.80560  0.69937  1.0000 0.0332550957
C   C68       1.0  0.07190  0.90780  0.69785  1.0000 0.0110674702
C   C69       1.0  0.13900  0.89490  0.70959  1.0000 0.0110674702
C   C70       1.0  0.10960  0.74190  0.72490  1.0000 0.017120761
C   C71       1.0  0.22080  0.81560  0.68895  1.0000 0.017120761
C   C72       1.0  0.06380  0.98240  0.70557  1.0000 -0.1404052756
C   C73       1.0  0.19790  0.95560  0.73005  1.0000 -0.189420685
C   C74       1.0  0.18010  0.72520  0.73052  1.0000 0.017120761
C   C75       1.0  0.03360  0.70160  0.74164  1.0000 -0.189420685
C   C76       1.0  0.27270  0.86260  0.66527  1.0000 -0.1974378442
C   C77       1.0  0.24910  0.77030  0.70807  1.0000 0.017120761
C   C78       1.0  0.12380  0.04220  0.72463  1.0000 -0.1495093015
C   C79       1.0  0.19170  0.03140  0.73756  1.0000 0.0713033926
C   C80       1.0  0.17700  0.67500  0.75460  1.0000 -0.121895668
C   C81       1.0  0.02870  0.64980  0.76568  1.0000 0.0713033926
C   C82       1.0  0.35530  0.86410  0.66007  1.0000 0.0713033926
C   C83       1.0  0.32970  0.77080  0.70279  1.0000 -0.1280480539
C   C84       1.0  0.25200  0.09750  0.75914  1.0000 0.0713033926
C   C85       1.0  0.10060  0.63760  0.77180  1.0000 -0.1495093015
C   C86       1.0  0.94310  0.60300  0.78399  1.0000 0.0815725598
C   C87       1.0  0.38000  0.81760  0.67909  1.0000 -0.1404052756
C   C88       1.0  0.41490  0.91760  0.63526  1.0000 0.0815725598
C   C89       1.0  0.27950  0.18790  0.75701  1.0000 -0.1655504494
C   C90       1.0  0.28670  0.07180  0.78231  1.0000 -0.1495093015
C   C91       1.0  0.92040  0.52710  0.79970  1.0000 -0.1583210501
C   C92       1.0  0.88750  0.64240  0.78643  1.0000 -0.1495093015
C   C93       1.0  0.50860  0.94570  0.63565  1.0000 -0.1495093015
C   C94       1.0  0.38430  0.94390  0.61233  1.0000 -0.1404052756
C   C95       1.0  0.33610  0.24930  0.77785  1.0000 -0.0881625776
C   C96       1.0  0.34450  0.13220  0.80307  1.0000 -0.0881625776
C   C97       1.0  0.84040  0.48330  0.81507  1.0000 -0.0836054524
C   C98       1.0  0.80720  0.59800  0.80134  1.0000 -0.0881625776
C   C99       1.0  0.56420  0.00100  0.61460  1.0000 -0.0881625776
C   C100      1.0  0.44050  0.99730  0.59057  1.0000 -0.121895668
C   C101      1.0  0.36800  0.22330  0.80080  1.0000 -0.0364459035
C   C102      1.0  0.78170  0.51620  0.81619  1.0000 -0.0610870932
C   C103      1.0  0.53410  0.02920  0.59261  1.0000 -0.0215194653
C   C104      1.0  0.43290  0.28930  0.82226  1.0000 0.6011910647
C   C105      1.0  0.69430  0.47060  0.83120  1.0000 0.5942829758
C   C106      1.0  0.59520  0.09440  0.56968  1.0000 0.567527325
C   C107      1.0  0.62890  0.40000  0.23303  1.0000 0.5435725262
C   C108      1.0  0.55060  0.36660  0.25302  1.0000 -0.0324963638
C   C109      1.0  0.52910  0.29420  0.27050  1.0000 -0.0881625776
C   C110      1.0  0.50060  0.41050  0.25502  1.0000 -0.0836054524
C   C111      1.0  0.45560  0.26060  0.28913  1.0000 -0.1495093015
C   C112      1.0  0.42710  0.37840  0.27484  1.0000 -0.1583210501
C   C113      1.0  0.40460  0.30290  0.29118  1.0000 0.0713033926
C   C114      1.0  0.32210  0.26430  0.31031  1.0000 0.0713033926
C   C115      1.0  0.26510  0.17020  0.31133  1.0000 -0.1583210501
C   C116      1.0  0.30240  0.31900  0.32671  1.0000 -0.189420685
C   C117      1.0  0.19040  0.13060  0.32831  1.0000 -0.1495093015
C   C118      1.0  0.22540  0.27970  0.34445  1.0000 0.017120761
C   C119      1.0  0.16930  0.18620  0.34486  1.0000 0.0110674702
C   C120      1.0  0.19440  0.32590  0.36604  1.0000 0.0332550957
C   C121      1.0  0.09220  0.16410  0.36451  1.0000 0.0110674702
C   C122      1.0  0.10510  0.24410  0.37625  1.0000 0.0110674702
C   C123      1.0  0.25810  0.36770  0.39156  1.0000 0.017120761
C   C124      1.0  0.18440  0.40520  0.35561  1.0000 0.017120761
C   C125      1.0  0.01760  0.08140  0.37223  1.0000 -0.1404052756
C   C126      1.0  0.04440  0.24230  0.39671  1.0000 -0.189420685
C   C127      1.0  0.27480  0.45490  0.39719  1.0000 0.017120761
C   C128      1.0  0.29840  0.33200  0.40830  1.0000 -0.189420685
C   C129      1.0  0.13740  0.41010  0.33194  1.0000 -0.1974378442
C   C130      1.0  0.22970  0.47880  0.37473  1.0000 0.017120761
C   C131      1.0  0.95780  0.08160  0.39129  1.0000 -0.1495093015
C   C132      1.0  0.96860  0.16030  0.40422  1.0000 0.0713033926
C   C133      1.0  0.32500  0.50200  0.42127  1.0000 -0.121895668
C   C134      1.0  0.35020  0.37890  0.43234  1.0000 0.0713033926
C   C135      1.0  0.13590  0.49120  0.32674  1.0000 0.0713033926
C   C136      1.0  0.22920  0.55890  0.36945  1.0000 -0.1280480539
C   C137      1.0  0.90250  0.15450  0.42581  1.0000 0.0713033926
C   C138      1.0  0.36240  0.46300  0.43847  1.0000 -0.1495093015
C   C139      1.0  0.39700  0.34010  0.45065  1.0000 0.0815725598
C   C140      1.0  0.18240  0.56240  0.34575  1.0000 -0.1404052756
C   C141      1.0  0.08240  0.49730  0.30192  1.0000 0.0815725598
C   C142      1.0  0.81210  0.09160  0.42368  1.0000 -0.1655504494
C   C143      1.0  0.92820  0.21490  0.44898  1.0000 -0.1495093015
C   C144      1.0  0.47290  0.39330  0.46637  1.0000 -0.1583210501
C   C145      1.0  0.35760  0.24510  0.45310  1.0000 -0.1495093015
C   C146      1.0  0.05430  0.56290  0.30231  1.0000 -0.1495093015
C   C147      1.0  0.05610  0.44040  0.27899  1.0000 -0.1404052756
C   C148      1.0  0.75070  0.08680  0.44452  1.0000 -0.0881625776
C   C149      1.0  0.86780  0.21230  0.46973  1.0000 -0.0881625776
C   C150      1.0  0.51670  0.35710  0.48173  1.0000 -0.0836054524
C   C151      1.0  0.40200  0.20920  0.46800  1.0000 -0.0881625776
C   C152      1.0  0.99900  0.56320  0.28127  1.0000 -0.0881625776
C   C153      1.0  0.00270  0.44320  0.25724  1.0000 -0.121895668
C   C154      1.0  0.77670  0.14470  0.46746  1.0000 -0.0364459035
C   C155      1.0  0.48380  0.26550  0.48285  1.0000 -0.0610870932
C   C156      1.0  0.97080  0.50490  0.25927  1.0000 -0.0215194653
C   C157      1.0  0.71070  0.14360  0.48892  1.0000 0.6011910647
C   C158      1.0  0.52940  0.22370  0.49786  1.0000 0.5942829758
C   C159      1.0  0.90560  0.50080  0.23634  1.0000 0.567527325
C   C160      1.0  0.37110  0.77110  0.43364  1.0000 0.5435725262
C   C161      1.0  0.44940  0.81600  0.41364  1.0000 -0.0324963638
C   C162      1.0  0.47090  0.76510  0.39616  1.0000 -0.0881625776
C   C163      1.0  0.49940  0.90990  0.41165  1.0000 -0.0836054524
C   C164      1.0  0.54440  0.80500  0.37754  1.0000 -0.1495093015
C   C165      1.0  0.57290  0.95130  0.39183  1.0000 -0.1583210501
C   C166      1.0  0.59540  0.89830  0.37549  1.0000 0.0713033926
C   C167      1.0  0.67790  0.94220  0.35635  1.0000 0.0713033926
C   C168      1.0  0.73490  0.90510  0.35534  1.0000 -0.1583210501
C   C169      1.0  0.69760  0.01660  0.33996  1.0000 -0.189420685
C   C170      1.0  0.80960  0.94020  0.33836  1.0000 -0.1495093015
C   C171      1.0  0.77460  0.05430  0.32221  1.0000 0.017120761
C   C172      1.0  0.83070  0.01690  0.32181  1.0000 0.0110674702
C   C173      1.0  0.80560  0.13150  0.30062  1.0000 0.0332550957
C   C174      1.0  0.90780  0.07190  0.30216  1.0000 0.0110674702
C   C175      1.0  0.89490  0.13900  0.29042  1.0000 0.0110674702
C   C176      1.0  0.74190  0.10960  0.27510  1.0000 0.017120761
C   C177      1.0  0.81560  0.22080  0.31106  1.0000 0.017120761
C   C178      1.0  0.98240  0.06380  0.29444  1.0000 -0.1404052756
C   C179      1.0  0.95560  0.19790  0.26996  1.0000 -0.189420685
C   C180      1.0  0.72520  0.18010  0.26948  1.0000 0.017120761
C   C181      1.0  0.70160  0.03360  0.25837  1.0000 -0.189420685
C   C182      1.0  0.86260  0.27270  0.33472  1.0000 -0.1974378442
C   C183      1.0  0.77030  0.24910  0.29194  1.0000 0.017120761
C   C184      1.0  0.04220  0.12380  0.27537  1.0000 -0.1495093015
C   C185      1.0  0.03140  0.19170  0.26244  1.0000 0.0713033926
C   C186      1.0  0.67500  0.17700  0.24540  1.0000 -0.121895668
C   C187      1.0  0.64980  0.02870  0.23433  1.0000 0.0713033926
C   C188      1.0  0.86410  0.35530  0.33992  1.0000 0.0713033926
C   C189      1.0  0.77080  0.32970  0.29722  1.0000 -0.1280480539
C   C190      1.0  0.09750  0.25200  0.24086  1.0000 0.0713033926
C   C191      1.0  0.63760  0.10060  0.22820  1.0000 -0.1495093015
C   C192      1.0  0.60300  0.94310  0.21602  1.0000 0.0815725598
C   C193      1.0  0.81760  0.38000  0.32092  1.0000 -0.1404052756
C   C194      1.0  0.91760  0.41490  0.36474  1.0000 0.0815725598
C   C195      1.0  0.18790  0.27950  0.24299  1.0000 -0.1655504494
C   C196      1.0  0.07180  0.28670  0.21769  1.0000 -0.1495093015
C   C197      1.0  0.52710  0.92040  0.20030  1.0000 -0.1583210501
C   C198      1.0  0.64240  0.88750  0.21357  1.0000 -0.1495093015
C   C199      1.0  0.94570  0.50860  0.36436  1.0000 -0.1495093015
C   C200      1.0  0.94390  0.38430  0.38768  1.0000 -0.1404052756
C   C201      1.0  0.24930  0.33610  0.22215  1.0000 -0.0881625776
C   C202      1.0  0.13220  0.34450  0.19693  1.0000 -0.0881625776
C   C203      1.0  0.48330  0.84040  0.18493  1.0000 -0.0836054524
C   C204      1.0  0.59800  0.80720  0.19867  1.0000 -0.0881625776
C   C205      1.0  0.00100  0.56420  0.38539  1.0000 -0.0881625776
C   C206      1.0  0.99730  0.44050  0.40943  1.0000 -0.121895668
C   C207      1.0  0.22330  0.36800  0.19920  1.0000 -0.0364459035
C   C208      1.0  0.51620  0.78170  0.18382  1.0000 -0.0610870932
C   C209      1.0  0.02920  0.53410  0.40740  1.0000 -0.0215194653
C   C210      1.0  0.28930  0.43290  0.17774  1.0000 0.6011910647
C   C211      1.0  0.47060  0.69430  0.16881  1.0000 0.5942829758
C   C212      1.0  0.09440  0.59520  0.43033  1.0000 0.567527325
C   C213      1.0  0.40000  0.62890  0.76697  1.0000 0.5435725262
C   C214      1.0  0.36660  0.55060  0.74698  1.0000 -0.0324963638
C   C215      1.0  0.29420  0.52910  0.72950  1.0000 -0.0881625776
C   C216      1.0  0.41050  0.50060  0.74498  1.0000 -0.0836054524
C   C217      1.0  0.26060  0.45560  0.71087  1.0000 -0.1495093015
C   C218      1.0  0.37840  0.42710  0.72516  1.0000 -0.1583210501
C   C219      1.0  0.30290  0.40460  0.70882  1.0000 0.0713033926
C   C220      1.0  0.26430  0.32210  0.68969  1.0000 0.0713033926
C   C221      1.0  0.17020  0.26510  0.68867  1.0000 -0.1583210501
C   C222      1.0  0.31900  0.30240  0.67329  1.0000 -0.189420685
C   C223      1.0  0.13060  0.19040  0.67169  1.0000 -0.1495093015
C   C224      1.0  0.27970  0.22540  0.65555  1.0000 0.017120761
C   C225      1.0  0.18620  0.16930  0.65514  1.0000 0.0110674702
C   C226      1.0  0.32590  0.19440  0.63396  1.0000 0.0332550957
C   C227      1.0  0.16410  0.09220  0.63549  1.0000 0.0110674702
C   C228      1.0  0.24410  0.10510  0.62375  1.0000 0.0110674702
C   C229      1.0  0.36770  0.25810  0.60844  1.0000 0.017120761
C   C230      1.0  0.40520  0.18440  0.64439  1.0000 0.017120761
C   C231      1.0  0.08140  0.01760  0.62777  1.0000 -0.1404052756
C   C232      1.0  0.24230  0.04440  0.60329  1.0000 -0.189420685
C   C233      1.0  0.45490  0.27480  0.60281  1.0000 0.017120761
C   C234      1.0  0.33200  0.29840  0.59170  1.0000 -0.189420685
C   C235      1.0  0.41010  0.13740  0.66806  1.0000 -0.1974378442
C   C236      1.0  0.47880  0.22970  0.62527  1.0000 0.017120761
C   C237      1.0  0.08160  0.95780  0.60871  1.0000 -0.1495093015
C   C238      1.0  0.16030  0.96860  0.59578  1.0000 0.0713033926
C   C239      1.0  0.50200  0.32500  0.57873  1.0000 -0.121895668
C   C240      1.0  0.37890  0.35020  0.56766  1.0000 0.0713033926
C   C241      1.0  0.49120  0.13590  0.67326  1.0000 0.0713033926
C   C242      1.0  0.55890  0.22920  0.63055  1.0000 -0.1280480539
C   C243      1.0  0.15450  0.90250  0.57419  1.0000 0.0713033926
C   C244      1.0  0.46300  0.36240  0.56153  1.0000 -0.1495093015
C   C245      1.0  0.34010  0.39700  0.54935  1.0000 0.0815725598
C   C246      1.0  0.56240  0.18240  0.65425  1.0000 -0.1404052756
C   C247      1.0  0.49730  0.08240  0.69808  1.0000 0.0815725598
C   C248      1.0  0.09160  0.81210  0.57632  1.0000 -0.1655504494
C   C249      1.0  0.21490  0.92820  0.55102  1.0000 -0.1495093015
C   C250      1.0  0.39330  0.47290  0.53363  1.0000 -0.1583210501
C   C251      1.0  0.24510  0.35760  0.54690  1.0000 -0.1495093015
C   C252      1.0  0.56290  0.05430  0.69769  1.0000 -0.1495093015
C   C253      1.0  0.44040  0.05610  0.72101  1.0000 -0.1404052756
C   C254      1.0  0.08680  0.75070  0.55548  1.0000 -0.0881625776
C   C255      1.0  0.21230  0.86780  0.53027  1.0000 -0.0881625776
C   C256      1.0  0.35710  0.51670  0.51827  1.0000 -0.0836054524
C   C257      1.0  0.20920  0.40200  0.53200  1.0000 -0.0881625776
C   C258      1.0  0.56320  0.99900  0.71873  1.0000 -0.0881625776
C   C259      1.0  0.44320  0.00270  0.74276  1.0000 -0.121895668
C   C260      1.0  0.14470  0.77670  0.53254  1.0000 -0.0364459035
C   C261      1.0  0.26550  0.48380  0.51715  1.0000 -0.0610870932
C   C262      1.0  0.50490  0.97080  0.74073  1.0000 -0.0215194653
C   C263      1.0  0.14360  0.71070  0.51108  1.0000 0.6011910647
C   C264      1.0  0.22370  0.52940  0.50214  1.0000 0.5942829758
C   C265      1.0  0.50080  0.90560  0.76366  1.0000 0.567527325
C   C266      1.0  0.22890  0.60000  0.10030  1.0000 0.5435725262
C   C267      1.0  0.18400  0.63340  0.08031  1.0000 -0.0324963638
C   C268      1.0  0.23490  0.70580  0.06283  1.0000 -0.0881625776
C   C269      1.0  0.09010  0.58950  0.07831  1.0000 -0.0836054524
C   C270      1.0  0.19500  0.73940  0.04420  1.0000 -0.1495093015
C   C271      1.0  0.04870  0.62160  0.05849  1.0000 -0.1583210501
C   C272      1.0  0.10170  0.69710  0.04215  1.0000 0.0713033926
C   C273      1.0  0.05780  0.73570  0.02302  1.0000 0.0713033926
C   C274      1.0  0.09490  0.82980  0.02200  1.0000 -0.1583210501
C   C275      1.0  0.98340  0.68100  0.00662  1.0000 -0.189420685
C   C276      1.0  0.05980  0.86940  0.00502  1.0000 -0.1495093015
C   C277      1.0  0.94570  0.72030  0.98888  1.0000 0.017120761
C   C278      1.0  0.98310  0.81380  0.98847  1.0000 0.0110674702
C   C279      1.0  0.86850  0.67410  0.96729  1.0000 0.0332550957
C   C280      1.0  0.92810  0.83590  0.96882  1.0000 0.0110674702
C   C281      1.0  0.86100  0.75590  0.95708  1.0000 0.0110674702
C   C282      1.0  0.89040  0.63230  0.94177  1.0000 0.017120761
C   C283      1.0  0.77920  0.59480  0.97772  1.0000 0.017120761
C   C284      1.0  0.93620  0.91860  0.96110  1.0000 -0.1404052756
C   C285      1.0  0.80210  0.75770  0.93662  1.0000 -0.189420685
C   C286      1.0  0.81990  0.54510  0.93614  1.0000 0.017120761
C   C287      1.0  0.96640  0.66800  0.92503  1.0000 -0.189420685
C   C288      1.0  0.72730  0.58990  0.00139  1.0000 -0.1974378442
C   C289      1.0  0.75090  0.52120  0.95860  1.0000 0.017120761
C   C290      1.0  0.87620  0.91840  0.94204  1.0000 -0.1495093015
C   C291      1.0  0.80830  0.83970  0.92911  1.0000 0.0713033926
C   C292      1.0  0.82300  0.49800  0.91206  1.0000 -0.121895668
C   C293      1.0  0.97130  0.62110  0.90099  1.0000 0.0713033926
C   C294      1.0  0.64470  0.50880  0.00659  1.0000 0.0713033926
C   C295      1.0  0.67030  0.44110  0.96388  1.0000 -0.1280480539
C   C296      1.0  0.74800  0.84550  0.90752  1.0000 0.0713033926
C   C297      1.0  0.89940  0.53700  0.89486  1.0000 -0.1495093015
C   C298      1.0  0.05690  0.65990  0.88268  1.0000 0.0815725598
C   C299      1.0  0.62000  0.43760  0.98758  1.0000 -0.1404052756
C   C300      1.0  0.58510  0.50270  0.03141  1.0000 0.0815725598
C   C301      1.0  0.72050  0.90840  0.90965  1.0000 -0.1655504494
C   C302      1.0  0.71330  0.78510  0.88435  1.0000 -0.1495093015
C   C303      1.0  0.07960  0.60670  0.86696  1.0000 -0.1583210501
C   C304      1.0  0.11250  0.75490  0.88023  1.0000 -0.1495093015
C   C305      1.0  0.49140  0.43710  0.03102  1.0000 -0.1495093015
C   C306      1.0  0.61570  0.55960  0.05434  1.0000 -0.1404052756
C   C307      1.0  0.66390  0.91320  0.88881  1.0000 -0.0881625776
C   C308      1.0  0.65550  0.78770  0.86360  1.0000 -0.0881625776
C   C309      1.0  0.15960  0.64290  0.85160  1.0000 -0.0836054524
C   C310      1.0  0.19280  0.79080  0.86533  1.0000 -0.0881625776
C   C311      1.0  0.43580  0.43680  0.05206  1.0000 -0.0881625776
C   C312      1.0  0.55950  0.55680  0.07609  1.0000 -0.121895668
C   C313      1.0  0.63200  0.85530  0.86587  1.0000 -0.0364459035
C   C314      1.0  0.21830  0.73450  0.85048  1.0000 -0.0610870932
C   C315      1.0  0.46590  0.49510  0.07406  1.0000 -0.0215194653
C   C316      1.0  0.56710  0.85640  0.84441  1.0000 0.6011910647
C   C317      1.0  0.30570  0.77630  0.83547  1.0000 0.5942829758
C   C318      1.0  0.40480  0.49920  0.09699  1.0000 0.567527325
O   O1        1.0  0.54770  0.43540  0.88144  1.0000 -0.5450875749
O   O2        1.0  0.46840  0.26280  0.84014  1.0000 -0.5083704183
O   O3        1.0  0.45560  0.32040  0.90736  1.0000 -0.5033263007
O   O4        1.0  0.55180  0.18940  0.87912  1.0000 -0.4881925921
O   O5        1.0  0.62560  0.31130  0.90251  1.0000 -0.5083704183
O   O6        1.0  0.67470  0.39790  0.84396  1.0000 -0.5224866261
O   O7        1.0  0.92700  0.55830  0.15477  1.0000 -0.5818425208
O   O8        1.0  0.86160  0.35140  0.16482  1.0000 -0.5721993834
O   O9        1.0  0.56460  0.11230  0.54810  1.0000 -0.5450875749
O   O10       1.0  0.73720  0.20560  0.50680  1.0000 -0.5083704183
O   O11       1.0  0.67960  0.13520  0.57403  1.0000 -0.5033263007
O   O12       1.0  0.81060  0.36240  0.54578  1.0000 -0.4881925921
O   O13       1.0  0.68870  0.31430  0.56917  1.0000 -0.5083704183
O   O14       1.0  0.60210  0.27680  0.51062  1.0000 -0.5224866261
O   O15       1.0  0.44170  0.36870  0.82144  1.0000 -0.5818425208
O   O16       1.0  0.64860  0.51020  0.83149  1.0000 -0.5721993834
O   O17       1.0  0.88770  0.45230  0.21477  1.0000 -0.5450875749
O   O18       1.0  0.79440  0.53160  0.17347  1.0000 -0.5083704183
O   O19       1.0  0.86480  0.54440  0.24069  1.0000 -0.5033263007
O   O20       1.0  0.63760  0.44820  0.21245  1.0000 -0.4881925921
O   O21       1.0  0.68570  0.37440  0.23584  1.0000 -0.5083704183
O   O22       1.0  0.72320  0.32530  0.17729  1.0000 -0.5224866261
O   O23       1.0  0.63130  0.07300  0.48810  1.0000 -0.5818425208
O   O24       1.0  0.48980  0.13840  0.49815  1.0000 -0.5721993834
O   O25       1.0  0.11230  0.56460  0.45189  1.0000 -0.5450875749
O   O26       1.0  0.20560  0.73720  0.49319  1.0000 -0.5083704183
O   O27       1.0  0.13520  0.67960  0.42598  1.0000 -0.5033263007
O   O28       1.0  0.36240  0.81060  0.45422  1.0000 -0.4881925921
O   O29       1.0  0.31430  0.68870  0.43083  1.0000 -0.5083704183
O   O30       1.0  0.27680  0.60210  0.48938  1.0000 -0.5224866261
O   O31       1.0  0.36870  0.44170  0.17857  1.0000 -0.5818425208
O   O32       1.0  0.51020  0.64860  0.16851  1.0000 -0.5721993834
O   O33       1.0  0.45230  0.88770  0.78523  1.0000 -0.5450875749
O   O34       1.0  0.53160  0.79440  0.82653  1.0000 -0.5083704183
O   O35       1.0  0.54440  0.86480  0.75931  1.0000 -0.5033263007
O   O36       1.0  0.44820  0.63760  0.78755  1.0000 -0.4881925921
O   O37       1.0  0.37440  0.68570  0.76416  1.0000 -0.5083704183
O   O38       1.0  0.32530  0.72320  0.82271  1.0000 -0.5224866261
O   O39       1.0  0.07300  0.63130  0.51190  1.0000 -0.5818425208
O   O40       1.0  0.13840  0.48980  0.50185  1.0000 -0.5721993834
O   O41       1.0  0.43540  0.54770  0.11856  1.0000 -0.5450875749
O   O42       1.0  0.26280  0.46840  0.15986  1.0000 -0.5083704183
O   O43       1.0  0.32040  0.45560  0.09264  1.0000 -0.5033263007
O   O44       1.0  0.18940  0.55180  0.12088  1.0000 -0.4881925921
O   O45       1.0  0.31130  0.62560  0.09749  1.0000 -0.5083704183
O   O46       1.0  0.39790  0.67470  0.15604  1.0000 -0.5224866261
O   O47       1.0  0.55830  0.92700  0.84523  1.0000 -0.5818425208
O   O48       1.0  0.35140  0.86160  0.83518  1.0000 -0.5721993834
