# DDEC6 charges by PACMAN v1.1 (https://github.com/mtap-research/PACMAN-charge/)
data_2018[NiCo][scu]3[ASR]3
_chemical_formula_sum              "Co4 Ni2 P8 H48 C88 N8 O24"
_cell_length_a       21.98
_cell_length_b       21.98
_cell_length_c       8.96
_cell_angle_alpha    90
_cell_angle_beta     90
_cell_angle_gamma    90

_symmetry_space_group_name_H-M    "P 1"
_symmetry_Int_Tables_number       1

loop_
  _symmetry_equiv_pos_as_xyz
  'x, y, z'

loop_
  _atom_site_type_symbol
  _atom_site_label
  _atom_site_symmetry_multiplicity
  _atom_site_fract_x
  _atom_site_fract_y
  _atom_site_fract_z
  _atom_site_occupancy
  _atom_site_charge
Co  Co1       1.0  0.00000  0.50000  0.92750  1.0000 1.2467702287
Co  Co2       1.0  0.50000  0.00000  0.07250  1.0000 1.2467702287
Co  Co3       1.0  0.00000  0.50000  0.42750  1.0000 1.2467702287
Co  Co4       1.0  0.50000  0.00000  0.57250  1.0000 1.2467702287
Ni  Ni1       1.0  0.50000  0.50000  0.00000  1.0000 0.3794713277
Ni  Ni2       1.0  0.50000  0.50000  0.50000  1.0000 0.3794713277
P   P1        1.0  0.92360  0.58010  0.18250  1.0000 1.3226771462
P   P2        1.0  0.07640  0.41990  0.18250  1.0000 1.3226771462
P   P3        1.0  0.41990  0.92360  0.81750  1.0000 1.3226771462
P   P4        1.0  0.58010  0.07640  0.81750  1.0000 1.3226771462
P   P5        1.0  0.92360  0.41990  0.68250  1.0000 1.3226771462
P   P6        1.0  0.07640  0.58010  0.68250  1.0000 1.3226771462
P   P7        1.0  0.41990  0.07640  0.31750  1.0000 1.3226771462
P   P8        1.0  0.58010  0.92360  0.31750  1.0000 1.3226771462
H   H1        1.0  0.57470  0.71180  0.88010  1.0000 0.1392977891
H   H2        1.0  0.66980  0.65550  0.94330  1.0000 0.1392977891
H   H3        1.0  0.75220  0.49900  0.89660  1.0000 0.1220314797
H   H4        1.0  0.85520  0.50930  0.96380  1.0000 0.1533296961
H   H5        1.0  0.80840  0.63030  0.28110  1.0000 0.1392977891
H   H6        1.0  0.70420  0.61190  0.23950  1.0000 0.1220314797
H   H7        1.0  0.42530  0.28820  0.88010  1.0000 0.1392977891
H   H8        1.0  0.33020  0.34450  0.94330  1.0000 0.1392977891
H   H9        1.0  0.24780  0.50100  0.89660  1.0000 0.1220314797
H   H10       1.0  0.14480  0.49070  0.96380  1.0000 0.1533296961
H   H11       1.0  0.19160  0.36970  0.28110  1.0000 0.1392977891
H   H12       1.0  0.29580  0.38810  0.23950  1.0000 0.1220314797
H   H13       1.0  0.28820  0.57470  0.11990  1.0000 0.1392977891
H   H14       1.0  0.34450  0.66980  0.05670  1.0000 0.1392977891
H   H15       1.0  0.50100  0.75220  0.10340  1.0000 0.1220314797
H   H16       1.0  0.49070  0.85520  0.03620  1.0000 0.1533296961
H   H17       1.0  0.36970  0.80840  0.71890  1.0000 0.1392977891
H   H18       1.0  0.38810  0.70420  0.76050  1.0000 0.1220314797
H   H19       1.0  0.71180  0.42530  0.11990  1.0000 0.1392977891
H   H20       1.0  0.65550  0.33020  0.05670  1.0000 0.1392977891
H   H21       1.0  0.49900  0.24780  0.10340  1.0000 0.1220314797
H   H22       1.0  0.50930  0.14480  0.03620  1.0000 0.1533296961
H   H23       1.0  0.63030  0.19160  0.71890  1.0000 0.1392977891
H   H24       1.0  0.61190  0.29580  0.76050  1.0000 0.1220314797
H   H25       1.0  0.57470  0.28820  0.38010  1.0000 0.1392977891
H   H26       1.0  0.66980  0.34450  0.44330  1.0000 0.1392977891
H   H27       1.0  0.75220  0.50100  0.39660  1.0000 0.1220314797
H   H28       1.0  0.85520  0.49070  0.46380  1.0000 0.1533296961
H   H29       1.0  0.80840  0.36970  0.78110  1.0000 0.1392977891
H   H30       1.0  0.70420  0.38810  0.73950  1.0000 0.1220314797
H   H31       1.0  0.42530  0.71180  0.38010  1.0000 0.1392977891
H   H32       1.0  0.33020  0.65550  0.44330  1.0000 0.1392977891
H   H33       1.0  0.24780  0.49900  0.39660  1.0000 0.1220314797
H   H34       1.0  0.14480  0.50930  0.46380  1.0000 0.1533296961
H   H35       1.0  0.19160  0.63030  0.78110  1.0000 0.1392977891
H   H36       1.0  0.29580  0.61190  0.73950  1.0000 0.1220314797
H   H37       1.0  0.28820  0.42530  0.61990  1.0000 0.1392977891
H   H38       1.0  0.34450  0.33020  0.55670  1.0000 0.1392977891
H   H39       1.0  0.50100  0.24780  0.60340  1.0000 0.1220314797
H   H40       1.0  0.49070  0.14480  0.53620  1.0000 0.1533296961
H   H41       1.0  0.36970  0.19160  0.21890  1.0000 0.1392977891
H   H42       1.0  0.38810  0.29580  0.26050  1.0000 0.1220314797
H   H43       1.0  0.71180  0.57470  0.61990  1.0000 0.1392977891
H   H44       1.0  0.65550  0.66980  0.55670  1.0000 0.1392977891
H   H45       1.0  0.49900  0.75220  0.60340  1.0000 0.1220314797
H   H46       1.0  0.50930  0.85520  0.53620  1.0000 0.1533296961
H   H47       1.0  0.63030  0.80840  0.21890  1.0000 0.1392977891
H   H48       1.0  0.61190  0.70420  0.26050  1.0000 0.1220314797
C   C1        1.0  0.52590  0.63100  0.94900  1.0000 0.2033023643
C   C2        1.0  0.57720  0.67140  0.91700  1.0000 -0.1692547691
C   C3        1.0  0.62930  0.64070  0.95030  1.0000 -0.1588010383
C   C4        1.0  0.61010  0.58030  0.99900  1.0000 0.1847411501
C   C5        1.0  0.65070  0.53410  0.04410  1.0000 -0.060555289
C   C6        1.0  0.71760  0.54920  0.07060  1.0000 0.1049697916
C   C7        1.0  0.76320  0.52270  0.98100  1.0000 -0.1284521413
C   C8        1.0  0.82490  0.53130  0.01700  1.0000 -0.060555289
C   C9        1.0  0.84170  0.57120  0.12700  1.0000 -0.1386839472
C   C10       1.0  0.79660  0.60160  0.20700  1.0000 -0.071313635
C   C11       1.0  0.73420  0.59120  0.18250  1.0000 -0.1484784079
C   C12       1.0  0.47410  0.36900  0.94900  1.0000 0.2033023643
C   C13       1.0  0.42280  0.32860  0.91700  1.0000 -0.1692547691
C   C14       1.0  0.37070  0.35930  0.95030  1.0000 -0.1588010383
C   C15       1.0  0.38990  0.41970  0.99900  1.0000 0.1847411501
C   C16       1.0  0.34930  0.46590  0.04410  1.0000 -0.060555289
C   C17       1.0  0.28240  0.45080  0.07060  1.0000 0.1049697916
C   C18       1.0  0.23680  0.47730  0.98100  1.0000 -0.1284521413
C   C19       1.0  0.17510  0.46870  0.01700  1.0000 -0.060555289
C   C20       1.0  0.15830  0.42880  0.12700  1.0000 -0.1386839472
C   C21       1.0  0.20340  0.39840  0.20700  1.0000 -0.071313635
C   C22       1.0  0.26580  0.40880  0.18250  1.0000 -0.1484784079
C   C23       1.0  0.36900  0.52590  0.05100  1.0000 0.2033023643
C   C24       1.0  0.32860  0.57720  0.08300  1.0000 -0.1692547691
C   C25       1.0  0.35930  0.62930  0.04970  1.0000 -0.1588010383
C   C26       1.0  0.41970  0.61010  0.00100  1.0000 0.1847411501
C   C27       1.0  0.46590  0.65070  0.95590  1.0000 -0.060555289
C   C28       1.0  0.45080  0.71760  0.92940  1.0000 0.1049697916
C   C29       1.0  0.47730  0.76320  0.01900  1.0000 -0.1284521413
C   C30       1.0  0.46870  0.82490  0.98300  1.0000 -0.060555289
C   C31       1.0  0.42880  0.84170  0.87300  1.0000 -0.1386839472
C   C32       1.0  0.39840  0.79660  0.79300  1.0000 -0.071313635
C   C33       1.0  0.40880  0.73420  0.81750  1.0000 -0.1484784079
C   C34       1.0  0.63100  0.47410  0.05100  1.0000 0.2033023643
C   C35       1.0  0.67140  0.42280  0.08300  1.0000 -0.1692547691
C   C36       1.0  0.64070  0.37070  0.04970  1.0000 -0.1588010383
C   C37       1.0  0.58030  0.38990  0.00100  1.0000 0.1847411501
C   C38       1.0  0.53410  0.34930  0.95590  1.0000 -0.060555289
C   C39       1.0  0.54920  0.28240  0.92940  1.0000 0.1049697916
C   C40       1.0  0.52270  0.23680  0.01900  1.0000 -0.1284521413
C   C41       1.0  0.53130  0.17510  0.98300  1.0000 -0.060555289
C   C42       1.0  0.57120  0.15830  0.87300  1.0000 -0.1386839472
C   C43       1.0  0.60160  0.20340  0.79300  1.0000 -0.071313635
C   C44       1.0  0.59120  0.26580  0.81750  1.0000 -0.1484784079
C   C45       1.0  0.52590  0.36900  0.44900  1.0000 0.2033023643
C   C46       1.0  0.57720  0.32860  0.41700  1.0000 -0.1692547691
C   C47       1.0  0.62930  0.35930  0.45030  1.0000 -0.1588010383
C   C48       1.0  0.61010  0.41970  0.49900  1.0000 0.1847411501
C   C49       1.0  0.65070  0.46590  0.54410  1.0000 -0.060555289
C   C50       1.0  0.71760  0.45080  0.57060  1.0000 0.1049697916
C   C51       1.0  0.76320  0.47730  0.48100  1.0000 -0.1284521413
C   C52       1.0  0.82490  0.46870  0.51700  1.0000 -0.060555289
C   C53       1.0  0.84170  0.42880  0.62700  1.0000 -0.1386839472
C   C54       1.0  0.79660  0.39840  0.70700  1.0000 -0.071313635
C   C55       1.0  0.73420  0.40880  0.68250  1.0000 -0.1484784079
C   C56       1.0  0.47410  0.63100  0.44900  1.0000 0.2033023643
C   C57       1.0  0.42280  0.67140  0.41700  1.0000 -0.1692547691
C   C58       1.0  0.37070  0.64070  0.45030  1.0000 -0.1588010383
C   C59       1.0  0.38990  0.58030  0.49900  1.0000 0.1847411501
C   C60       1.0  0.34930  0.53410  0.54410  1.0000 -0.060555289
C   C61       1.0  0.28240  0.54920  0.57060  1.0000 0.1049697916
C   C62       1.0  0.23680  0.52270  0.48100  1.0000 -0.1284521413
C   C63       1.0  0.17510  0.53130  0.51700  1.0000 -0.060555289
C   C64       1.0  0.15830  0.57120  0.62700  1.0000 -0.1386839472
C   C65       1.0  0.20340  0.60160  0.70700  1.0000 -0.071313635
C   C66       1.0  0.26580  0.59120  0.68250  1.0000 -0.1484784079
C   C67       1.0  0.36900  0.47410  0.55100  1.0000 0.2033023643
C   C68       1.0  0.32860  0.42280  0.58300  1.0000 -0.1692547691
C   C69       1.0  0.35930  0.37070  0.54970  1.0000 -0.1588010383
C   C70       1.0  0.41970  0.38990  0.50100  1.0000 0.1847411501
C   C71       1.0  0.46590  0.34930  0.45590  1.0000 -0.060555289
C   C72       1.0  0.45080  0.28240  0.42940  1.0000 0.1049697916
C   C73       1.0  0.47730  0.23680  0.51900  1.0000 -0.1284521413
C   C74       1.0  0.46870  0.17510  0.48300  1.0000 -0.060555289
C   C75       1.0  0.42880  0.15830  0.37300  1.0000 -0.1386839472
C   C76       1.0  0.39840  0.20340  0.29300  1.0000 -0.071313635
C   C77       1.0  0.40880  0.26580  0.31750  1.0000 -0.1484784079
C   C78       1.0  0.63100  0.52590  0.55100  1.0000 0.2033023643
C   C79       1.0  0.67140  0.57720  0.58300  1.0000 -0.1692547691
C   C80       1.0  0.64070  0.62930  0.54970  1.0000 -0.1588010383
C   C81       1.0  0.58030  0.61010  0.50100  1.0000 0.1847411501
C   C82       1.0  0.53410  0.65070  0.45590  1.0000 -0.060555289
C   C83       1.0  0.54920  0.71760  0.42940  1.0000 0.1049697916
C   C84       1.0  0.52270  0.76320  0.51900  1.0000 -0.1284521413
C   C85       1.0  0.53130  0.82490  0.48300  1.0000 -0.060555289
C   C86       1.0  0.57120  0.84170  0.37300  1.0000 -0.1386839472
C   C87       1.0  0.60160  0.79660  0.29300  1.0000 -0.071313635
C   C88       1.0  0.59120  0.73420  0.31750  1.0000 -0.1484784079
N   N1        1.0  0.54670  0.57490  0.99070  1.0000 -0.2938321126
N   N2        1.0  0.45330  0.42510  0.99070  1.0000 -0.2938321126
N   N3        1.0  0.42510  0.54670  0.00930  1.0000 -0.2938321126
N   N4        1.0  0.57490  0.45330  0.00930  1.0000 -0.2938321126
N   N5        1.0  0.54670  0.42510  0.49070  1.0000 -0.2938321126
N   N6        1.0  0.45330  0.57490  0.49070  1.0000 -0.2938321126
N   N7        1.0  0.42510  0.45330  0.50930  1.0000 -0.2938321126
N   N8        1.0  0.57490  0.54670  0.50930  1.0000 -0.2938321126
O   O1        1.0  0.96240  0.56780  0.03100  1.0000 -0.7549125594
O   O2        1.0  0.93390  0.53180  0.30700  1.0000 -0.7785894913
O   O3        1.0  0.93450  0.64660  0.22700  1.0000 -0.58544213
O   O4        1.0  0.03760  0.43220  0.03100  1.0000 -0.7553907079
O   O5        1.0  0.06610  0.46820  0.30700  1.0000 -0.7785894913
O   O6        1.0  0.06550  0.35340  0.22700  1.0000 -0.58544213
O   O7        1.0  0.43220  0.96240  0.96900  1.0000 -0.7553907079
O   O8        1.0  0.46820  0.93390  0.69300  1.0000 -0.7785894913
O   O9        1.0  0.35340  0.93450  0.77300  1.0000 -0.58544213
O   O10       1.0  0.56780  0.03760  0.96900  1.0000 -0.7553907079
O   O11       1.0  0.53180  0.06610  0.69300  1.0000 -0.7785894913
O   O12       1.0  0.64660  0.06550  0.77300  1.0000 -0.58544213
O   O13       1.0  0.96240  0.43220  0.53100  1.0000 -0.7549125594
O   O14       1.0  0.93390  0.46820  0.80700  1.0000 -0.7785894913
O   O15       1.0  0.93450  0.35340  0.72700  1.0000 -0.58544213
O   O16       1.0  0.03760  0.56780  0.53100  1.0000 -0.7553907079
O   O17       1.0  0.06610  0.53180  0.80700  1.0000 -0.7785894913
O   O18       1.0  0.06550  0.64660  0.72700  1.0000 -0.58544213
O   O19       1.0  0.43220  0.03760  0.46900  1.0000 -0.7553907079
O   O20       1.0  0.46820  0.06610  0.19300  1.0000 -0.7785894913
O   O21       1.0  0.35340  0.06550  0.27300  1.0000 -0.58544213
O   O22       1.0  0.56780  0.96240  0.46900  1.0000 -0.7553907079
O   O23       1.0  0.53180  0.93390  0.19300  1.0000 -0.7785894913
O   O24       1.0  0.64660  0.93450  0.27300  1.0000 -0.58544213
