# DDEC6 charges by PACMAN v1.1 (https://github.com/mtap-research/PACMAN-charge/)
data_2018[Tb][flu]3[ASR]1
_chemical_formula_sum              "Tb2 H16 C26 N4 O14"
_cell_length_a       9.0968
_cell_length_b       9.6763
_cell_length_c       11.5065
_cell_angle_alpha    106.914
_cell_angle_beta     93.967
_cell_angle_gamma    108.27

_symmetry_space_group_name_H-M    "P 1"
_symmetry_Int_Tables_number       1

loop_
  _symmetry_equiv_pos_as_xyz
  'x, y, z'

loop_
  _atom_site_type_symbol
  _atom_site_label
  _atom_site_symmetry_multiplicity
  _atom_site_fract_x
  _atom_site_fract_y
  _atom_site_fract_z
  _atom_site_occupancy
  _atom_site_charge
Tb  Tb1       1.0  0.22152  0.97180  0.00841  1.0000 2.0988110406
Tb  Tb2       1.0  0.77848  0.02820  0.99159  1.0000 2.0988110406
H   H1        1.0  0.08290  0.78070  0.75940  1.0000 0.3888227445
H   H2        1.0  0.85580  0.44790  0.03390  1.0000 0.1789281023
H   H3        1.0  0.38780  0.45230  0.19830  1.0000 0.1571844322
H   H4        1.0  0.39790  0.61090  0.17660  1.0000 0.1495526684
H   H5        1.0  0.66280  0.52950  0.37370  1.0000 0.1302873799
H   H6        1.0  0.75860  0.67130  0.58240  1.0000 0.1302873799
H   H7        1.0  0.47180  0.91170  0.57510  1.0000 0.1302873799
H   H8        1.0  0.38180  0.78020  0.36540  1.0000 0.139170478
H   H9        1.0  0.91710  0.21930  0.24060  1.0000 0.3888227445
H   H10       1.0  0.14420  0.55210  0.96610  1.0000 0.1789281023
H   H11       1.0  0.61220  0.54770  0.80170  1.0000 0.1571844322
H   H12       1.0  0.60210  0.38910  0.82340  1.0000 0.1495526684
H   H13       1.0  0.33720  0.47050  0.62630  1.0000 0.1302873799
H   H14       1.0  0.24140  0.32870  0.41760  1.0000 0.1302873799
H   H15       1.0  0.52820  0.08830  0.42490  1.0000 0.1302873799
H   H16       1.0  0.61820  0.21980  0.63460  1.0000 0.139170478
C   C1        1.0  0.94190  0.77460  0.07400  1.0000 0.612452398
C   C2        1.0  0.81060  0.65560  0.09770  1.0000 0.0705424202
C   C3        1.0  0.64440  0.43660  0.09890  1.0000 0.0050471401
C   C4        1.0  0.68750  0.89960  0.73100  1.0000 0.5691868169
C   C5        1.0  0.78760  0.49950  0.06800  1.0000 -0.210574885
C   C6        1.0  0.51560  0.64310  0.34670  1.0000 0.1302873799
C   C7        1.0  0.62330  0.80650  0.59840  1.0000 -0.0194449956
C   C8        1.0  0.45880  0.55860  0.21080  1.0000 -0.1856712001
C   C9        1.0  0.55720  0.26980  0.07560  1.0000 0.6376650435
C   C10       1.0  0.62560  0.60940  0.41340  1.0000 -0.1423365372
C   C11       1.0  0.68090  0.69250  0.53800  1.0000 -0.0774994093
C   C12       1.0  0.51290  0.83550  0.53370  1.0000 -0.0851461189
C   C13       1.0  0.45800  0.75700  0.40880  1.0000 -0.1453470486
C   C14       1.0  0.05810  0.22540  0.92600  1.0000 0.612452398
C   C15       1.0  0.18940  0.34440  0.90230  1.0000 0.0705424202
C   C16       1.0  0.35560  0.56340  0.90110  1.0000 0.0049222654
C   C17       1.0  0.31250  0.10040  0.26900  1.0000 0.5691868169
C   C18       1.0  0.21240  0.50050  0.93200  1.0000 -0.210574885
C   C19       1.0  0.48440  0.35690  0.65330  1.0000 0.1302873799
C   C20       1.0  0.37670  0.19350  0.40160  1.0000 -0.0194449956
C   C21       1.0  0.54120  0.44140  0.78920  1.0000 -0.1856712001
C   C22       1.0  0.44280  0.73020  0.92440  1.0000 0.6376650435
C   C23       1.0  0.37440  0.39060  0.58660  1.0000 -0.1423365372
C   C24       1.0  0.31910  0.30750  0.46200  1.0000 -0.0774994093
C   C25       1.0  0.48710  0.16450  0.46630  1.0000 -0.0851461189
C   C26       1.0  0.54200  0.24300  0.59120  1.0000 -0.1453470486
N   N1        1.0  0.58840  0.55270  0.14520  1.0000 0.1734748585
N   N2        1.0  0.68950  0.68910  0.14440  1.0000 -0.2442778396
N   N3        1.0  0.41160  0.44730  0.85480  1.0000 0.1734748585
N   N4        1.0  0.31050  0.31090  0.85560  1.0000 -0.2475584047
O   O1        1.0  0.63400  0.18050  0.04490  1.0000 -0.6785726445
O   O2        1.0  0.80410  0.88480  0.78620  1.0000 -0.5474487441
O   O3        1.0  0.91910  0.88760  0.04710  1.0000 -0.6884906488
O   O4        1.0  0.07300  0.75990  0.07700  1.0000 -0.5586860376
O   O5        1.0  0.62090  0.98880  0.79120  1.0000 -0.6163439649
O   O6        1.0  0.04110  0.77820  0.82610  1.0000 -0.8641058105
O   O7        1.0  0.41280  0.22790  0.07910  1.0000 -0.6363390582
O   O8        1.0  0.36600  0.81950  0.95510  1.0000 -0.6785726445
O   O9        1.0  0.19590  0.11520  0.21380  1.0000 -0.5474487441
O   O10       1.0  0.08090  0.11240  0.95290  1.0000 -0.6884906488
O   O11       1.0  0.92700  0.24010  0.92300  1.0000 -0.5586860376
O   O12       1.0  0.37910  0.01120  0.20880  1.0000 -0.6163439649
O   O13       1.0  0.95890  0.22180  0.17390  1.0000 -0.8641058105
O   O14       1.0  0.58720  0.77210  0.92090  1.0000 -0.6363390582
