# DDEC6 charges by PACMAN v1.1 (https://github.com/mtap-research/PACMAN-charge/)
data_2018[Eu][nan]3[ASR]7
_chemical_formula_sum              "Eu6 H18 C42 N6 O30"
_cell_length_a       11.823
_cell_length_b       11.823
_cell_length_c       15.698
_cell_angle_alpha    90
_cell_angle_beta     90
_cell_angle_gamma    120

_symmetry_space_group_name_H-M    "P 1"
_symmetry_Int_Tables_number       1

loop_
  _symmetry_equiv_pos_as_xyz
  'x, y, z'

loop_
  _atom_site_type_symbol
  _atom_site_label
  _atom_site_symmetry_multiplicity
  _atom_site_fract_x
  _atom_site_fract_y
  _atom_site_fract_z
  _atom_site_occupancy
  _atom_site_charge
Eu  Eu1       1.0  0.35472  0.17736  0.41667  1.0000 2.0694281804
Eu  Eu2       1.0  0.82264  0.64528  0.75000  1.0000 2.0694281804
Eu  Eu3       1.0  0.82264  0.17736  0.08333  1.0000 2.0694281804
Eu  Eu4       1.0  0.64528  0.82264  0.91667  1.0000 2.0694281804
Eu  Eu5       1.0  0.17736  0.35472  0.25000  1.0000 2.0694281804
Eu  Eu6       1.0  0.17736  0.82264  0.58333  1.0000 2.0694281804
H   H1        1.0  0.63755  0.41779  0.51658  1.0000 0.1106429123
H   H2        1.0  0.78024  0.36245  0.84992  1.0000 0.1106429123
H   H3        1.0  0.58221  0.21976  0.18325  1.0000 0.1106429123
H   H4        1.0  0.36245  0.58221  0.01658  1.0000 0.1106429123
H   H5        1.0  0.21976  0.63755  0.34992  1.0000 0.1106429123
H   H6        1.0  0.41779  0.78024  0.68325  1.0000 0.1106429123
H   H7        1.0  0.21976  0.58221  0.48342  1.0000 0.1106429123
H   H8        1.0  0.41779  0.63755  0.15008  1.0000 0.1106429123
H   H9        1.0  0.36245  0.78024  0.81675  1.0000 0.1106429123
H   H10       1.0  0.78024  0.41779  0.98342  1.0000 0.1106429123
H   H11       1.0  0.58221  0.36245  0.65008  1.0000 0.1106429123
H   H12       1.0  0.63755  0.21976  0.31675  1.0000 0.1106429123
H   H13       1.0  0.98154  0.49077  0.41667  1.0000 0.1344025232
H   H14       1.0  0.50923  0.01846  0.75000  1.0000 0.1344025232
H   H15       1.0  0.50923  0.49077  0.08333  1.0000 0.1344025232
H   H16       1.0  0.01846  0.50923  0.91667  1.0000 0.1344025232
H   H17       1.0  0.49077  0.98154  0.25000  1.0000 0.1344025232
H   H18       1.0  0.49077  0.50923  0.58333  1.0000 0.1344025232
C   C1        1.0  0.68490  0.39880  0.47473  1.0000 0.0727810919
C   C2        1.0  0.81720  0.46640  0.47933  1.0000 -0.0678341645
C   C3        1.0  0.88820  0.55510  0.55363  1.0000 0.6344683119
C   C4        1.0  0.71390  0.31510  0.80807  1.0000 0.0727810919
C   C5        1.0  0.64920  0.18280  0.81267  1.0000 -0.0678341645
C   C6        1.0  0.66690  0.11180  0.88697  1.0000 0.6344683119
C   C7        1.0  0.60120  0.28610  0.14140  1.0000 0.0727810919
C   C8        1.0  0.53360  0.35080  0.14600  1.0000 -0.0678341645
C   C9        1.0  0.44490  0.33310  0.22030  1.0000 0.6344683119
C   C10       1.0  0.31510  0.60120  0.97473  1.0000 0.0727810919
C   C11       1.0  0.18280  0.53360  0.97933  1.0000 -0.0678341645
C   C12       1.0  0.11180  0.44490  0.05363  1.0000 0.6344683119
C   C13       1.0  0.28610  0.68490  0.30807  1.0000 0.0727810919
C   C14       1.0  0.35080  0.81720  0.31267  1.0000 -0.0678341645
C   C15       1.0  0.33310  0.88820  0.38697  1.0000 0.6344683119
C   C16       1.0  0.39880  0.71390  0.64140  1.0000 0.0727810919
C   C17       1.0  0.46640  0.64920  0.64600  1.0000 -0.0678341645
C   C18       1.0  0.55510  0.66690  0.72030  1.0000 0.6344683119
C   C19       1.0  0.28610  0.60120  0.52527  1.0000 0.0727810919
C   C20       1.0  0.35080  0.53360  0.52067  1.0000 -0.0678341645
C   C21       1.0  0.33310  0.44490  0.44637  1.0000 0.6344683119
C   C22       1.0  0.39880  0.68490  0.19193  1.0000 0.0727810919
C   C23       1.0  0.46640  0.81720  0.18733  1.0000 -0.0678341645
C   C24       1.0  0.55510  0.88820  0.11303  1.0000 0.6344683119
C   C25       1.0  0.31510  0.71390  0.85860  1.0000 0.0727810919
C   C26       1.0  0.18280  0.64920  0.85400  1.0000 -0.0678341645
C   C27       1.0  0.11180  0.66690  0.77970  1.0000 0.6344683119
C   C28       1.0  0.71390  0.39880  0.02527  1.0000 0.0727810919
C   C29       1.0  0.64920  0.46640  0.02067  1.0000 -0.0678341645
C   C30       1.0  0.66690  0.55510  0.94637  1.0000 0.6344683119
C   C31       1.0  0.60120  0.31510  0.69193  1.0000 0.0727810919
C   C32       1.0  0.53360  0.18280  0.68733  1.0000 -0.0678341645
C   C33       1.0  0.44490  0.11180  0.61303  1.0000 0.6344683119
C   C34       1.0  0.68490  0.28610  0.35860  1.0000 0.0727810919
C   C35       1.0  0.81720  0.35080  0.35400  1.0000 -0.0678341645
C   C36       1.0  0.88820  0.33310  0.27970  1.0000 0.6344683119
C   C37       1.0  0.88800  0.44400  0.41667  1.0000 -0.0613102195
C   C38       1.0  0.55600  0.11200  0.75000  1.0000 -0.0613102195
C   C39       1.0  0.55600  0.44400  0.08333  1.0000 -0.0613102195
C   C40       1.0  0.11200  0.55600  0.91667  1.0000 -0.0613102195
C   C41       1.0  0.44400  0.88800  0.25000  1.0000 -0.0613102195
C   C42       1.0  0.44400  0.55600  0.58333  1.0000 -0.0613102195
N   N1        1.0  0.61520  0.30760  0.41667  1.0000 -0.3245048178
N   N2        1.0  0.69240  0.38480  0.75000  1.0000 -0.3245048178
N   N3        1.0  0.69240  0.30760  0.08333  1.0000 -0.3245048178
N   N4        1.0  0.38480  0.69240  0.91667  1.0000 -0.3245048178
N   N5        1.0  0.30760  0.61520  0.25000  1.0000 -0.3245048178
N   N6        1.0  0.30760  0.69240  0.58333  1.0000 -0.3245048178
O   O1        1.0  0.01080  0.60910  0.55583  1.0000 -0.6225288463
O   O2        1.0  0.81800  0.56540  0.60933  1.0000 -0.6034973713
O   O3        1.0  0.59830  0.98920  0.88917  1.0000 -0.6225288463
O   O4        1.0  0.74740  0.18200  0.94267  1.0000 -0.6034973713
O   O5        1.0  0.39090  0.40170  0.22250  1.0000 -0.6225288463
O   O6        1.0  0.43460  0.25260  0.27600  1.0000 -0.6034973713
O   O7        1.0  0.98920  0.39090  0.05583  1.0000 -0.6225288463
O   O8        1.0  0.18200  0.43460  0.10933  1.0000 -0.6034973713
O   O9        1.0  0.40170  0.01080  0.38917  1.0000 -0.6225288463
O   O10       1.0  0.25260  0.81800  0.44267  1.0000 -0.6034973713
O   O11       1.0  0.60910  0.59830  0.72250  1.0000 -0.6225288463
O   O12       1.0  0.56540  0.74740  0.77600  1.0000 -0.6034973713
O   O13       1.0  0.40170  0.39090  0.44417  1.0000 -0.6225288463
O   O14       1.0  0.25260  0.43460  0.39067  1.0000 -0.6034973713
O   O15       1.0  0.60910  0.01080  0.11083  1.0000 -0.6225288463
O   O16       1.0  0.56540  0.81800  0.05733  1.0000 -0.6034973713
O   O17       1.0  0.98920  0.59830  0.77750  1.0000 -0.6225288463
O   O18       1.0  0.18200  0.74740  0.72400  1.0000 -0.6034973713
O   O19       1.0  0.59830  0.60910  0.94417  1.0000 -0.6225288463
O   O20       1.0  0.74740  0.56540  0.89067  1.0000 -0.6034973713
O   O21       1.0  0.39090  0.98920  0.61083  1.0000 -0.6225288463
O   O22       1.0  0.43460  0.18200  0.55733  1.0000 -0.6034973713
O   O23       1.0  0.01080  0.40170  0.27750  1.0000 -0.6225288463
O   O24       1.0  0.81800  0.25260  0.22400  1.0000 -0.6034973713
O   O25       1.0  0.17370  0.00000  0.50000  1.0000 -0.8687718205
O   O26       1.0  0.82630  0.82630  0.83333  1.0000 -0.8526181034
O   O27       1.0  0.00000  0.17370  0.16667  1.0000 -0.8687718205
O   O28       1.0  0.82630  0.00000  0.00000  1.0000 -0.8687718205
O   O29       1.0  0.17370  0.17370  0.33333  1.0000 -0.8687718205
O   O30       1.0  1.00000  0.82630  0.66667  1.0000 -0.8687718205
