# DDEC6 charges by PACMAN v1.1 (https://github.com/mtap-research/PACMAN-charge/)
data_2018[Cd][kgd]2[ASR]3
_chemical_formula_sum              "Cd2 H14 C26 N2 O8"
_cell_length_a       7.841
_cell_length_b       8.714
_cell_length_c       10.277
_cell_angle_alpha    104.963
_cell_angle_beta     95.555
_cell_angle_gamma    89.23

_symmetry_space_group_name_H-M    "P 1"
_symmetry_Int_Tables_number       1

loop_
  _symmetry_equiv_pos_as_xyz
  'x, y, z'

loop_
  _atom_site_type_symbol
  _atom_site_label
  _atom_site_symmetry_multiplicity
  _atom_site_fract_x
  _atom_site_fract_y
  _atom_site_fract_z
  _atom_site_occupancy
  _atom_site_charge
Cd  Cd1       1.0  0.55315  0.33718  0.36195  1.0000 0.9205965941
Cd  Cd2       1.0  0.44685  0.66282  0.63805  1.0000 0.9205965941
H   H1        1.0  0.06900  0.35060  0.02640  1.0000 0.1206889434
H   H2        1.0  0.93700  0.30550  0.80510  1.0000 0.1206889434
H   H3        1.0  0.53150  0.30440  0.87770  1.0000 0.12811581
H   H4        1.0  0.87060  0.40530  0.60210  1.0000 0.12811581
H   H5        1.0  0.85620  0.16670  0.22050  1.0000 0.1206889434
H   H6        1.0  0.09890  0.03330  0.26260  1.0000 0.1373645907
H   H7        1.0  0.23580  0.08340  0.48180  1.0000 0.12811581
H   H8        1.0  0.93100  0.64940  0.97360  1.0000 0.1206889434
H   H9        1.0  0.06300  0.69450  0.19490  1.0000 0.1206889434
H   H10       1.0  0.46850  0.69560  0.12230  1.0000 0.12811581
H   H11       1.0  0.12940  0.59470  0.39790  1.0000 0.12811581
H   H12       1.0  0.14380  0.83330  0.77950  1.0000 0.1206889434
H   H13       1.0  0.90110  0.96670  0.73740  1.0000 0.1373645907
H   H14       1.0  0.76420  0.91660  0.51820  1.0000 0.12811581
C   C1        1.0  0.40330  0.34310  0.11510  1.0000 0.5373638218
C   C2        1.0  0.31540  0.33150  0.97600  1.0000 0.0085400829
C   C3        1.0  0.13540  0.33333  0.95380  1.0000 -0.1148928458
C   C4        1.0  0.05590  0.30850  0.81980  1.0000 -0.1455410475
C   C5        1.0  0.15250  0.28860  0.70960  1.0000 0.0335073547
C   C6        1.0  0.33190  0.29500  0.73540  1.0000 -0.0510989817
C   C7        1.0  0.41270  0.30940  0.86480  1.0000 -0.1163110676
C   C8        1.0  0.44770  0.28260  0.62250  1.0000 0.5786866491
C   C9        1.0  0.06560  0.25370  0.57060  1.0000 0.035983462
C   C10       1.0  0.91700  0.32670  0.53590  1.0000 0.0335073547
C   C11       1.0  0.90760  0.18520  0.30860  1.0000 0.069341073
C   C12       1.0  0.05400  0.10700  0.33310  1.0000 -0.1163110676
C   C13       1.0  0.13680  0.13730  0.46400  1.0000 -0.0821867491
C   C14       1.0  0.59670  0.65690  0.88490  1.0000 0.5373638218
C   C15       1.0  0.68460  0.66850  0.02400  1.0000 0.0085400829
C   C16       1.0  0.86460  0.66667  0.04620  1.0000 -0.1148928458
C   C17       1.0  0.94410  0.69150  0.18020  1.0000 -0.1455410475
C   C18       1.0  0.84750  0.71140  0.29040  1.0000 0.0335073547
C   C19       1.0  0.66810  0.70500  0.26460  1.0000 -0.0510989817
C   C20       1.0  0.58730  0.69060  0.13520  1.0000 -0.1163110676
C   C21       1.0  0.55230  0.71740  0.37750  1.0000 0.5786866491
C   C22       1.0  0.93440  0.74630  0.42940  1.0000 0.035983462
C   C23       1.0  0.08300  0.67330  0.46410  1.0000 0.0335073547
C   C24       1.0  0.09240  0.81480  0.69140  1.0000 0.069341073
C   C25       1.0  0.94600  0.89300  0.66690  1.0000 -0.1163110676
C   C26       1.0  0.86320  0.86270  0.53600  1.0000 -0.0821867491
N   N1        1.0  0.83590  0.28820  0.40850  1.0000 -0.2455856557
N   N2        1.0  0.16410  0.71180  0.59150  1.0000 -0.2455856557
O   O1        1.0  0.31820  0.39200  0.21770  1.0000 -0.5714570338
O   O2        1.0  0.55570  0.30760  0.12660  1.0000 -0.5329028422
O   O3        1.0  0.56090  0.17860  0.60470  1.0000 -0.5439859981
O   O4        1.0  0.42170  0.38430  0.55230  1.0000 -0.5810319538
O   O5        1.0  0.68180  0.60800  0.78230  1.0000 -0.5714570338
O   O6        1.0  0.44430  0.69240  0.87340  1.0000 -0.5329028422
O   O7        1.0  0.43910  0.82140  0.39530  1.0000 -0.5439859981
O   O8        1.0  0.57830  0.61570  0.44770  1.0000 -0.5810319538
