# DDEC6 charges by PACMAN v1.1 (https://github.com/mtap-research/PACMAN-charge/)
data_2018[Zn][hxl]2[ASR]1
_chemical_formula_sum              "Zn12 H120 C96 O48"
_cell_length_a       9.924
_cell_length_b       18.4673
_cell_length_c       26.3347
_cell_angle_alpha    90
_cell_angle_beta     90
_cell_angle_gamma    90

_symmetry_space_group_name_H-M    "P 1"
_symmetry_Int_Tables_number       1

loop_
  _symmetry_equiv_pos_as_xyz
  'x, y, z'

loop_
  _atom_site_type_symbol
  _atom_site_label
  _atom_site_symmetry_multiplicity
  _atom_site_fract_x
  _atom_site_fract_y
  _atom_site_fract_z
  _atom_site_occupancy
  _atom_site_charge
Zn  Zn1       1.0  0.44363  0.50137  0.12147  1.0000 0.9440446342
Zn  Zn2       1.0  0.49346  0.49999  0.99874  1.0000 1.0097052897
Zn  Zn3       1.0  0.53993  0.49945  0.87582  1.0000 0.9455966795
Zn  Zn4       1.0  0.94363  0.99863  0.87853  1.0000 0.9440446342
Zn  Zn5       1.0  0.99346  0.00001  0.00126  1.0000 1.0097052897
Zn  Zn6       1.0  0.03993  0.00055  0.12418  1.0000 0.9455966795
Zn  Zn7       1.0  0.05637  0.49863  0.62147  1.0000 0.9440446342
Zn  Zn8       1.0  0.00654  0.50001  0.49874  1.0000 1.0097052897
Zn  Zn9       1.0  0.96007  0.50055  0.37582  1.0000 0.9455966795
Zn  Zn10      1.0  0.55637  0.00137  0.37853  1.0000 0.9440446342
Zn  Zn11      1.0  0.50654  0.99999  0.50126  1.0000 1.0097052897
Zn  Zn12      1.0  0.46007  0.99945  0.62418  1.0000 0.9455966795
H   H1        1.0  0.56530  0.72720  0.09330  1.0000 0.1101477199
H   H2        1.0  0.75090  0.70270  0.01190  1.0000 0.0993371607
H   H3        1.0  0.60140  0.73380  0.00510  1.0000 0.0993371607
H   H4        1.0  0.65810  0.83970  0.04920  1.0000 0.0993371607
H   H5        1.0  0.76310  0.82890  0.00370  1.0000 0.0993371607
H   H6        1.0  0.92440  0.78290  0.05920  1.0000 0.1101477199
H   H7        1.0  0.89040  0.77170  0.14640  1.0000 0.0993371607
H   H8        1.0  0.74070  0.80320  0.14160  1.0000 0.0935598969
H   H9        1.0  0.72660  0.67730  0.14870  1.0000 0.1101477199
H   H10       1.0  0.82980  0.66650  0.10260  1.0000 0.0993371607
H   H11       1.0  0.56530  0.28270  0.05820  1.0000 0.1101477199
H   H12       1.0  0.83150  0.34100  0.05060  1.0000 0.0993371607
H   H13       1.0  0.73000  0.32970  0.00400  1.0000 0.0993371607
H   H14       1.0  0.74130  0.20270  0.01320  1.0000 0.0993371607
H   H15       1.0  0.89180  0.23320  0.00820  1.0000 0.0993371607
H   H16       1.0  0.91850  0.22860  0.09640  1.0000 0.1101477199
H   H17       1.0  0.75470  0.17720  0.14960  1.0000 0.1101477199
H   H18       1.0  0.65470  0.16760  0.10230  1.0000 0.0993371607
H   H19       1.0  0.74460  0.30410  0.14220  1.0000 0.0935598969
H   H20       1.0  0.59410  0.27350  0.14650  1.0000 0.0993371607
H   H21       1.0  0.81930  0.45920  0.00230  1.0000 0.1101477199
H   H22       1.0  0.03680  0.46420  0.93130  1.0000 0.1101477199
H   H23       1.0  0.96590  0.39150  0.95100  1.0000 0.0993371607
H   H24       1.0  0.16920  0.41340  0.99690  1.0000 0.1101477199
H   H25       1.0  0.04250  0.41370  0.03460  1.0000 0.0993371607
H   H26       1.0  0.16820  0.54160  0.99410  1.0000 0.1101477199
H   H27       1.0  0.02060  0.60990  0.04450  1.0000 0.0993371607
H   H28       1.0  0.95020  0.53760  0.06510  1.0000 0.1101477199
H   H29       1.0  0.81620  0.58650  0.99980  1.0000 0.1101477199
H   H30       1.0  0.94200  0.58700  0.96170  1.0000 0.0993371607
H   H31       1.0  0.06530  0.77280  0.90670  1.0000 0.1101477199
H   H32       1.0  0.25090  0.79730  0.98810  1.0000 0.0993371607
H   H33       1.0  0.10140  0.76620  0.99490  1.0000 0.0993371607
H   H34       1.0  0.15810  0.66030  0.95080  1.0000 0.0993371607
H   H35       1.0  0.26310  0.67110  0.99630  1.0000 0.0993371607
H   H36       1.0  0.42440  0.71710  0.94080  1.0000 0.1101477199
H   H37       1.0  0.39040  0.72830  0.85360  1.0000 0.0993371607
H   H38       1.0  0.24070  0.69680  0.85840  1.0000 0.0993371607
H   H39       1.0  0.22660  0.82270  0.85130  1.0000 0.1101477199
H   H40       1.0  0.32980  0.83350  0.89740  1.0000 0.0993371607
H   H41       1.0  0.06530  0.21730  0.94180  1.0000 0.1101477199
H   H42       1.0  0.33150  0.15900  0.94940  1.0000 0.0993371607
H   H43       1.0  0.23000  0.17030  0.99600  1.0000 0.0993371607
H   H44       1.0  0.24130  0.29730  0.98680  1.0000 0.0993371607
H   H45       1.0  0.39180  0.26680  0.99180  1.0000 0.0993371607
H   H46       1.0  0.41850  0.27140  0.90360  1.0000 0.1101477199
H   H47       1.0  0.25470  0.32280  0.85040  1.0000 0.1101477199
H   H48       1.0  0.15470  0.33240  0.89770  1.0000 0.0993371607
H   H49       1.0  0.24460  0.19590  0.85780  1.0000 0.0935598969
H   H50       1.0  0.09410  0.22650  0.85350  1.0000 0.0993371607
H   H51       1.0  0.31930  0.04080  0.99770  1.0000 0.1101477199
H   H52       1.0  0.53680  0.03580  0.06870  1.0000 0.1101477199
H   H53       1.0  0.46590  0.10850  0.04900  1.0000 0.0993371607
H   H54       1.0  0.66920  0.08660  0.00310  1.0000 0.1101477199
H   H55       1.0  0.54250  0.08630  0.96540  1.0000 0.0993371607
H   H56       1.0  0.66820  0.95840  0.00590  1.0000 0.1101477199
H   H57       1.0  0.52060  0.89010  0.95550  1.0000 0.0993371607
H   H58       1.0  0.45020  0.96240  0.93490  1.0000 0.1101477199
H   H59       1.0  0.31620  0.91350  0.00020  1.0000 0.1101477199
H   H60       1.0  0.44200  0.91300  0.03830  1.0000 0.0993371607
H   H61       1.0  0.93470  0.27280  0.59330  1.0000 0.1101477199
H   H62       1.0  0.74910  0.29730  0.51190  1.0000 0.0993371607
H   H63       1.0  0.89860  0.26620  0.50510  1.0000 0.0993371607
H   H64       1.0  0.84190  0.16030  0.54920  1.0000 0.0993371607
H   H65       1.0  0.73690  0.17110  0.50370  1.0000 0.0993371607
H   H66       1.0  0.57560  0.21710  0.55920  1.0000 0.1101477199
H   H67       1.0  0.60960  0.22830  0.64640  1.0000 0.0993371607
H   H68       1.0  0.75930  0.19680  0.64160  1.0000 0.0935598969
H   H69       1.0  0.77340  0.32270  0.64870  1.0000 0.1101477199
H   H70       1.0  0.67020  0.33350  0.60260  1.0000 0.0993371607
H   H71       1.0  0.93470  0.71730  0.55820  1.0000 0.1101477199
H   H72       1.0  0.66850  0.65900  0.55060  1.0000 0.0993371607
H   H73       1.0  0.77000  0.67030  0.50400  1.0000 0.0993371607
H   H74       1.0  0.75870  0.79730  0.51320  1.0000 0.0993371607
H   H75       1.0  0.60820  0.76680  0.50820  1.0000 0.0993371607
H   H76       1.0  0.58150  0.77140  0.59640  1.0000 0.1101477199
H   H77       1.0  0.74530  0.82280  0.64960  1.0000 0.1101477199
H   H78       1.0  0.84530  0.83240  0.60230  1.0000 0.0993371607
H   H79       1.0  0.75540  0.69590  0.64220  1.0000 0.0935598969
H   H80       1.0  0.90590  0.72650  0.64650  1.0000 0.0993371607
H   H81       1.0  0.68070  0.54080  0.50230  1.0000 0.1101477199
H   H82       1.0  0.46320  0.53580  0.43130  1.0000 0.1101477199
H   H83       1.0  0.53410  0.60850  0.45100  1.0000 0.0993371607
H   H84       1.0  0.33080  0.58660  0.49690  1.0000 0.1101477199
H   H85       1.0  0.45750  0.58630  0.53460  1.0000 0.0993371607
H   H86       1.0  0.33180  0.45840  0.49410  1.0000 0.1101477199
H   H87       1.0  0.47940  0.39010  0.54450  1.0000 0.0993371607
H   H88       1.0  0.54980  0.46240  0.56510  1.0000 0.1101477199
H   H89       1.0  0.68380  0.41350  0.49980  1.0000 0.1101477199
H   H90       1.0  0.55800  0.41300  0.46170  1.0000 0.0993371607
H   H91       1.0  0.43470  0.22720  0.40670  1.0000 0.1101477199
H   H92       1.0  0.24910  0.20270  0.48810  1.0000 0.0993371607
H   H93       1.0  0.39860  0.23380  0.49490  1.0000 0.0993371607
H   H94       1.0  0.34190  0.33970  0.45080  1.0000 0.0993371607
H   H95       1.0  0.23690  0.32890  0.49630  1.0000 0.0993371607
H   H96       1.0  0.07560  0.28290  0.44080  1.0000 0.1101477199
H   H97       1.0  0.10960  0.27170  0.35360  1.0000 0.0993371607
H   H98       1.0  0.25930  0.30320  0.35840  1.0000 0.0935598969
H   H99       1.0  0.27340  0.17730  0.35130  1.0000 0.1101477199
H   H100      1.0  0.17020  0.16650  0.39740  1.0000 0.0993371607
H   H101      1.0  0.43470  0.78270  0.44180  1.0000 0.1101477199
H   H102      1.0  0.16850  0.84100  0.44940  1.0000 0.0993371607
H   H103      1.0  0.27000  0.82970  0.49600  1.0000 0.0993371607
H   H104      1.0  0.25870  0.70270  0.48680  1.0000 0.0993371607
H   H105      1.0  0.10820  0.73320  0.49180  1.0000 0.0993371607
H   H106      1.0  0.08150  0.72860  0.40360  1.0000 0.1101477199
H   H107      1.0  0.24530  0.67720  0.35040  1.0000 0.1101477199
H   H108      1.0  0.34530  0.66760  0.39770  1.0000 0.0993371607
H   H109      1.0  0.25540  0.80410  0.35780  1.0000 0.0935598969
H   H110      1.0  0.40590  0.77350  0.35350  1.0000 0.0993371607
H   H111      1.0  0.18070  0.95920  0.49770  1.0000 0.1101477199
H   H112      1.0  0.96320  0.96420  0.56870  1.0000 0.1101477199
H   H113      1.0  0.03410  0.89150  0.54900  1.0000 0.0993371607
H   H114      1.0  0.83080  0.91340  0.50310  1.0000 0.1101477199
H   H115      1.0  0.95750  0.91370  0.46540  1.0000 0.0993371607
H   H116      1.0  0.83180  0.04160  0.50590  1.0000 0.1101477199
H   H117      1.0  0.97940  0.10990  0.45550  1.0000 0.0993371607
H   H118      1.0  0.04980  0.03760  0.43490  1.0000 0.1101477199
H   H119      1.0  0.18380  0.08650  0.50020  1.0000 0.1101477199
H   H120      1.0  0.05800  0.08700  0.53830  1.0000 0.0993371607
C   C1        1.0  0.58130  0.62110  0.07200  1.0000 0.6155147398
C   C2        1.0  0.63830  0.69660  0.07830  1.0000 -0.1189442334
C   C3        1.0  0.67990  0.73220  0.02830  1.0000 -0.1808616889
C   C4        1.0  0.73250  0.80880  0.03660  1.0000 -0.1872309824
C   C5        1.0  0.84870  0.81140  0.07430  1.0000 -0.1189442334
C   C6        1.0  0.81030  0.77400  0.12411  1.0000 -0.1808616889
C   C7        1.0  0.75650  0.69760  0.11580  1.0000 -0.1808616889
C   C8        1.0  0.90010  0.88750  0.08250  1.0000 0.6077946817
C   C9        1.0  0.58470  0.38890  0.08110  1.0000 0.6077946817
C   C10       1.0  0.63910  0.31180  0.07400  1.0000 -0.1118992348
C   C11       1.0  0.75830  0.31000  0.03730  1.0000 -0.1872309824
C   C12       1.0  0.81110  0.23230  0.03030  1.0000 -0.1808616889
C   C13       1.0  0.84720  0.19770  0.08060  1.0000 -0.1189442334
C   C14       1.0  0.72750  0.19810  0.11650  1.0000 -0.1808616889
C   C15       1.0  0.67500  0.27510  0.12460  1.0000 -0.1808616889
C   C16       1.0  0.90690  0.12110  0.07500  1.0000 0.6077946817
C   C17       1.0  0.76340  0.48700  0.93030  1.0000 0.5992379556
C   C18       1.0  0.86410  0.48400  0.97306  1.0000 -0.1189442334
C   C19       1.0  0.99060  0.44160  0.96060  1.0000 -0.1808616889
C   C20       1.0  0.08600  0.43980  0.00620  1.0000 -0.1808616889
C   C21       1.0  0.12250  0.51710  0.02324  1.0000 -0.1189442334
C   C22       1.0  0.99590  0.55960  0.03540  1.0000 -0.1808616889
C   C23       1.0  0.89970  0.56050  0.99030  1.0000 -0.1808616889
C   C24       1.0  0.22180  0.51320  0.06637  1.0000 0.5992379556
C   C25       1.0  0.08130  0.87890  0.92800  1.0000 0.6155147398
C   C26       1.0  0.13830  0.80340  0.92170  1.0000 -0.1189442334
C   C27       1.0  0.17990  0.76780  0.97170  1.0000 -0.1808616889
C   C28       1.0  0.23250  0.69120  0.96340  1.0000 -0.1872309824
C   C29       1.0  0.34870  0.68860  0.92570  1.0000 -0.1189442334
C   C30       1.0  0.31030  0.72600  0.87589  1.0000 -0.1808616889
C   C31       1.0  0.25650  0.80240  0.88420  1.0000 -0.1808616889
C   C32       1.0  0.40010  0.61250  0.91750  1.0000 0.6077946817
C   C33       1.0  0.08470  0.11110  0.91890  1.0000 0.6077946817
C   C34       1.0  0.13910  0.18820  0.92600  1.0000 -0.1118992348
C   C35       1.0  0.25830  0.19000  0.96270  1.0000 -0.1872309824
C   C36       1.0  0.31110  0.26770  0.96970  1.0000 -0.1808616889
C   C37       1.0  0.34720  0.30230  0.91940  1.0000 -0.1189442334
C   C38       1.0  0.22750  0.30190  0.88350  1.0000 -0.1808616889
C   C39       1.0  0.17500  0.22490  0.87540  1.0000 -0.1808616889
C   C40       1.0  0.40690  0.37890  0.92500  1.0000 0.6077946817
C   C41       1.0  0.26340  0.01300  0.06970  1.0000 0.5992379556
C   C42       1.0  0.36410  0.01600  0.02694  1.0000 -0.1189442334
C   C43       1.0  0.49060  0.05840  0.03940  1.0000 -0.1808616889
C   C44       1.0  0.58600  0.06020  0.99380  1.0000 -0.1808616889
C   C45       1.0  0.62250  0.98290  0.97676  1.0000 -0.1189442334
C   C46       1.0  0.49590  0.94040  0.96460  1.0000 -0.1808616889
C   C47       1.0  0.39970  0.93950  0.00970  1.0000 -0.1808616889
C   C48       1.0  0.72180  0.98680  0.93363  1.0000 0.5992379556
C   C49       1.0  0.91870  0.37890  0.57200  1.0000 0.6155147398
C   C50       1.0  0.86170  0.30340  0.57830  1.0000 -0.1189442334
C   C51       1.0  0.82010  0.26780  0.52830  1.0000 -0.1808616889
C   C52       1.0  0.76750  0.19120  0.53660  1.0000 -0.1872309824
C   C53       1.0  0.65130  0.18860  0.57430  1.0000 -0.1189442334
C   C54       1.0  0.68970  0.22600  0.62411  1.0000 -0.1808616889
C   C55       1.0  0.74350  0.30240  0.61580  1.0000 -0.1808616889
C   C56       1.0  0.59990  0.11250  0.58250  1.0000 0.6077946817
C   C57       1.0  0.91530  0.61110  0.58110  1.0000 0.6077946817
C   C58       1.0  0.86090  0.68820  0.57400  1.0000 -0.1118992348
C   C59       1.0  0.74170  0.69000  0.53730  1.0000 -0.1872309824
C   C60       1.0  0.68890  0.76770  0.53030  1.0000 -0.1808616889
C   C61       1.0  0.65280  0.80230  0.58060  1.0000 -0.1189442334
C   C62       1.0  0.77250  0.80190  0.61650  1.0000 -0.1808616889
C   C63       1.0  0.82500  0.72490  0.62460  1.0000 -0.1808616889
C   C64       1.0  0.59310  0.87890  0.57500  1.0000 0.6077946817
C   C65       1.0  0.73660  0.51300  0.43030  1.0000 0.5992379556
C   C66       1.0  0.63590  0.51600  0.47306  1.0000 -0.1189442334
C   C67       1.0  0.50940  0.55840  0.46060  1.0000 -0.1808616889
C   C68       1.0  0.41400  0.56020  0.50620  1.0000 -0.1808616889
C   C69       1.0  0.37750  0.48290  0.52324  1.0000 -0.1189442334
C   C70       1.0  0.50410  0.44040  0.53540  1.0000 -0.1808616889
C   C71       1.0  0.60030  0.43950  0.49030  1.0000 -0.1808616889
C   C72       1.0  0.27820  0.48680  0.56637  1.0000 0.5992379556
C   C73       1.0  0.41870  0.12110  0.42800  1.0000 0.6155147398
C   C74       1.0  0.36170  0.19660  0.42170  1.0000 -0.1189442334
C   C75       1.0  0.32010  0.23220  0.47170  1.0000 -0.1808616889
C   C76       1.0  0.26750  0.30880  0.46340  1.0000 -0.1872309824
C   C77       1.0  0.15130  0.31140  0.42570  1.0000 -0.1189442334
C   C78       1.0  0.18970  0.27400  0.37589  1.0000 -0.1808616889
C   C79       1.0  0.24350  0.19760  0.38420  1.0000 -0.1808616889
C   C80       1.0  0.09990  0.38750  0.41750  1.0000 0.6077946817
C   C81       1.0  0.41530  0.88890  0.41890  1.0000 0.6077946817
C   C82       1.0  0.36090  0.81180  0.42600  1.0000 -0.1118992348
C   C83       1.0  0.24170  0.81000  0.46270  1.0000 -0.1872309824
C   C84       1.0  0.18890  0.73230  0.46970  1.0000 -0.1808616889
C   C85       1.0  0.15280  0.69770  0.41940  1.0000 -0.1189442334
C   C86       1.0  0.27250  0.69810  0.38350  1.0000 -0.1808616889
C   C87       1.0  0.32500  0.77510  0.37540  1.0000 -0.1808616889
C   C88       1.0  0.09310  0.62110  0.42500  1.0000 0.6077946817
C   C89       1.0  0.23660  0.98700  0.56970  1.0000 0.5992379556
C   C90       1.0  0.13590  0.98400  0.52694  1.0000 -0.1189442334
C   C91       1.0  0.00940  0.94160  0.53940  1.0000 -0.1808616889
C   C92       1.0  0.91400  0.93980  0.49380  1.0000 -0.1808616889
C   C93       1.0  0.87750  0.01710  0.47676  1.0000 -0.1189442334
C   C94       1.0  0.00410  0.05960  0.46460  1.0000 -0.1808616889
C   C95       1.0  0.10030  0.06050  0.50970  1.0000 -0.1808616889
C   C96       1.0  0.77820  0.01320  0.43363  1.0000 0.5992379556
O   O1        1.0  0.54880  0.58950  0.11352  1.0000 -0.5881884625
O   O2        1.0  0.56510  0.59570  0.02831  1.0000 -0.5604567235
O   O3        1.0  0.87570  0.93590  0.05053  1.0000 -0.5840123674
O   O4        1.0  0.97070  0.89920  0.12243  1.0000 -0.5604567235
O   O5        1.0  0.51600  0.40190  0.12085  1.0000 -0.5604567235
O   O6        1.0  0.61050  0.43540  0.04786  1.0000 -0.5881884625
O   O7        1.0  0.92060  0.09580  0.03173  1.0000 -0.5517263268
O   O8        1.0  0.93670  0.08980  0.11649  1.0000 -0.5840123674
O   O9        1.0  0.64100  0.50320  0.94172  1.0000 -0.5994080459
O   O10       1.0  0.79350  0.47550  0.88537  1.0000 -0.4985238766
O   O11       1.0  0.34430  0.49530  0.05492  1.0000 -0.5994080459
O   O12       1.0  0.19310  0.52450  0.11081  1.0000 -0.4729582821
O   O13       1.0  0.04880  0.91050  0.88648  1.0000 -0.5881884625
O   O14       1.0  0.06510  0.90430  0.97169  1.0000 -0.5604567235
O   O15       1.0  0.37570  0.56410  0.94947  1.0000 -0.5840123674
O   O16       1.0  0.47070  0.60080  0.87757  1.0000 -0.5604567235
O   O17       1.0  0.01600  0.09810  0.87915  1.0000 -0.5604567235
O   O18       1.0  0.11050  0.06460  0.95214  1.0000 -0.5881884625
O   O19       1.0  0.42060  0.40420  0.96827  1.0000 -0.5517263268
O   O20       1.0  0.43670  0.41020  0.88351  1.0000 -0.5840123674
O   O21       1.0  0.14100  0.99680  0.05828  1.0000 -0.5994080459
O   O22       1.0  0.29350  0.02450  0.11463  1.0000 -0.4985238766
O   O23       1.0  0.84430  0.00470  0.94508  1.0000 -0.5994080459
O   O24       1.0  0.69310  0.97550  0.88919  1.0000 -0.4729582821
O   O25       1.0  0.95120  0.41050  0.61352  1.0000 -0.5881884625
O   O26       1.0  0.93490  0.40430  0.52831  1.0000 -0.5604567235
O   O27       1.0  0.62430  0.06410  0.55053  1.0000 -0.5840123674
O   O28       1.0  0.52930  0.10080  0.62243  1.0000 -0.5604567235
O   O29       1.0  0.98400  0.59810  0.62085  1.0000 -0.5604567235
O   O30       1.0  0.88950  0.56460  0.54786  1.0000 -0.5881884625
O   O31       1.0  0.57940  0.90420  0.53173  1.0000 -0.5517263268
O   O32       1.0  0.56330  0.91020  0.61649  1.0000 -0.5840123674
O   O33       1.0  0.85900  0.49680  0.44172  1.0000 -0.5994080459
O   O34       1.0  0.70650  0.52450  0.38537  1.0000 -0.4943517004
O   O35       1.0  0.15570  0.50470  0.55492  1.0000 -0.5994080459
O   O36       1.0  0.30690  0.47550  0.61081  1.0000 -0.4729582821
O   O37       1.0  0.45120  0.08950  0.38648  1.0000 -0.5881884625
O   O38       1.0  0.43490  0.09570  0.47169  1.0000 -0.5604567235
O   O39       1.0  0.12430  0.43590  0.44947  1.0000 -0.5840123674
O   O40       1.0  0.02930  0.39920  0.37757  1.0000 -0.5604567235
O   O41       1.0  0.48400  0.90190  0.37915  1.0000 -0.5604567235
O   O42       1.0  0.38950  0.93540  0.45214  1.0000 -0.5881884625
O   O43       1.0  0.07940  0.59580  0.46827  1.0000 -0.5517263268
O   O44       1.0  0.06330  0.58980  0.38351  1.0000 -0.5840123674
O   O45       1.0  0.35900  0.00320  0.55828  1.0000 -0.5994080459
O   O46       1.0  0.20650  0.97550  0.61463  1.0000 -0.4985238766
O   O47       1.0  0.65570  0.99530  0.44508  1.0000 -0.5994080459
O   O48       1.0  0.80690  0.02450  0.38919  1.0000 -0.4729582821
