# DDEC6 charges by PACMAN v1.1 (https://github.com/mtap-research/PACMAN-charge/)
data_2018[Zn][pth]3[ASR]1
_chemical_formula_sum              "Zn12 H168 C318 O48"
_cell_length_a       16.9917
_cell_length_b       16.9917
_cell_length_c       46.4157
_cell_angle_alpha    90
_cell_angle_beta     90
_cell_angle_gamma    120

_symmetry_space_group_name_H-M    "P 1"
_symmetry_Int_Tables_number       1

loop_
  _symmetry_equiv_pos_as_xyz
  'x, y, z'

loop_
  _atom_site_type_symbol
  _atom_site_label
  _atom_site_symmetry_multiplicity
  _atom_site_fract_x
  _atom_site_fract_y
  _atom_site_fract_z
  _atom_site_occupancy
  _atom_site_charge
Zn  Zn1       1.0  0.43659  0.76682  0.70177  1.0000 0.9205013346
Zn  Zn2       1.0  0.04186  0.51943  0.00911  1.0000 0.9604682755
Zn  Zn3       1.0  0.23318  0.66977  0.03510  1.0000 0.9205013346
Zn  Zn4       1.0  0.48057  0.52243  0.34244  1.0000 0.9604682755
Zn  Zn5       1.0  0.33023  0.56341  0.36844  1.0000 0.9205013346
Zn  Zn6       1.0  0.47757  0.95814  0.67578  1.0000 0.9604682755
Zn  Zn7       1.0  0.66977  0.23318  0.96489  1.0000 0.9205013346
Zn  Zn8       1.0  0.52243  0.48057  0.65756  1.0000 0.9604682755
Zn  Zn9       1.0  0.56341  0.33023  0.63156  1.0000 0.9205013346
Zn  Zn10      1.0  0.95814  0.47757  0.32422  1.0000 0.9604682755
Zn  Zn11      1.0  0.76682  0.43659  0.29823  1.0000 0.9205013346
Zn  Zn12      1.0  0.51943  0.04186  0.99089  1.0000 0.9604682755
H   H1        1.0  0.61086  0.98468  0.78162  1.0000 0.1184201647
H   H2        1.0  0.60647  0.07497  0.81689  1.0000 0.1115752861
H   H3        1.0  0.39646  0.07348  0.77832  1.0000 0.1115752861
H   H4        1.0  0.40081  0.98406  0.74214  1.0000 0.1115752861
H   H5        1.0  0.61701  0.18148  0.84223  1.0000 0.1115752861
H   H6        1.0  0.60703  0.25836  0.88213  1.0000 0.1295319474
H   H7        1.0  0.35895  0.10429  0.82037  1.0000 0.1184201647
H   H8        1.0  0.56040  0.33492  0.92534  1.0000 0.1295319474
H   H9        1.0  0.49327  0.39514  0.95428  1.0000 0.1115752861
H   H10       1.0  0.27229  0.28980  0.90376  1.0000 0.1184201647
H   H11       1.0  0.45626  0.49841  0.96662  1.0000 0.1184201647
H   H12       1.0  0.39369  0.56831  0.99255  1.0000 0.1295319474
H   H13       1.0  0.14660  0.38047  0.96648  1.0000 0.1184201647
H   H14       1.0  0.20891  0.30252  0.94330  1.0000 0.1184201647
H   H15       1.0  0.26637  0.56548  0.76987  1.0000 0.1184201647
H   H16       1.0  0.20814  0.44023  0.79985  1.0000 0.1184201647
H   H17       1.0  0.40885  0.39536  0.77651  1.0000 0.1184201647
H   H18       1.0  0.46008  0.51431  0.74316  1.0000 0.1295319474
H   H19       1.0  0.13186  0.28027  0.79990  1.0000 0.1184201647
H   H20       1.0  0.06565  0.15203  0.82855  1.0000 0.1184201647
H   H21       1.0  0.38157  0.33783  0.82573  1.0000 0.1295319474
H   H22       1.0  0.02531  0.01106  0.86409  1.0000 0.1184201647
H   H23       1.0  0.02299  0.90497  0.89569  1.0000 0.1115752861
H   H24       1.0  0.29484  0.05289  0.90487  1.0000 0.1184201647
H   H25       1.0  0.26051  0.99013  0.95036  1.0000 0.1184201647
H   H26       1.0  0.25391  0.88823  0.98450  1.0000 0.1295319474
H   H27       1.0  0.03685  0.68875  0.94394  1.0000 0.1184201647
H   H28       1.0  0.04673  0.78976  0.90868  1.0000 0.1115752861
H   H29       1.0  0.01532  0.62618  0.11496  1.0000 0.1184201647
H   H30       1.0  0.92503  0.53150  0.15022  1.0000 0.1115752861
H   H31       1.0  0.92652  0.32298  0.11166  1.0000 0.1115752861
H   H32       1.0  0.01594  0.41675  0.07548  1.0000 0.1115752861
H   H33       1.0  0.81852  0.43553  0.17557  1.0000 0.1115752861
H   H34       1.0  0.74164  0.34867  0.21546  1.0000 0.1295319474
H   H35       1.0  0.89571  0.25466  0.15371  1.0000 0.1184201647
H   H36       1.0  0.66508  0.22548  0.25867  1.0000 0.1295319474
H   H37       1.0  0.60486  0.09813  0.28762  1.0000 0.1115752861
H   H38       1.0  0.71020  0.98249  0.23710  1.0000 0.1184201647
H   H39       1.0  0.50159  0.95785  0.29996  1.0000 0.1184201647
H   H40       1.0  0.43169  0.82538  0.32588  1.0000 0.1295319474
H   H41       1.0  0.61953  0.76613  0.29981  1.0000 0.1184201647
H   H42       1.0  0.69748  0.90639  0.27664  1.0000 0.1184201647
H   H43       1.0  0.43452  0.70089  0.10321  1.0000 0.1184201647
H   H44       1.0  0.55977  0.76791  0.13318  1.0000 0.1184201647
H   H45       1.0  0.60464  0.01349  0.10985  1.0000 0.1184201647
H   H46       1.0  0.48569  0.94577  0.07649  1.0000 0.1295319474
H   H47       1.0  0.71973  0.85159  0.13323  1.0000 0.1184201647
H   H48       1.0  0.84797  0.91362  0.16189  1.0000 0.1184201647
H   H49       1.0  0.66217  0.04374  0.15907  1.0000 0.1295319474
H   H50       1.0  0.98894  0.01425  0.19742  1.0000 0.1184201647
H   H51       1.0  0.09503  0.11802  0.22903  1.0000 0.1115752861
H   H52       1.0  0.94711  0.24195  0.23821  1.0000 0.1184201647
H   H53       1.0  0.00987  0.27038  0.28369  1.0000 0.1184201647
H   H54       1.0  0.11177  0.36568  0.31783  1.0000 0.1295319474
H   H55       1.0  0.31125  0.34810  0.27727  1.0000 0.1184201647
H   H56       1.0  0.21024  0.25697  0.24202  1.0000 0.1115752861
H   H57       1.0  0.37382  0.38914  0.44829  1.0000 0.1184201647
H   H58       1.0  0.46850  0.39353  0.48356  1.0000 0.1115752861
H   H59       1.0  0.67702  0.60354  0.44499  1.0000 0.1115752861
H   H60       1.0  0.58325  0.59919  0.40881  1.0000 0.1115752861
H   H61       1.0  0.56447  0.38299  0.50890  1.0000 0.1115752861
H   H62       1.0  0.65133  0.39297  0.54880  1.0000 0.1295319474
H   H63       1.0  0.74534  0.64105  0.48704  1.0000 0.1184201647
H   H64       1.0  0.77452  0.43960  0.59201  1.0000 0.1295319474
H   H65       1.0  0.90187  0.50673  0.62095  1.0000 0.1115752861
H   H66       1.0  0.01751  0.72771  0.57043  1.0000 0.1184201647
H   H67       1.0  0.04215  0.54374  0.63329  1.0000 0.1184201647
H   H68       1.0  0.17462  0.60631  0.65922  1.0000 0.1295319474
H   H69       1.0  0.23387  0.85340  0.63315  1.0000 0.1184201647
H   H70       1.0  0.09361  0.79109  0.60997  1.0000 0.1184201647
H   H71       1.0  0.29911  0.73363  0.43654  1.0000 0.1184201647
H   H72       1.0  0.23209  0.79186  0.46652  1.0000 0.1184201647
H   H73       1.0  0.98651  0.59115  0.44318  1.0000 0.1184201647
H   H74       1.0  0.05423  0.53992  0.40983  1.0000 0.1295319474
H   H75       1.0  0.14841  0.86814  0.46657  1.0000 0.1184201647
H   H76       1.0  0.08638  0.93435  0.49522  1.0000 0.1184201647
H   H77       1.0  0.95626  0.61843  0.49240  1.0000 0.1295319474
H   H78       1.0  0.98575  0.97469  0.53076  1.0000 0.1184201647
H   H79       1.0  0.88198  0.97701  0.56236  1.0000 0.1115752861
H   H80       1.0  0.75805  0.70516  0.57154  1.0000 0.1184201647
H   H81       1.0  0.72962  0.73949  0.61703  1.0000 0.1184201647
H   H82       1.0  0.63432  0.74609  0.65117  1.0000 0.1295319474
H   H83       1.0  0.65190  0.96315  0.61061  1.0000 0.1184201647
H   H84       1.0  0.74303  0.95327  0.57535  1.0000 0.1115752861
H   H85       1.0  0.62618  0.01532  0.88504  1.0000 0.1184201647
H   H86       1.0  0.53150  0.92503  0.84978  1.0000 0.1115752861
H   H87       1.0  0.32298  0.92652  0.88835  1.0000 0.1115752861
H   H88       1.0  0.41675  0.01594  0.92453  1.0000 0.1115752861
H   H89       1.0  0.43553  0.81852  0.82444  1.0000 0.1115752861
H   H90       1.0  0.34867  0.74164  0.78453  1.0000 0.1295319474
H   H91       1.0  0.25466  0.89571  0.84630  1.0000 0.1184201647
H   H92       1.0  0.22548  0.66508  0.74133  1.0000 0.1295319474
H   H93       1.0  0.09813  0.60486  0.71239  1.0000 0.1184201647
H   H94       1.0  0.98249  0.71020  0.76291  1.0000 0.1184201647
H   H95       1.0  0.95785  0.50159  0.70005  1.0000 0.1184201647
H   H96       1.0  0.82538  0.43169  0.67412  1.0000 0.1295319474
H   H97       1.0  0.76613  0.61953  0.70018  1.0000 0.1184201647
H   H98       1.0  0.90639  0.69748  0.72337  1.0000 0.1184201647
H   H99       1.0  0.70089  0.43452  0.89680  1.0000 0.1184201647
H   H100      1.0  0.76791  0.55977  0.86682  1.0000 0.1184201647
H   H101      1.0  0.01349  0.60464  0.89016  1.0000 0.1184201647
H   H102      1.0  0.94577  0.48569  0.92351  1.0000 0.1295319474
H   H103      1.0  0.85159  0.71973  0.86677  1.0000 0.1184201647
H   H104      1.0  0.91362  0.84797  0.83812  1.0000 0.1184201647
H   H105      1.0  0.04374  0.66217  0.84093  1.0000 0.1295319474
H   H106      1.0  0.01425  0.98894  0.80258  1.0000 0.1184201647
H   H107      1.0  0.11802  0.09503  0.77097  1.0000 0.1115752861
H   H108      1.0  0.24195  0.94711  0.76179  1.0000 0.1184201647
H   H109      1.0  0.27038  0.00987  0.71630  1.0000 0.1184201647
H   H110      1.0  0.36568  0.11177  0.68217  1.0000 0.1295319474
H   H111      1.0  0.34810  0.31125  0.72272  1.0000 0.1184201647
H   H112      1.0  0.25697  0.21024  0.75799  1.0000 0.1115752861
H   H113      1.0  0.38914  0.37382  0.55171  1.0000 0.1184201647
H   H114      1.0  0.39353  0.46850  0.51644  1.0000 0.1115752861
H   H115      1.0  0.60354  0.67702  0.55501  1.0000 0.1115752861
H   H116      1.0  0.59919  0.58325  0.59119  1.0000 0.1115752861
H   H117      1.0  0.38299  0.56447  0.49110  1.0000 0.1115752861
H   H118      1.0  0.39297  0.65133  0.45120  1.0000 0.1295319474
H   H119      1.0  0.64105  0.74534  0.51296  1.0000 0.1184201647
H   H120      1.0  0.43960  0.77452  0.40799  1.0000 0.1295319474
H   H121      1.0  0.50673  0.90187  0.37905  1.0000 0.1115752861
H   H122      1.0  0.72771  0.01751  0.42957  1.0000 0.1184201647
H   H123      1.0  0.54374  0.04215  0.36671  1.0000 0.1184201647
H   H124      1.0  0.60631  0.17462  0.34078  1.0000 0.1295319474
H   H125      1.0  0.85340  0.23387  0.36685  1.0000 0.1184201647
H   H126      1.0  0.79109  0.09361  0.39003  1.0000 0.1184201647
H   H127      1.0  0.73363  0.29911  0.56346  1.0000 0.1184201647
H   H128      1.0  0.79186  0.23209  0.53348  1.0000 0.1184201647
H   H129      1.0  0.59115  0.98651  0.55682  1.0000 0.1184201647
H   H130      1.0  0.53992  0.05423  0.59017  1.0000 0.1295319474
H   H131      1.0  0.86814  0.14841  0.53343  1.0000 0.1184201647
H   H132      1.0  0.93435  0.08638  0.50478  1.0000 0.1184201647
H   H133      1.0  0.61843  0.95626  0.50760  1.0000 0.1295319474
H   H134      1.0  0.97469  0.98575  0.46924  1.0000 0.1184201647
H   H135      1.0  0.97701  0.88198  0.43764  1.0000 0.1115752861
H   H136      1.0  0.70516  0.75805  0.42846  1.0000 0.1184201647
H   H137      1.0  0.73949  0.72962  0.38297  1.0000 0.1184201647
H   H138      1.0  0.74609  0.63432  0.34883  1.0000 0.1295319474
H   H139      1.0  0.96315  0.65190  0.38939  1.0000 0.1184201647
H   H140      1.0  0.95327  0.74303  0.42465  1.0000 0.1115752861
H   H141      1.0  0.98468  0.61086  0.21838  1.0000 0.1184201647
H   H142      1.0  0.07497  0.60647  0.18311  1.0000 0.1115752861
H   H143      1.0  0.07348  0.39646  0.22168  1.0000 0.1115752861
H   H144      1.0  0.98406  0.40081  0.25786  1.0000 0.1115752861
H   H145      1.0  0.18148  0.61701  0.15777  1.0000 0.1115752861
H   H146      1.0  0.25836  0.60703  0.11787  1.0000 0.1295319474
H   H147      1.0  0.10429  0.35895  0.17963  1.0000 0.1184201647
H   H148      1.0  0.33492  0.56040  0.07466  1.0000 0.1295319474
H   H149      1.0  0.39514  0.49327  0.04572  1.0000 0.1115752861
H   H150      1.0  0.28980  0.27229  0.09624  1.0000 0.1184201647
H   H151      1.0  0.49841  0.45626  0.03338  1.0000 0.1184201647
H   H152      1.0  0.56831  0.39369  0.00745  1.0000 0.1295319474
H   H153      1.0  0.38047  0.14660  0.03352  1.0000 0.1184201647
H   H154      1.0  0.30252  0.20891  0.05670  1.0000 0.1184201647
H   H155      1.0  0.56548  0.26637  0.23013  1.0000 0.1184201647
H   H156      1.0  0.44023  0.20814  0.20015  1.0000 0.1184201647
H   H157      1.0  0.39536  0.40885  0.22349  1.0000 0.1184201647
H   H158      1.0  0.51431  0.46008  0.25684  1.0000 0.1295319474
H   H159      1.0  0.28027  0.13186  0.20010  1.0000 0.1184201647
H   H160      1.0  0.15203  0.06565  0.17145  1.0000 0.1184201647
H   H161      1.0  0.33783  0.38157  0.17427  1.0000 0.1295319474
H   H162      1.0  0.01106  0.02531  0.13591  1.0000 0.1184201647
H   H163      1.0  0.90497  0.02299  0.10431  1.0000 0.1115752861
H   H164      1.0  0.05289  0.29484  0.09513  1.0000 0.1184201647
H   H165      1.0  0.99013  0.26051  0.04964  1.0000 0.1184201647
H   H166      1.0  0.88823  0.25391  0.01550  1.0000 0.1295319474
H   H167      1.0  0.68875  0.03685  0.05606  1.0000 0.1184201647
H   H168      1.0  0.78976  0.04673  0.09132  1.0000 0.1115752861
C   C1        1.0  0.50400  0.90650  0.73659  1.0000 0.5628183018
C   C2        1.0  0.50500  0.97070  0.75865  1.0000 -0.0282770657
C   C3        1.0  0.56640  0.00130  0.78096  1.0000 -0.088134852
C   C4        1.0  0.56370  0.05550  0.80217  1.0000 -0.1499836897
C   C5        1.0  0.49740  0.08280  0.80235  1.0000 0.0781274055
C   C6        1.0  0.43940  0.05490  0.77932  1.0000 -0.1499836897
C   C7        1.0  0.44130  0.00070  0.75748  1.0000 -0.1106695937
C   C8        1.0  0.48990  0.13520  0.82681  1.0000 0.0721167869
C   C9        1.0  0.56320  0.18170  0.84574  1.0000 -0.1499836897
C   C10       1.0  0.55780  0.22830  0.86971  1.0000 -0.1247827281
C   C11       1.0  0.47810  0.22910  0.87463  1.0000 0.0116934968
C   C12       1.0  0.40470  0.18480  0.85570  1.0000 0.0208012399
C   C13       1.0  0.40920  0.13610  0.83229  1.0000 -0.1968963774
C   C14       1.0  0.45410  0.27350  0.89706  1.0000 0.0208012399
C   C15       1.0  0.50280  0.32540  0.92105  1.0000 -0.1270892416
C   C16       1.0  0.46220  0.36200  0.93808  1.0000 -0.1499836897
C   C17       1.0  0.37820  0.35170  0.93227  1.0000 0.0721167869
C   C18       1.0  0.32930  0.29800  0.90824  1.0000 -0.1931809653
C   C19       1.0  0.36670  0.25830  0.89161  1.0000 0.0208012399
C   C20       1.0  0.33890  0.39570  0.95007  1.0000 0.0781274055
C   C21       1.0  0.39360  0.47430  0.96637  1.0000 -0.1499836897
C   C22       1.0  0.35570  0.51640  0.98204  1.0000 -0.0814534076
C   C23       1.0  0.26440  0.48400  0.98257  1.0000 -0.0712258897
C   C24       1.0  0.20910  0.40380  0.96693  1.0000 -0.0814534076
C   C25       1.0  0.24690  0.35830  0.95195  1.0000 -0.1499836897
C   C26       1.0  0.22190  0.52810  0.99778  1.0000 0.6021484863
C   C27       1.0  0.39900  0.62980  0.73278  1.0000 0.5543491175
C   C28       1.0  0.36770  0.55120  0.75332  1.0000 -0.0186300683
C   C29       1.0  0.29370  0.52980  0.77054  1.0000 -0.0973844647
C   C30       1.0  0.25960  0.45550  0.78888  1.0000 -0.1499836897
C   C31       1.0  0.30170  0.40420  0.79094  1.0000 0.0621850769
C   C32       1.0  0.37840  0.42780  0.77455  1.0000 -0.1499836897
C   C33       1.0  0.41050  0.50050  0.75492  1.0000 -0.088134852
C   C34       1.0  0.26350  0.32270  0.80980  1.0000 0.0721167869
C   C35       1.0  0.16860  0.26590  0.81094  1.0000 -0.1615413446
C   C36       1.0  0.12850  0.18900  0.82805  1.0000 -0.1499836897
C   C37       1.0  0.18390  0.16790  0.84452  1.0000 0.0116934968
C   C38       1.0  0.27920  0.22560  0.84415  1.0000 0.0301815004
C   C39       1.0  0.31870  0.30140  0.82649  1.0000 -0.1968963774
C   C40       1.0  0.16250  0.09320  0.86446  1.0000 0.0116934968
C   C41       1.0  0.07910  0.01870  0.87192  1.0000 -0.1499836897
C   C42       1.0  0.07810  0.95640  0.89126  1.0000 -0.1615413446
C   C43       1.0  0.15840  0.96840  0.90454  1.0000 0.0721167869
C   C44       1.0  0.24100  0.04360  0.89658  1.0000 -0.1931809653
C   C45       1.0  0.24320  0.10450  0.87642  1.0000 0.0208012399
C   C46       1.0  0.15270  0.90140  0.92604  1.0000 0.0781274055
C   C47       1.0  0.21550  0.92940  0.94903  1.0000 -0.1499836897
C   C48       1.0  0.21160  0.86860  0.96963  1.0000 -0.0814534076
C   C49       1.0  0.14290  0.77680  0.96784  1.0000 -0.0467108632
C   C50       1.0  0.08220  0.74930  0.94518  1.0000 -0.088134852
C   C51       1.0  0.08730  0.81040  0.92405  1.0000 -0.1615413446
C   C52       1.0  0.13870  0.71020  0.98921  1.0000 0.6021484863
C   C53       1.0  0.32520  0.19380  0.86602  1.0000 0.0301815004
C   C54       1.0  0.09350  0.59750  0.06993  1.0000 0.5628183018
C   C55       1.0  0.02930  0.53430  0.09198  1.0000 -0.0282770657
C   C56       1.0  0.99870  0.56510  0.11429  1.0000 -0.088134852
C   C57       1.0  0.94450  0.50820  0.13550  1.0000 -0.1499836897
C   C58       1.0  0.91720  0.41460  0.13569  1.0000 0.0781274055
C   C59       1.0  0.94510  0.38450  0.11266  1.0000 -0.1499836897
C   C60       1.0  0.99930  0.44060  0.09082  1.0000 -0.1106695937
C   C61       1.0  0.86480  0.35470  0.16015  1.0000 0.0721167869
C   C62       1.0  0.81830  0.38150  0.17908  1.0000 -0.1499836897
C   C63       1.0  0.77170  0.32950  0.20305  1.0000 -0.1247827281
C   C64       1.0  0.77090  0.24900  0.20797  1.0000 0.0116934968
C   C65       1.0  0.81520  0.21990  0.18904  1.0000 0.0208012399
C   C66       1.0  0.86390  0.27310  0.16562  1.0000 -0.1968963774
C   C67       1.0  0.72650  0.18060  0.23039  1.0000 0.0208012399
C   C68       1.0  0.67460  0.17740  0.25438  1.0000 -0.1270892416
C   C69       1.0  0.63800  0.10020  0.27142  1.0000 -0.1499836897
C   C70       1.0  0.64830  0.02650  0.26560  1.0000 0.0721167869
C   C71       1.0  0.70200  0.03130  0.24158  1.0000 -0.1931809653
C   C72       1.0  0.74170  0.10840  0.22495  1.0000 0.0208012399
C   C73       1.0  0.60430  0.94320  0.28341  1.0000 0.0781274055
C   C74       1.0  0.52570  0.91930  0.29970  1.0000 -0.1499836897
C   C75       1.0  0.48360  0.83930  0.31538  1.0000 -0.0814534076
C   C76       1.0  0.51600  0.78040  0.31590  1.0000 -0.0712258897
C   C77       1.0  0.59620  0.80530  0.30027  1.0000 -0.0814534076
C   C78       1.0  0.64170  0.88860  0.28529  1.0000 -0.1499836897
C   C79       1.0  0.47190  0.69380  0.33111  1.0000 0.6021484863
C   C80       1.0  0.37020  0.76920  0.06611  1.0000 0.5543491175
C   C81       1.0  0.44880  0.81650  0.08666  1.0000 -0.0186300683
C   C82       1.0  0.47020  0.76390  0.10387  1.0000 -0.0973844647
C   C83       1.0  0.54450  0.80410  0.12222  1.0000 -0.1499836897
C   C84       1.0  0.59580  0.89750  0.12427  1.0000 0.0621850769
C   C85       1.0  0.57220  0.95060  0.10789  1.0000 -0.1499836897
C   C86       1.0  0.49950  0.91000  0.08826  1.0000 -0.088134852
C   C87       1.0  0.67730  0.94080  0.14314  1.0000 0.0721167869
C   C88       1.0  0.73410  0.90270  0.14427  1.0000 -0.1615413446
C   C89       1.0  0.81100  0.93950  0.16139  1.0000 -0.1499836897
C   C90       1.0  0.83210  0.01600  0.17786  1.0000 0.0116934968
C   C91       1.0  0.77440  0.05360  0.17749  1.0000 0.0301815004
C   C92       1.0  0.69860  0.01730  0.15982  1.0000 -0.1968963774
C   C93       1.0  0.90680  0.06930  0.19780  1.0000 0.0116934968
C   C94       1.0  0.98130  0.06040  0.20526  1.0000 -0.1499836897
C   C95       1.0  0.04360  0.12170  0.22459  1.0000 -0.1615413446
C   C96       1.0  0.03160  0.19000  0.23788  1.0000 0.0721167869
C   C97       1.0  0.95640  0.19740  0.22992  1.0000 -0.1931809653
C   C98       1.0  0.89550  0.13870  0.20975  1.0000 0.0208012399
C   C99       1.0  0.09860  0.25130  0.25938  1.0000 0.0781274055
C   C100      1.0  0.07060  0.28610  0.28236  1.0000 -0.1499836897
C   C101      1.0  0.13140  0.34300  0.30296  1.0000 -0.0814534076
C   C102      1.0  0.22320  0.36610  0.30118  1.0000 -0.0467108632
C   C103      1.0  0.25070  0.33290  0.27852  1.0000 -0.088134852
C   C104      1.0  0.18960  0.27690  0.25738  1.0000 -0.1615413446
C   C105      1.0  0.28980  0.42850  0.32255  1.0000 0.6021484863
C   C106      1.0  0.80620  0.13140  0.19936  1.0000 0.0301815004
C   C107      1.0  0.40250  0.49600  0.40326  1.0000 0.5628183018
C   C108      1.0  0.46570  0.49500  0.42532  1.0000 -0.0282770657
C   C109      1.0  0.43490  0.43360  0.44763  1.0000 -0.088134852
C   C110      1.0  0.49180  0.43630  0.46884  1.0000 -0.1499836897
C   C111      1.0  0.58540  0.50260  0.46902  1.0000 0.0781274055
C   C112      1.0  0.61550  0.56060  0.44599  1.0000 -0.1499836897
C   C113      1.0  0.55940  0.55870  0.42415  1.0000 -0.1106695937
C   C114      1.0  0.64530  0.51010  0.49348  1.0000 0.0721167869
C   C115      1.0  0.61850  0.43680  0.51241  1.0000 -0.1499836897
C   C116      1.0  0.67050  0.44220  0.53638  1.0000 -0.1247827281
C   C117      1.0  0.75100  0.52190  0.54130  1.0000 0.0116934968
C   C118      1.0  0.78010  0.59530  0.52237  1.0000 0.0208012399
C   C119      1.0  0.72690  0.59080  0.49896  1.0000 -0.1968963774
C   C120      1.0  0.81940  0.54590  0.56373  1.0000 0.0208012399
C   C121      1.0  0.82260  0.49720  0.58772  1.0000 -0.1270892416
C   C122      1.0  0.89980  0.53780  0.60475  1.0000 -0.1499836897
C   C123      1.0  0.97350  0.62180  0.59894  1.0000 0.0721167869
C   C124      1.0  0.96870  0.67070  0.57491  1.0000 -0.1931809653
C   C125      1.0  0.89160  0.63330  0.55828  1.0000 0.0208012399
C   C126      1.0  0.05680  0.66110  0.61674  1.0000 0.0781274055
C   C127      1.0  0.08070  0.60640  0.63304  1.0000 -0.1499836897
C   C128      1.0  0.16070  0.64430  0.64871  1.0000 -0.0814534076
C   C129      1.0  0.21960  0.73560  0.64924  1.0000 -0.0712258897
C   C130      1.0  0.19470  0.79090  0.63360  1.0000 -0.0814534076
C   C131      1.0  0.11140  0.75310  0.61862  1.0000 -0.1499836897
C   C132      1.0  0.30620  0.77810  0.66445  1.0000 0.6021484863
C   C133      1.0  0.23080  0.60100  0.39945  1.0000 0.5543491175
C   C134      1.0  0.18350  0.63230  0.41999  1.0000 -0.0186300683
C   C135      1.0  0.23610  0.70630  0.43721  1.0000 -0.0973844647
C   C136      1.0  0.19590  0.74040  0.45555  1.0000 -0.1499836897
C   C137      1.0  0.10250  0.69830  0.45761  1.0000 0.0621850769
C   C138      1.0  0.04940  0.62160  0.44122  1.0000 -0.1499836897
C   C139      1.0  0.09000  0.58950  0.42159  1.0000 -0.088134852
C   C140      1.0  0.05920  0.73650  0.47647  1.0000 0.0721167869
C   C141      1.0  0.09730  0.83140  0.47761  1.0000 -0.1615413446
C   C142      1.0  0.06050  0.87150  0.49472  1.0000 -0.1499836897
C   C143      1.0  0.98400  0.81610  0.51119  1.0000 0.0116934968
C   C144      1.0  0.94640  0.72080  0.51082  1.0000 0.0301815004
C   C145      1.0  0.98270  0.68130  0.49316  1.0000 -0.1968963774
C   C146      1.0  0.93070  0.83750  0.53113  1.0000 0.0116934968
C   C147      1.0  0.93960  0.92090  0.53859  1.0000 -0.1499836897
C   C148      1.0  0.87830  0.92190  0.55793  1.0000 -0.1615413446
C   C149      1.0  0.81000  0.84160  0.57121  1.0000 0.0721167869
C   C150      1.0  0.80260  0.75900  0.56325  1.0000 -0.1931809653
C   C151      1.0  0.86130  0.75680  0.54309  1.0000 0.0208012399
C   C152      1.0  0.74870  0.84730  0.59271  1.0000 0.0781274055
C   C153      1.0  0.71390  0.78450  0.61570  1.0000 -0.1499836897
C   C154      1.0  0.65700  0.78840  0.63630  1.0000 -0.0814534076
C   C155      1.0  0.63390  0.85710  0.63451  1.0000 -0.0467108632
C   C156      1.0  0.66710  0.91780  0.61185  1.0000 -0.088134852
C   C157      1.0  0.72310  0.91270  0.59072  1.0000 -0.1615413446
C   C158      1.0  0.57150  0.86130  0.65588  1.0000 0.6021484863
C   C159      1.0  0.86860  0.67480  0.53269  1.0000 0.0301815004
C   C160      1.0  0.59750  0.09350  0.93007  1.0000 0.5628183018
C   C161      1.0  0.53430  0.02930  0.90802  1.0000 -0.0282770657
C   C162      1.0  0.56510  0.99870  0.88570  1.0000 -0.088134852
C   C163      1.0  0.50820  0.94450  0.86450  1.0000 -0.1499836897
C   C164      1.0  0.41460  0.91720  0.86432  1.0000 0.0781274055
C   C165      1.0  0.38450  0.94510  0.88735  1.0000 -0.1499836897
C   C166      1.0  0.44060  0.99930  0.90919  1.0000 -0.1106695937
C   C167      1.0  0.35470  0.86480  0.83986  1.0000 0.0721167869
C   C168      1.0  0.38150  0.81830  0.82093  1.0000 -0.1499836897
C   C169      1.0  0.32950  0.77170  0.79696  1.0000 -0.1247827281
C   C170      1.0  0.24900  0.77090  0.79204  1.0000 0.0116934968
C   C171      1.0  0.21990  0.81520  0.81097  1.0000 0.0208012399
C   C172      1.0  0.27310  0.86390  0.83437  1.0000 -0.1968963774
C   C173      1.0  0.18060  0.72650  0.76960  1.0000 0.0208012399
C   C174      1.0  0.17740  0.67460  0.74562  1.0000 -0.1270892416
C   C175      1.0  0.10020  0.63800  0.72859  1.0000 -0.1499836897
C   C176      1.0  0.02650  0.64830  0.73440  1.0000 0.0721167869
C   C177      1.0  0.03130  0.70200  0.75843  1.0000 -0.1931809653
C   C178      1.0  0.10840  0.74170  0.77506  1.0000 0.0208012399
C   C179      1.0  0.94320  0.60430  0.71659  1.0000 0.0781274055
C   C180      1.0  0.91930  0.52570  0.70030  1.0000 -0.1499836897
C   C181      1.0  0.83930  0.48360  0.68463  1.0000 -0.0814534076
C   C182      1.0  0.78040  0.51600  0.68410  1.0000 -0.0712258897
C   C183      1.0  0.80530  0.59620  0.69973  1.0000 -0.0814534076
C   C184      1.0  0.88860  0.64170  0.71471  1.0000 -0.1499836897
C   C185      1.0  0.69380  0.47190  0.66888  1.0000 0.6021484863
C   C186      1.0  0.76920  0.37020  0.93388  1.0000 0.5543491175
C   C187      1.0  0.81650  0.44880  0.91334  1.0000 -0.0186300683
C   C188      1.0  0.76390  0.47020  0.89612  1.0000 -0.0973844647
C   C189      1.0  0.80410  0.54450  0.87779  1.0000 -0.1499836897
C   C190      1.0  0.89750  0.59580  0.87573  1.0000 0.0621850769
C   C191      1.0  0.95060  0.57220  0.89211  1.0000 -0.1499836897
C   C192      1.0  0.91000  0.49950  0.91175  1.0000 -0.088134852
C   C193      1.0  0.94080  0.67730  0.85687  1.0000 0.0721167869
C   C194      1.0  0.90270  0.73410  0.85572  1.0000 -0.1615413446
C   C195      1.0  0.93950  0.81100  0.83861  1.0000 -0.1499836897
C   C196      1.0  0.01600  0.83210  0.82215  1.0000 0.0116934968
C   C197      1.0  0.05360  0.77440  0.82251  1.0000 0.0301815004
C   C198      1.0  0.01730  0.69860  0.84018  1.0000 -0.1968963774
C   C199      1.0  0.06930  0.90680  0.80220  1.0000 0.0116934968
C   C200      1.0  0.06040  0.98130  0.79475  1.0000 -0.1499836897
C   C201      1.0  0.12170  0.04360  0.77541  1.0000 -0.1615413446
C   C202      1.0  0.19000  0.03160  0.76213  1.0000 0.0721167869
C   C203      1.0  0.19740  0.95640  0.77009  1.0000 -0.1931809653
C   C204      1.0  0.13870  0.89550  0.79025  1.0000 0.0208012399
C   C205      1.0  0.25130  0.09860  0.74062  1.0000 0.0781274055
C   C206      1.0  0.28610  0.07060  0.71764  1.0000 -0.1499836897
C   C207      1.0  0.34300  0.13140  0.69703  1.0000 -0.0814534076
C   C208      1.0  0.36610  0.22320  0.69883  1.0000 -0.0467108632
C   C209      1.0  0.33290  0.25070  0.72149  1.0000 -0.088134852
C   C210      1.0  0.27690  0.18960  0.74262  1.0000 -0.1615413446
C   C211      1.0  0.42850  0.28980  0.67746  1.0000 0.6021484863
C   C212      1.0  0.13140  0.80620  0.80065  1.0000 0.0301815004
C   C213      1.0  0.49600  0.40250  0.59674  1.0000 0.5628183018
C   C214      1.0  0.49500  0.46570  0.57468  1.0000 -0.0282770657
C   C215      1.0  0.43360  0.43490  0.55237  1.0000 -0.088134852
C   C216      1.0  0.43630  0.49180  0.53116  1.0000 -0.1499836897
C   C217      1.0  0.50260  0.58540  0.53098  1.0000 0.0781274055
C   C218      1.0  0.56060  0.61550  0.55401  1.0000 -0.1499836897
C   C219      1.0  0.55870  0.55940  0.57585  1.0000 -0.1106695937
C   C220      1.0  0.51010  0.64530  0.50652  1.0000 0.0721167869
C   C221      1.0  0.43680  0.61850  0.48759  1.0000 -0.1499836897
C   C222      1.0  0.44220  0.67050  0.46362  1.0000 -0.1247827281
C   C223      1.0  0.52190  0.75100  0.45870  1.0000 0.0116934968
C   C224      1.0  0.59530  0.78010  0.47763  1.0000 0.0208012399
C   C225      1.0  0.59080  0.72690  0.50104  1.0000 -0.1968963774
C   C226      1.0  0.54590  0.81940  0.43627  1.0000 0.0208012399
C   C227      1.0  0.49720  0.82260  0.41228  1.0000 -0.1270892416
C   C228      1.0  0.53780  0.89980  0.39525  1.0000 -0.1499836897
C   C229      1.0  0.62180  0.97350  0.40106  1.0000 0.0721167869
C   C230      1.0  0.67070  0.96870  0.42509  1.0000 -0.1931809653
C   C231      1.0  0.63330  0.89160  0.44172  1.0000 0.0208012399
C   C232      1.0  0.66110  0.05680  0.38326  1.0000 0.0781274055
C   C233      1.0  0.60640  0.08070  0.36696  1.0000 -0.1499836897
C   C234      1.0  0.64430  0.16070  0.35129  1.0000 -0.0814534076
C   C235      1.0  0.73560  0.21960  0.35076  1.0000 -0.0712258897
C   C236      1.0  0.79090  0.19470  0.36640  1.0000 -0.0814534076
C   C237      1.0  0.75310  0.11140  0.38138  1.0000 -0.1499836897
C   C238      1.0  0.77810  0.30620  0.33555  1.0000 0.6021484863
C   C239      1.0  0.60100  0.23080  0.60055  1.0000 0.5543491175
C   C240      1.0  0.63230  0.18350  0.58001  1.0000 -0.0186300683
C   C241      1.0  0.70630  0.23610  0.56279  1.0000 -0.0973844647
C   C242      1.0  0.74040  0.19590  0.54445  1.0000 -0.1499836897
C   C243      1.0  0.69830  0.10250  0.54239  1.0000 0.0621850769
C   C244      1.0  0.62160  0.04940  0.55878  1.0000 -0.1499836897
C   C245      1.0  0.58950  0.09000  0.57841  1.0000 -0.088134852
C   C246      1.0  0.73650  0.05920  0.52353  1.0000 0.0721167869
C   C247      1.0  0.83140  0.09730  0.52239  1.0000 -0.1615413446
C   C248      1.0  0.87150  0.06050  0.50528  1.0000 -0.1499836897
C   C249      1.0  0.81610  0.98400  0.48881  1.0000 0.0116934968
C   C250      1.0  0.72080  0.94640  0.48918  1.0000 0.0301815004
C   C251      1.0  0.68130  0.98270  0.50684  1.0000 -0.1968963774
C   C252      1.0  0.83750  0.93070  0.46887  1.0000 0.0116934968
C   C253      1.0  0.92090  0.93960  0.46141  1.0000 -0.1499836897
C   C254      1.0  0.92190  0.87830  0.44207  1.0000 -0.1615413446
C   C255      1.0  0.84160  0.81000  0.42879  1.0000 0.0721167869
C   C256      1.0  0.75900  0.80260  0.43675  1.0000 -0.1931809653
C   C257      1.0  0.75680  0.86130  0.45691  1.0000 0.0208012399
C   C258      1.0  0.84730  0.74870  0.40729  1.0000 0.0781274055
C   C259      1.0  0.78450  0.71390  0.38430  1.0000 -0.1499836897
C   C260      1.0  0.78840  0.65700  0.36370  1.0000 -0.0814534076
C   C261      1.0  0.85710  0.63390  0.36549  1.0000 -0.0467108632
C   C262      1.0  0.91780  0.66710  0.38815  1.0000 -0.088134852
C   C263      1.0  0.91270  0.72310  0.40928  1.0000 -0.1615413446
C   C264      1.0  0.86130  0.57150  0.34412  1.0000 0.6021484863
C   C265      1.0  0.67480  0.86860  0.46731  1.0000 0.0301815004
C   C266      1.0  0.90650  0.50400  0.26341  1.0000 0.5628183018
C   C267      1.0  0.97070  0.50500  0.24135  1.0000 -0.0282770657
C   C268      1.0  0.00130  0.56640  0.21904  1.0000 -0.088134852
C   C269      1.0  0.05550  0.56370  0.19783  1.0000 -0.1499836897
C   C270      1.0  0.08280  0.49740  0.19765  1.0000 0.0781274055
C   C271      1.0  0.05490  0.43940  0.22068  1.0000 -0.1499836897
C   C272      1.0  0.00070  0.44130  0.24252  1.0000 -0.1106695937
C   C273      1.0  0.13520  0.48990  0.17319  1.0000 0.0721167869
C   C274      1.0  0.18170  0.56320  0.15426  1.0000 -0.1499836897
C   C275      1.0  0.22830  0.55780  0.13029  1.0000 -0.1247827281
C   C276      1.0  0.22910  0.47810  0.12537  1.0000 0.0116934968
C   C277      1.0  0.18480  0.40470  0.14430  1.0000 0.0208012399
C   C278      1.0  0.13610  0.40920  0.16771  1.0000 -0.1968963774
C   C279      1.0  0.27350  0.45410  0.10294  1.0000 0.0208012399
C   C280      1.0  0.32540  0.50280  0.07895  1.0000 -0.1270892416
C   C281      1.0  0.36200  0.46220  0.06192  1.0000 -0.1499836897
C   C282      1.0  0.35170  0.37820  0.06773  1.0000 0.0721167869
C   C283      1.0  0.29800  0.32930  0.09176  1.0000 -0.1931809653
C   C284      1.0  0.25830  0.36670  0.10839  1.0000 0.0208012399
C   C285      1.0  0.39570  0.33890  0.04993  1.0000 0.0781274055
C   C286      1.0  0.47430  0.39360  0.03363  1.0000 -0.1499836897
C   C287      1.0  0.51640  0.35570  0.01796  1.0000 -0.0814534076
C   C288      1.0  0.48400  0.26440  0.01743  1.0000 -0.0712258897
C   C289      1.0  0.40380  0.20910  0.03307  1.0000 -0.0814534076
C   C290      1.0  0.35830  0.24690  0.04805  1.0000 -0.1499836897
C   C291      1.0  0.52810  0.22190  0.00222  1.0000 0.6021484863
C   C292      1.0  0.62980  0.39900  0.26722  1.0000 0.5543491175
C   C293      1.0  0.55120  0.36770  0.24668  1.0000 -0.0186300683
C   C294      1.0  0.52980  0.29370  0.22946  1.0000 -0.0973844647
C   C295      1.0  0.45550  0.25960  0.21112  1.0000 -0.1499836897
C   C296      1.0  0.40420  0.30170  0.20906  1.0000 0.0621850769
C   C297      1.0  0.42780  0.37840  0.22545  1.0000 -0.1499836897
C   C298      1.0  0.50050  0.41050  0.24508  1.0000 -0.088134852
C   C299      1.0  0.32270  0.26350  0.19020  1.0000 0.0721167869
C   C300      1.0  0.26590  0.16860  0.18906  1.0000 -0.1615413446
C   C301      1.0  0.18900  0.12850  0.17195  1.0000 -0.1499836897
C   C302      1.0  0.16790  0.18390  0.15548  1.0000 0.0116934968
C   C303      1.0  0.22560  0.27920  0.15585  1.0000 0.0301815004
C   C304      1.0  0.30140  0.31870  0.17351  1.0000 -0.1968963774
C   C305      1.0  0.09320  0.16250  0.13554  1.0000 0.0116934968
C   C306      1.0  0.01870  0.07910  0.12808  1.0000 -0.1499836897
C   C307      1.0  0.95640  0.07810  0.10874  1.0000 -0.1615413446
C   C308      1.0  0.96840  0.15840  0.09546  1.0000 0.0721167869
C   C309      1.0  0.04360  0.24100  0.10342  1.0000 -0.1931809653
C   C310      1.0  0.10450  0.24320  0.12358  1.0000 0.0208012399
C   C311      1.0  0.90140  0.15270  0.07396  1.0000 0.0781274055
C   C312      1.0  0.92940  0.21550  0.05097  1.0000 -0.1499836897
C   C313      1.0  0.86860  0.21160  0.03037  1.0000 -0.0814534076
C   C314      1.0  0.77680  0.14290  0.03216  1.0000 -0.0467108632
C   C315      1.0  0.74930  0.08220  0.05482  1.0000 -0.088134852
C   C316      1.0  0.81040  0.08730  0.07595  1.0000 -0.1615413446
C   C317      1.0  0.71020  0.13870  0.01079  1.0000 0.6021484863
C   C318      1.0  0.19380  0.32520  0.13398  1.0000 0.0301815004
O   O1        1.0  0.37450  0.68660  0.73662  1.0000 -0.5126200387
O   O2        1.0  0.44700  0.63700  0.71158  1.0000 -0.5168091128
O   O3        1.0  0.07010  0.63090  0.98838  1.0000 -0.5671253671
O   O4        1.0  0.20460  0.73740  0.00658  1.0000 -0.5313440779
O   O5        1.0  0.27600  0.60320  0.01094  1.0000 -0.5313440779
O   O6        1.0  0.13820  0.49010  0.99809  1.0000 -0.5397753586
O   O7        1.0  0.45150  0.88850  0.71466  1.0000 -0.5873867739
O   O8        1.0  0.54610  0.86670  0.74018  1.0000 -0.4672400573
O   O9        1.0  0.31340  0.68790  0.06996  1.0000 -0.5126200387
O   O10       1.0  0.36300  0.81000  0.04491  1.0000 -0.5168091128
O   O11       1.0  0.36910  0.43920  0.32171  1.0000 -0.5671253671
O   O12       1.0  0.26260  0.46720  0.33992  1.0000 -0.5313440779
O   O13       1.0  0.39680  0.67280  0.34427  1.0000 -0.5313440779
O   O14       1.0  0.50990  0.64810  0.33143  1.0000 -0.5397753586
O   O15       1.0  0.11150  0.56300  0.04800  1.0000 -0.5873867739
O   O16       1.0  0.13330  0.67940  0.07351  1.0000 -0.4672400573
O   O17       1.0  0.31210  0.62550  0.40329  1.0000 -0.5126200387
O   O18       1.0  0.19000  0.55300  0.37825  1.0000 -0.5168091128
O   O19       1.0  0.56080  0.92990  0.65505  1.0000 -0.5671253671
O   O20       1.0  0.53280  0.79540  0.67325  1.0000 -0.5313440779
O   O21       1.0  0.32720  0.72400  0.67761  1.0000 -0.5313440779
O   O22       1.0  0.35190  0.86180  0.66476  1.0000 -0.5397753586
O   O23       1.0  0.43700  0.54850  0.38133  1.0000 -0.5873867739
O   O24       1.0  0.32060  0.45390  0.40685  1.0000 -0.4672400573
O   O25       1.0  0.68790  0.31340  0.93005  1.0000 -0.5126200387
O   O26       1.0  0.81000  0.36300  0.95508  1.0000 -0.5168091128
O   O27       1.0  0.43920  0.36910  0.67829  1.0000 -0.5671253671
O   O28       1.0  0.46720  0.26260  0.66009  1.0000 -0.5313440779
O   O29       1.0  0.67280  0.39680  0.65573  1.0000 -0.5313440779
O   O30       1.0  0.64810  0.50990  0.66858  1.0000 -0.5397753586
O   O31       1.0  0.56300  0.11150  0.95200  1.0000 -0.5873867739
O   O32       1.0  0.67940  0.13330  0.92649  1.0000 -0.4672400573
O   O33       1.0  0.62550  0.31210  0.59671  1.0000 -0.5126200387
O   O34       1.0  0.55300  0.19000  0.62175  1.0000 -0.5168091128
O   O35       1.0  0.92990  0.56080  0.34495  1.0000 -0.5671253671
O   O36       1.0  0.79540  0.53280  0.32675  1.0000 -0.5313440779
O   O37       1.0  0.72400  0.32720  0.32239  1.0000 -0.5313440779
O   O38       1.0  0.86180  0.35190  0.33524  1.0000 -0.5397753586
O   O39       1.0  0.54850  0.43700  0.61867  1.0000 -0.5873867739
O   O40       1.0  0.45390  0.32060  0.59315  1.0000 -0.4672400573
O   O41       1.0  0.68660  0.37450  0.26338  1.0000 -0.5126200387
O   O42       1.0  0.63700  0.44700  0.28842  1.0000 -0.5168091128
O   O43       1.0  0.63090  0.07010  0.01162  1.0000 -0.5671253671
O   O44       1.0  0.73740  0.20460  0.99342  1.0000 -0.5313440779
O   O45       1.0  0.60320  0.27600  0.98906  1.0000 -0.5313440779
O   O46       1.0  0.49010  0.13820  0.00191  1.0000 -0.5397753586
O   O47       1.0  0.88850  0.45150  0.28534  1.0000 -0.5873867739
O   O48       1.0  0.86670  0.54610  0.25982  1.0000 -0.4672400573
