# DDEC6 charges by PACMAN v1.1 (https://github.com/mtap-research/PACMAN-charge/)
data_2019[Zr][flu]3[ASR]2
_chemical_formula_sum              "Zr6 H48 C80 N4 O26"
_cell_length_a       13.4104
_cell_length_b       18.7281
_cell_length_c       20.1519
_cell_angle_alpha    78.966
_cell_angle_beta     82.037
_cell_angle_gamma    75.438

_symmetry_space_group_name_H-M    "P 1"
_symmetry_Int_Tables_number       1

loop_
  _symmetry_equiv_pos_as_xyz
  'x, y, z'

loop_
  _atom_site_type_symbol
  _atom_site_label
  _atom_site_symmetry_multiplicity
  _atom_site_fract_x
  _atom_site_fract_y
  _atom_site_fract_z
  _atom_site_occupancy
  _atom_site_charge
Zr  Zr1       1.0  0.52459  0.37029  0.47839  1.0000 2.4157659782
Zr  Zr2       1.0  0.66354  0.50972  0.42762  1.0000 2.45452366
Zr  Zr3       1.0  0.40371  0.54769  0.39834  1.0000 2.4067255033
Zr  Zr4       1.0  0.47541  0.62971  0.52161  1.0000 2.4157659782
Zr  Zr5       1.0  0.33646  0.49028  0.57238  1.0000 2.4584530366
Zr  Zr6       1.0  0.59629  0.45231  0.60166  1.0000 2.402328111
H   H1        1.0  0.06356  0.99781  0.36719  1.0000 0.2825363223
H   H2        1.0  0.98910  0.07200  0.36442  1.0000 0.285198964
H   H3        1.0  0.41193  0.39722  0.99172  1.0000 0.2825363223
H   H4        1.0  0.41249  0.39594  0.06580  1.0000 0.2825363223
H   H5        1.0  0.27068  0.00839  0.16452  1.0000 0.1472431047
H   H6        1.0  0.24717  0.97401  0.36975  1.0000 0.1109667079
H   H7        1.0  0.06600  0.20439  0.15542  1.0000 0.1415135456
H   H8        1.0  0.27829  0.19172  0.17267  1.0000 0.1283964867
H   H9        1.0  0.26055  0.20724  0.97369  1.0000 0.1415135456
H   H10       1.0  0.45450  0.21513  0.21540  1.0000 0.1198890697
H   H11       1.0  0.03934  0.27137  0.25979  1.0000 0.1198890697
H   H12       1.0  0.23961  0.40699  0.79023  1.0000 0.1198890697
H   H13       1.0  0.48343  0.26435  0.30583  1.0000 0.1283964867
H   H14       1.0  0.53761  0.35528  0.81558  1.0000 0.1283964867
H   H15       1.0  0.73100  0.21510  0.35114  1.0000 0.1283964867
H   H16       1.0  0.20882  0.34283  0.89698  1.0000 0.1198890697
H   H17       1.0  0.91932  0.35674  0.31847  1.0000 0.1198890697
H   H18       1.0  0.20266  0.88149  0.21818  1.0000 0.1198890697
H   H19       1.0  0.85583  0.12970  0.30131  1.0000 0.1109667079
H   H20       1.0  0.28594  0.45392  0.24669  1.0000 0.1198890697
H   H21       1.0  0.31946  0.86078  0.42603  1.0000 0.1283964867
H   H22       1.0  0.27525  0.41361  0.14732  1.0000 0.1109667079
H   H23       1.0  0.50523  0.28972  0.92106  1.0000 0.1109667079
H   H24       1.0  0.26478  0.76477  0.27743  1.0000 0.1198890697
H   H25       1.0  0.93644  0.00219  0.63281  1.0000 0.2825363223
H   H26       1.0  0.01090  0.92800  0.63558  1.0000 0.2825363223
H   H27       1.0  0.58807  0.60278  0.00828  1.0000 0.2825363223
H   H28       1.0  0.58751  0.60406  0.93420  1.0000 0.2825363223
H   H29       1.0  0.72932  0.99161  0.83548  1.0000 0.1472431047
H   H30       1.0  0.75283  0.02599  0.63025  1.0000 0.1109667079
H   H31       1.0  0.93400  0.79561  0.84458  1.0000 0.1415135456
H   H32       1.0  0.72171  0.80828  0.82733  1.0000 0.1283964867
H   H33       1.0  0.73945  0.79276  0.02631  1.0000 0.1415135456
H   H34       1.0  0.54550  0.78487  0.78460  1.0000 0.1198890697
H   H35       1.0  0.96066  0.72863  0.74021  1.0000 0.1109667079
H   H36       1.0  0.76039  0.59301  0.20977  1.0000 0.1198890697
H   H37       1.0  0.51657  0.73565  0.69417  1.0000 0.1283964867
H   H38       1.0  0.46239  0.64472  0.18442  1.0000 0.1283964867
H   H39       1.0  0.26900  0.78490  0.64886  1.0000 0.1198890697
H   H40       1.0  0.79118  0.65717  0.10302  1.0000 0.1198890697
H   H41       1.0  0.08068  0.64326  0.68153  1.0000 0.1198890697
H   H42       1.0  0.79734  0.11851  0.78182  1.0000 0.1198890697
H   H43       1.0  0.14417  0.87030  0.69869  1.0000 0.1109667079
H   H44       1.0  0.71406  0.54608  0.75331  1.0000 0.1198890697
H   H45       1.0  0.68054  0.13922  0.57397  1.0000 0.1198890697
H   H46       1.0  0.72475  0.58639  0.85268  1.0000 0.1109667079
H   H47       1.0  0.49477  0.71028  0.07894  1.0000 0.1109667079
H   H48       1.0  0.73522  0.23523  0.72257  1.0000 0.1198890697
C   C1        1.0  0.35100  0.31020  0.04870  1.0000 0.1198890697
C   C2        1.0  0.21340  0.03960  0.18400  1.0000 -0.2591903658
C   C3        1.0  0.25250  0.93180  0.35040  1.0000 -0.171529161
C   C4        1.0  0.09130  0.15720  0.17970  1.0000 -0.2507950939
C   C5        1.0  0.33070  0.28310  0.99430  1.0000 -0.0185625218
C   C6        1.0  0.96100  0.19130  0.27570  1.0000 0.0648853628
C   C7        1.0  0.39330  0.38430  0.79020  1.0000 -0.0672906155
C   C8        1.0  0.29040  0.21530  0.12830  1.0000 -0.2382336246
C   C9        1.0  0.28160  0.22430  0.00870  1.0000 -0.2382336246
C   C10       1.0  0.21620  0.94070  0.28700  1.0000 0.0714776197
C   C11       1.0  0.42150  0.26400  0.22050  1.0000 -0.1611547964
C   C12       1.0  0.73440  0.34610  0.38080  1.0000 0.623056568
C   C13       1.0  0.17340  0.10910  0.15090  1.0000 0.2319619877
C   C14       1.0  0.97780  0.25930  0.28020  1.0000 -0.171529161
C   C15       1.0  0.04490  0.13700  0.24480  1.0000 -0.0185625218
C   C16       1.0  0.26380  0.19070  0.07600  1.0000 0.2387089354
C   C17       1.0  0.35440  0.30820  0.17390  1.0000 0.0789039381
C   C18       1.0  0.29440  0.38340  0.81630  1.0000 -0.0928567892
C   C19       1.0  0.43860  0.29370  0.27470  1.0000 -0.0958385982
C   C20       1.0  0.81310  0.29430  0.34210  1.0000 -0.0567819301
C   C21       1.0  0.47000  0.35240  0.83150  1.0000 -0.0928567892
C   C22       1.0  0.79460  0.22610  0.33460  1.0000 -0.0958385982
C   C23       1.0  0.27590  0.34750  0.88140  1.0000 -0.1534452515
C   C24       1.0  0.08350  0.06460  0.27950  1.0000 0.1415135456
C   C25       1.0  0.34830  0.72460  0.39370  1.0000 0.6282479538
C   C26       1.0  0.30170  0.80060  0.35720  1.0000 -0.0567819301
C   C27       1.0  0.90520  0.31170  0.31450  1.0000 -0.0928567892
C   C28       1.0  0.22440  0.87720  0.26090  1.0000 -0.1611547964
C   C29       1.0  0.33600  0.27580  0.11530  1.0000 -0.0185625218
C   C30       1.0  0.34990  0.31910  0.92300  1.0000 0.0714776197
C   C31       1.0  0.16530  0.01530  0.24970  1.0000 -0.0185625218
C   C32       1.0  0.86850  0.17570  0.30360  1.0000 -0.171529161
C   C33       1.0  0.39210  0.36360  0.28290  1.0000 -0.0422729852
C   C34       1.0  0.32400  0.40710  0.23830  1.0000 -0.0928567892
C   C35       1.0  0.29470  0.86460  0.38430  1.0000 -0.0958385982
C   C36       1.0  0.31220  0.38130  0.18130  1.0000 -0.1800611021
C   C37       1.0  0.45070  0.31620  0.89580  1.0000 -0.171529161
C   C38       1.0  0.26370  0.80720  0.29540  1.0000 -0.0958385982
C   C39       1.0  0.41830  0.39770  0.34080  1.0000 0.623056568
C   C40       1.0  0.41730  0.42030  0.71970  1.0000 0.6282479538
C   C41       1.0  0.64900  0.68980  0.95130  1.0000 0.1198890697
C   C42       1.0  0.78660  0.96040  0.81600  1.0000 -0.2591903658
C   C43       1.0  0.74750  0.06820  0.64960  1.0000 -0.171529161
C   C44       1.0  0.90870  0.84280  0.82030  1.0000 -0.2507950939
C   C45       1.0  0.66930  0.71690  0.00570  1.0000 -0.0185625218
C   C46       1.0  0.03900  0.80870  0.72430  1.0000 0.0714776197
C   C47       1.0  0.60670  0.61570  0.20980  1.0000 -0.0672906155
C   C48       1.0  0.70960  0.78470  0.87170  1.0000 -0.2507950939
C   C49       1.0  0.71840  0.77570  0.99130  1.0000 -0.2382336246
C   C50       1.0  0.78380  0.05930  0.71300  1.0000 0.0789039381
C   C51       1.0  0.57850  0.73600  0.77950  1.0000 -0.1611547964
C   C52       1.0  0.26560  0.65390  0.61920  1.0000 0.623056568
C   C53       1.0  0.82660  0.89090  0.84910  1.0000 0.2319619877
C   C54       1.0  0.02220  0.74070  0.71980  1.0000 -0.171529161
C   C55       1.0  0.95510  0.86300  0.75520  1.0000 -0.0185625218
C   C56       1.0  0.73620  0.80930  0.92400  1.0000 0.2387089354
C   C57       1.0  0.64560  0.69180  0.82610  1.0000 0.0789039381
C   C58       1.0  0.70560  0.61660  0.18370  1.0000 -0.0928567892
C   C59       1.0  0.56140  0.70630  0.72530  1.0000 -0.0958385982
C   C60       1.0  0.18690  0.70570  0.65790  1.0000 -0.0567819301
C   C61       1.0  0.53000  0.64760  0.16850  1.0000 -0.0958385982
C   C62       1.0  0.20540  0.77390  0.66540  1.0000 -0.0958385982
C   C63       1.0  0.72410  0.65250  0.11860  1.0000 -0.1611547964
C   C64       1.0  0.91650  0.93540  0.72050  1.0000 0.1472431047
C   C65       1.0  0.65170  0.27540  0.60630  1.0000 0.6282479538
C   C66       1.0  0.69830  0.19940  0.64280  1.0000 -0.0567819301
C   C67       1.0  0.09480  0.68830  0.68550  1.0000 -0.0928567892
C   C68       1.0  0.77560  0.12280  0.73910  1.0000 -0.1611547964
C   C69       1.0  0.66400  0.72420  0.88470  1.0000 -0.0185625218
C   C70       1.0  0.65010  0.68090  0.07700  1.0000 0.0714776197
C   C71       1.0  0.83470  0.98470  0.75030  1.0000 -0.0185625218
C   C72       1.0  0.13150  0.82430  0.69640  1.0000 -0.171529161
C   C73       1.0  0.60790  0.63640  0.71710  1.0000 -0.0422729852
C   C74       1.0  0.67600  0.59290  0.76170  1.0000 -0.0928567892
C   C75       1.0  0.70530  0.13540  0.61570  1.0000 -0.0958385982
C   C76       1.0  0.68780  0.61870  0.81870  1.0000 -0.1800611021
C   C77       1.0  0.54930  0.68380  0.10420  1.0000 -0.171529161
C   C78       1.0  0.73630  0.19280  0.70460  1.0000 -0.0928567892
C   C79       1.0  0.58170  0.60230  0.65920  1.0000 0.623056568
C   C80       1.0  0.58270  0.57970  0.28030  1.0000 0.6282479538
N   N1        1.0  0.03970  0.04180  0.34570  1.0000 -0.5910372761
N   N2        1.0  0.39870  0.37750  0.03320  1.0000 -0.6025398599
N   N3        1.0  0.96030  0.95820  0.65430  1.0000 -0.5910372761
N   N4        1.0  0.60130  0.62250  0.96680  1.0000 -0.6025398599
O   O1        1.0  0.51140  0.42180  0.70120  1.0000 -0.5848900305
O   O2        1.0  0.65970  0.31990  0.41510  1.0000 -0.6080458688
O   O3        1.0  0.34060  0.44730  0.68300  1.0000 -0.6311763155
O   O4        1.0  0.38320  0.46800  0.33760  1.0000 -0.5910372761
O   O5        1.0  0.34520  0.67030  0.36860  1.0000 -0.5910372761
O   O6        1.0  0.21830  0.12930  0.08580  1.0000 -0.2382336246
O   O7        1.0  0.74920  0.41090  0.37830  1.0000 -0.6080458688
O   O8        1.0  0.38170  0.45270  0.47530  1.0000 -1.2273333298
O   O9        1.0  0.38650  0.72310  0.45080  1.0000 -0.6359102356
O   O10       1.0  0.46190  0.35240  0.38710  1.0000 -0.5723502862
O   O11       1.0  0.54120  0.46550  0.40320  1.0000 -1.1395519005
O   O12       1.0  0.64440  0.41850  0.50460  1.0000 -1.1961848366
O   O13       1.0  0.52580  0.59400  0.42560  1.0000 -1.1961848366
O   O14       1.0  0.48860  0.57820  0.29880  1.0000 -0.5848900305
O   O15       1.0  0.34030  0.68010  0.58490  1.0000 -0.6080458688
O   O16       1.0  0.65940  0.55270  0.31700  1.0000 -0.6311763155
O   O17       1.0  0.61680  0.53200  0.66240  1.0000 -0.5910372761
O   O18       1.0  0.65480  0.32970  0.63140  1.0000 -0.5910372761
O   O19       1.0  0.78170  0.87070  0.91420  1.0000 -0.2382336246
O   O20       1.0  0.25080  0.58910  0.62170  1.0000 -0.6080458688
O   O21       1.0  0.61830  0.54730  0.52470  1.0000 -1.2229728924
O   O22       1.0  0.61350  0.27690  0.54920  1.0000 -0.6359102356
O   O23       1.0  0.53810  0.64760  0.61290  1.0000 -0.5723502862
O   O24       1.0  0.45880  0.53450  0.59680  1.0000 -1.1464244353
O   O25       1.0  0.35560  0.58150  0.49540  1.0000 -1.1925124156
O   O26       1.0  0.47420  0.40600  0.57440  1.0000 -1.1925124156
