# DDEC6 charges by PACMAN v1.1 (https://github.com/mtap-research/PACMAN-charge/)
data_2019[Tb][pts]3[ASR]1
_chemical_formula_sum              "Tb4 H12 C32 O24"
_cell_length_a       9.0226
_cell_length_b       9.6614
_cell_length_c       17.1359
_cell_angle_alpha    90
_cell_angle_beta     102.904
_cell_angle_gamma    90

_symmetry_space_group_name_H-M    "P 1"
_symmetry_Int_Tables_number       1

loop_
  _symmetry_equiv_pos_as_xyz
  'x, y, z'

loop_
  _atom_site_type_symbol
  _atom_site_label
  _atom_site_symmetry_multiplicity
  _atom_site_fract_x
  _atom_site_fract_y
  _atom_site_fract_z
  _atom_site_occupancy
  _atom_site_charge
Tb  Tb1       1.0  0.35849  0.70702  0.78714  1.0000 2.0666701032
Tb  Tb2       1.0  0.14151  0.20702  0.21286  1.0000 2.0666701032
Tb  Tb3       1.0  0.64151  0.29298  0.21286  1.0000 2.0666701032
Tb  Tb4       1.0  0.85849  0.79298  0.78714  1.0000 2.0666701032
H   H1        1.0  0.19160  0.37030  0.40160  1.0000 0.3410871832
H   H2        1.0  0.76310  0.97960  0.03580  1.0000 0.1440805627
H   H3        1.0  0.30980  0.54660  0.56850  1.0000 0.1270833148
H   H4        1.0  0.30840  0.87030  0.59840  1.0000 0.3410871832
H   H5        1.0  0.73690  0.47960  0.96420  1.0000 0.1440805627
H   H6        1.0  0.19020  0.04660  0.43150  1.0000 0.1270833148
H   H7        1.0  0.80840  0.62970  0.59840  1.0000 0.3410871832
H   H8        1.0  0.23690  0.02040  0.96420  1.0000 0.1440805627
H   H9        1.0  0.69020  0.45340  0.43150  1.0000 0.1270833148
H   H10       1.0  0.69160  0.12970  0.40160  1.0000 0.3410871832
H   H11       1.0  0.26310  0.52040  0.03580  1.0000 0.1440805627
H   H12       1.0  0.80980  0.95340  0.56850  1.0000 0.1270833148
C   C1        1.0  0.56730  0.65480  0.64810  1.0000 0.6674635841
C   C2        1.0  0.66900  0.87580  0.89470  1.0000 0.6309277101
C   C3        1.0  0.57880  0.93710  0.94810  1.0000 -0.1406556645
C   C4        1.0  0.65550  0.98800  0.02170  1.0000 -0.1876916715
C   C5        1.0  0.53540  0.57680  0.57180  1.0000 -0.1593235226
C   C6        1.0  0.41800  0.94850  0.92320  1.0000 0.3410871832
C   C7        1.0  0.35040  0.45270  0.47050  1.0000 0.2596612407
C   C8        1.0  0.38710  0.52750  0.54040  1.0000 -0.2053745331
C   C9        1.0  0.93270  0.15480  0.35190  1.0000 0.6674635841
C   C10       1.0  0.83100  0.37580  0.10530  1.0000 0.6309277101
C   C11       1.0  0.92120  0.43710  0.05190  1.0000 -0.1406556645
C   C12       1.0  0.84450  0.48800  0.97830  1.0000 -0.1876916715
C   C13       1.0  0.96460  0.07680  0.42820  1.0000 -0.1593235226
C   C14       1.0  0.08200  0.44850  0.07680  1.0000 0.3410871832
C   C15       1.0  0.14960  0.95270  0.52950  1.0000 0.2596612407
C   C16       1.0  0.11290  0.02750  0.45960  1.0000 -0.2053745331
C   C17       1.0  0.43270  0.34520  0.35190  1.0000 0.6674635841
C   C18       1.0  0.33100  0.12420  0.10530  1.0000 0.6309277101
C   C19       1.0  0.42120  0.06290  0.05190  1.0000 -0.1406556645
C   C20       1.0  0.34450  0.01200  0.97830  1.0000 -0.1876916715
C   C21       1.0  0.46460  0.42320  0.42820  1.0000 -0.1593235226
C   C22       1.0  0.58200  0.05150  0.07680  1.0000 0.3410871832
C   C23       1.0  0.64960  0.54730  0.52950  1.0000 0.2596612407
C   C24       1.0  0.61290  0.47250  0.45960  1.0000 -0.2053745331
C   C25       1.0  0.06730  0.84520  0.64810  1.0000 0.6674635841
C   C26       1.0  0.16900  0.62420  0.89470  1.0000 0.6309277101
C   C27       1.0  0.07880  0.56290  0.94810  1.0000 -0.1406556645
C   C28       1.0  0.15550  0.51200  0.02170  1.0000 -0.1876916715
C   C29       1.0  0.03540  0.92320  0.57180  1.0000 -0.1593235226
C   C30       1.0  0.91800  0.55150  0.92320  1.0000 0.3410871832
C   C31       1.0  0.85040  0.04730  0.47050  1.0000 0.2596612407
C   C32       1.0  0.88710  0.97250  0.54040  1.0000 -0.2053745331
O   O1        1.0  0.45670  0.70210  0.67320  1.0000 -0.6839040832
O   O2        1.0  0.33890  0.90580  0.85250  1.0000 -0.6696036922
O   O3        1.0  0.70470  0.66510  0.68520  1.0000 -0.6696036922
O   O4        1.0  0.60740  0.80140  0.83540  1.0000 -0.7595949934
O   O5        1.0  0.20540  0.40410  0.44780  1.0000 -0.4488899352
O   O6        1.0  0.81210  0.89710  0.90830  1.0000 -0.6534190939
O   O7        1.0  0.04330  0.20210  0.32680  1.0000 -0.6839040832
O   O8        1.0  0.16110  0.40580  0.14750  1.0000 -0.6696036922
O   O9        1.0  0.79530  0.16510  0.31480  1.0000 -0.6696036922
O   O10       1.0  0.89260  0.30140  0.16460  1.0000 -0.7595949934
O   O11       1.0  0.29460  0.90410  0.55220  1.0000 -0.4488899352
O   O12       1.0  0.68790  0.39710  0.09170  1.0000 -0.6534190939
O   O13       1.0  0.54330  0.29790  0.32680  1.0000 -0.6839040832
O   O14       1.0  0.66110  0.09420  0.14750  1.0000 -0.6696036922
O   O15       1.0  0.29530  0.33490  0.31480  1.0000 -0.6696036922
O   O16       1.0  0.39260  0.19860  0.16460  1.0000 -0.7595949934
O   O17       1.0  0.79460  0.59590  0.55220  1.0000 -0.4488899352
O   O18       1.0  0.18790  0.10290  0.09170  1.0000 -0.6534190939
O   O19       1.0  0.95670  0.79790  0.67320  1.0000 -0.6839040832
O   O20       1.0  0.83890  0.59420  0.85250  1.0000 -0.6696036922
O   O21       1.0  0.20470  0.83490  0.68520  1.0000 -0.6696036922
O   O22       1.0  0.10740  0.69860  0.83540  1.0000 -0.7595949934
O   O23       1.0  0.70540  0.09590  0.44780  1.0000 -0.4488899352
O   O24       1.0  0.31210  0.60290  0.90830  1.0000 -0.6534190939
