# DDEC6 charges by PACMAN v1.1 (https://github.com/mtap-research/PACMAN-charge/)
data_2019[Cu][sql]2[ASR]8
_chemical_formula_sum              "Cu16 P8 H144 C176 I8 N8 O32"
_cell_length_a       12.9814
_cell_length_b       14.381
_cell_length_c       33.6684
_cell_angle_alpha    90
_cell_angle_beta     90
_cell_angle_gamma    90

_symmetry_space_group_name_H-M    "P 1"
_symmetry_Int_Tables_number       1

loop_
  _symmetry_equiv_pos_as_xyz
  'x, y, z'

loop_
  _atom_site_type_symbol
  _atom_site_label
  _atom_site_symmetry_multiplicity
  _atom_site_fract_x
  _atom_site_fract_y
  _atom_site_fract_z
  _atom_site_occupancy
  _atom_site_charge
Cu  Cu1       1.0  0.00690  0.58422  0.73607  1.0000 0.8392643076
Cu  Cu2       1.0  0.48646  0.56252  0.96928  1.0000 0.0569317364
Cu  Cu3       1.0  0.00690  0.41578  0.76393  1.0000 0.8392643076
Cu  Cu4       1.0  0.48646  0.43748  0.53072  1.0000 0.0569317364
Cu  Cu5       1.0  0.99310  0.41578  0.26393  1.0000 0.8392643076
Cu  Cu6       1.0  0.51354  0.43748  0.03072  1.0000 0.0569317364
Cu  Cu7       1.0  0.99310  0.58422  0.23607  1.0000 0.8392643076
Cu  Cu8       1.0  0.51354  0.56252  0.46928  1.0000 0.0569317364
Cu  Cu9       1.0  0.49310  0.91578  0.23607  1.0000 0.8392643076
Cu  Cu10      1.0  0.01354  0.93748  0.46928  1.0000 0.0569317364
Cu  Cu11      1.0  0.49310  0.08422  0.26393  1.0000 0.8392643076
Cu  Cu12      1.0  0.01354  0.06252  0.03072  1.0000 0.0569317364
Cu  Cu13      1.0  0.50690  0.08422  0.76393  1.0000 0.8392643076
Cu  Cu14      1.0  0.98646  0.06252  0.53072  1.0000 0.0569317364
Cu  Cu15      1.0  0.50690  0.91578  0.73607  1.0000 0.8392643076
Cu  Cu16      1.0  0.98646  0.93748  0.96928  1.0000 0.0569317364
P   P1        1.0  0.50670  0.62630  0.90906  1.0000 0.285266493
P   P2        1.0  0.50670  0.37370  0.59094  1.0000 0.285266493
P   P3        1.0  0.49330  0.37370  0.09094  1.0000 0.2848722976
P   P4        1.0  0.49330  0.62630  0.40906  1.0000 0.2848722976
P   P5        1.0  0.99330  0.87370  0.40906  1.0000 0.285266493
P   P6        1.0  0.99330  0.12630  0.09094  1.0000 0.2848722976
P   P7        1.0  0.00670  0.12630  0.59094  1.0000 0.2848722976
P   P8        1.0  0.00670  0.87370  0.90906  1.0000 0.285266493
H   H1        1.0  0.46405  0.71783  0.03130  1.0000 0.1193403753
H   H2        1.0  0.35536  0.66576  0.03424  1.0000 0.1282512988
H   H3        1.0  0.35933  0.77584  0.02744  1.0000 0.1098334691
H   H4        1.0  0.28881  0.69022  0.93460  1.0000 0.1098334691
H   H5        1.0  0.25405  0.75927  0.96938  1.0000 0.1193403753
H   H6        1.0  0.25008  0.64920  0.97618  1.0000 0.1282512988
H   H7        1.0  0.41348  0.88107  0.99073  1.0000 0.1193403753
H   H8        1.0  0.51200  0.99564  0.95724  1.0000 0.1098334691
H   H9        1.0  0.59183  0.95456  0.89466  1.0000 0.1193403753
H   H10       1.0  0.59201  0.79888  0.87767  1.0000 0.1098334691
H   H11       1.0  0.55272  0.66308  0.82513  1.0000 0.1193403753
H   H12       1.0  0.69875  0.64136  0.78431  1.0000 0.1282512988
H   H13       1.0  0.84517  0.51638  0.87580  1.0000 0.1193403753
H   H14       1.0  0.70696  0.55540  0.91875  1.0000 0.1193403753
H   H15       1.0  0.38070  0.73550  0.85358  1.0000 0.1193403753
H   H16       1.0  0.24761  0.70278  0.80994  1.0000 0.1193403753
H   H17       1.0  0.25538  0.43429  0.84492  1.0000 0.1282512988
H   H18       1.0  0.39121  0.46671  0.88909  1.0000 0.1193403753
H   H19       1.0  0.46405  0.28217  0.46870  1.0000 0.1193403753
H   H20       1.0  0.35536  0.33424  0.46576  1.0000 0.1282512988
H   H21       1.0  0.35933  0.22416  0.47256  1.0000 0.1098334691
H   H22       1.0  0.28881  0.30978  0.56540  1.0000 0.1098334691
H   H23       1.0  0.25405  0.24073  0.53062  1.0000 0.1193403753
H   H24       1.0  0.25008  0.35080  0.52382  1.0000 0.1282512988
H   H25       1.0  0.41348  0.11893  0.50927  1.0000 0.1193403753
H   H26       1.0  0.51200  0.00436  0.54276  1.0000 0.1098334691
H   H27       1.0  0.59183  0.04544  0.60534  1.0000 0.1193403753
H   H28       1.0  0.59201  0.20112  0.62233  1.0000 0.1098334691
H   H29       1.0  0.55272  0.33692  0.67487  1.0000 0.1193403753
H   H30       1.0  0.69875  0.35864  0.71569  1.0000 0.1282512988
H   H31       1.0  0.84517  0.48362  0.62420  1.0000 0.1193403753
H   H32       1.0  0.70696  0.44460  0.58125  1.0000 0.1193403753
H   H33       1.0  0.38070  0.26450  0.64642  1.0000 0.1193403753
H   H34       1.0  0.24761  0.29722  0.69006  1.0000 0.1193403753
H   H35       1.0  0.25538  0.56571  0.65508  1.0000 0.1282512988
H   H36       1.0  0.39121  0.53329  0.61091  1.0000 0.1193403753
H   H37       1.0  0.53595  0.28217  0.96870  1.0000 0.1193403753
H   H38       1.0  0.64464  0.33424  0.96576  1.0000 0.1282512988
H   H39       1.0  0.64067  0.22416  0.97256  1.0000 0.1098334691
H   H40       1.0  0.71119  0.30978  0.06540  1.0000 0.1098334691
H   H41       1.0  0.74595  0.24073  0.03062  1.0000 0.1193403753
H   H42       1.0  0.74992  0.35080  0.02382  1.0000 0.1282512988
H   H43       1.0  0.58652  0.11893  0.00927  1.0000 0.1193403753
H   H44       1.0  0.48800  0.00436  0.04276  1.0000 0.1098334691
H   H45       1.0  0.40817  0.04544  0.10534  1.0000 0.1193403753
H   H46       1.0  0.40799  0.20112  0.12233  1.0000 0.1098334691
H   H47       1.0  0.44728  0.33692  0.17487  1.0000 0.1193403753
H   H48       1.0  0.30125  0.35864  0.21569  1.0000 0.1282512988
H   H49       1.0  0.15483  0.48362  0.12420  1.0000 0.1193403753
H   H50       1.0  0.29304  0.44460  0.08125  1.0000 0.1193403753
H   H51       1.0  0.61930  0.26450  0.14642  1.0000 0.1193403753
H   H52       1.0  0.75239  0.29722  0.19006  1.0000 0.1193403753
H   H53       1.0  0.74462  0.56571  0.15508  1.0000 0.1282512988
H   H54       1.0  0.60879  0.53329  0.11091  1.0000 0.1193403753
H   H55       1.0  0.53595  0.71783  0.53130  1.0000 0.1193403753
H   H56       1.0  0.64464  0.66576  0.53424  1.0000 0.1282512988
H   H57       1.0  0.64067  0.77584  0.52744  1.0000 0.1098334691
H   H58       1.0  0.71119  0.69022  0.43460  1.0000 0.1098334691
H   H59       1.0  0.74595  0.75927  0.46938  1.0000 0.1193403753
H   H60       1.0  0.74992  0.64920  0.47618  1.0000 0.1282512988
H   H61       1.0  0.58652  0.88107  0.49073  1.0000 0.1193403753
H   H62       1.0  0.48800  0.99564  0.45724  1.0000 0.1098334691
H   H63       1.0  0.40817  0.95456  0.39466  1.0000 0.1193403753
H   H64       1.0  0.40799  0.79888  0.37767  1.0000 0.1098334691
H   H65       1.0  0.44728  0.66308  0.32513  1.0000 0.1193403753
H   H66       1.0  0.30125  0.64136  0.28431  1.0000 0.1282512988
H   H67       1.0  0.15483  0.51638  0.37580  1.0000 0.1193403753
H   H68       1.0  0.29304  0.55540  0.41875  1.0000 0.1193403753
H   H69       1.0  0.61930  0.73550  0.35358  1.0000 0.1193403753
H   H70       1.0  0.75239  0.70278  0.30994  1.0000 0.1193403753
H   H71       1.0  0.74462  0.43429  0.34492  1.0000 0.1282512988
H   H72       1.0  0.60879  0.46671  0.38909  1.0000 0.1193403753
H   H73       1.0  0.03595  0.78217  0.53130  1.0000 0.1193403753
H   H74       1.0  0.14464  0.83424  0.53424  1.0000 0.1282512988
H   H75       1.0  0.14067  0.72416  0.52744  1.0000 0.1098334691
H   H76       1.0  0.21119  0.80978  0.43460  1.0000 0.1098334691
H   H77       1.0  0.24595  0.74073  0.46938  1.0000 0.1193403753
H   H78       1.0  0.24992  0.85080  0.47618  1.0000 0.1282512988
H   H79       1.0  0.08652  0.61893  0.49073  1.0000 0.1193403753
H   H80       1.0  0.98800  0.50436  0.45724  1.0000 0.1098334691
H   H81       1.0  0.90817  0.54544  0.39466  1.0000 0.1193403753
H   H82       1.0  0.90799  0.70112  0.37767  1.0000 0.1098334691
H   H83       1.0  0.94728  0.83692  0.32513  1.0000 0.1193403753
H   H84       1.0  0.80125  0.85864  0.28431  1.0000 0.1282512988
H   H85       1.0  0.65483  0.98362  0.37580  1.0000 0.1193403753
H   H86       1.0  0.79304  0.94460  0.41875  1.0000 0.1193403753
H   H87       1.0  0.11930  0.76450  0.35358  1.0000 0.1193403753
H   H88       1.0  0.25239  0.79722  0.30994  1.0000 0.1193403753
H   H89       1.0  0.24462  0.06571  0.34492  1.0000 0.1282512988
H   H90       1.0  0.10879  0.03329  0.38909  1.0000 0.1193403753
H   H91       1.0  0.03595  0.21783  0.96870  1.0000 0.1193403753
H   H92       1.0  0.14464  0.16576  0.96576  1.0000 0.1282512988
H   H93       1.0  0.14067  0.27584  0.97256  1.0000 0.1098334691
H   H94       1.0  0.21119  0.19022  0.06540  1.0000 0.1098334691
H   H95       1.0  0.24595  0.25927  0.03062  1.0000 0.1193403753
H   H96       1.0  0.24992  0.14920  0.02382  1.0000 0.1282512988
H   H97       1.0  0.08652  0.38107  0.00927  1.0000 0.1193403753
H   H98       1.0  0.98800  0.49564  0.04276  1.0000 0.1098334691
H   H99       1.0  0.90817  0.45456  0.10534  1.0000 0.1193403753
H   H100      1.0  0.90799  0.29888  0.12233  1.0000 0.1098334691
H   H101      1.0  0.94728  0.16308  0.17487  1.0000 0.1193403753
H   H102      1.0  0.80125  0.14136  0.21569  1.0000 0.1282512988
H   H103      1.0  0.65483  0.01638  0.12420  1.0000 0.1193403753
H   H104      1.0  0.79304  0.05540  0.08125  1.0000 0.1193403753
H   H105      1.0  0.11930  0.23550  0.14642  1.0000 0.1193403753
H   H106      1.0  0.25239  0.20278  0.19006  1.0000 0.1193403753
H   H107      1.0  0.24462  0.93429  0.15508  1.0000 0.1282512988
H   H108      1.0  0.10879  0.96671  0.11091  1.0000 0.1193403753
H   H109      1.0  0.96405  0.21783  0.46870  1.0000 0.1193403753
H   H110      1.0  0.85536  0.16576  0.46576  1.0000 0.1282512988
H   H111      1.0  0.85933  0.27584  0.47256  1.0000 0.1098334691
H   H112      1.0  0.78881  0.19022  0.56540  1.0000 0.1098334691
H   H113      1.0  0.75405  0.25927  0.53062  1.0000 0.1193403753
H   H114      1.0  0.75008  0.14920  0.52382  1.0000 0.1282512988
H   H115      1.0  0.91348  0.38107  0.50927  1.0000 0.1193403753
H   H116      1.0  0.01200  0.49564  0.54276  1.0000 0.1098334691
H   H117      1.0  0.09183  0.45456  0.60534  1.0000 0.1193403753
H   H118      1.0  0.09201  0.29888  0.62233  1.0000 0.1098334691
H   H119      1.0  0.05272  0.16308  0.67487  1.0000 0.1193403753
H   H120      1.0  0.19875  0.14136  0.71569  1.0000 0.1282512988
H   H121      1.0  0.34517  0.01638  0.62420  1.0000 0.1193403753
H   H122      1.0  0.20696  0.05540  0.58125  1.0000 0.1193403753
H   H123      1.0  0.88070  0.23550  0.64642  1.0000 0.1193403753
H   H124      1.0  0.74761  0.20278  0.69006  1.0000 0.1193403753
H   H125      1.0  0.75538  0.93429  0.65508  1.0000 0.1282512988
H   H126      1.0  0.89121  0.96671  0.61091  1.0000 0.1193403753
H   H127      1.0  0.96405  0.78217  0.03130  1.0000 0.1193403753
H   H128      1.0  0.85536  0.83424  0.03424  1.0000 0.1282512988
H   H129      1.0  0.85933  0.72416  0.02744  1.0000 0.1098334691
H   H130      1.0  0.78881  0.80978  0.93460  1.0000 0.1098334691
H   H131      1.0  0.75405  0.74073  0.96938  1.0000 0.1193403753
H   H132      1.0  0.75008  0.85080  0.97618  1.0000 0.1282512988
H   H133      1.0  0.91348  0.61893  0.99073  1.0000 0.1193403753
H   H134      1.0  0.01200  0.50436  0.95724  1.0000 0.1098334691
H   H135      1.0  0.09183  0.54544  0.89466  1.0000 0.1193403753
H   H136      1.0  0.09201  0.70112  0.87767  1.0000 0.1098334691
H   H137      1.0  0.05272  0.83692  0.82513  1.0000 0.1193403753
H   H138      1.0  0.19875  0.85864  0.78431  1.0000 0.1282512988
H   H139      1.0  0.34517  0.98362  0.87580  1.0000 0.1193403753
H   H140      1.0  0.20696  0.94460  0.91875  1.0000 0.1193403753
H   H141      1.0  0.88070  0.76450  0.85358  1.0000 0.1193403753
H   H142      1.0  0.74761  0.79722  0.80994  1.0000 0.1193403753
H   H143      1.0  0.75538  0.06571  0.84492  1.0000 0.1282512988
H   H144      1.0  0.89121  0.03329  0.88909  1.0000 0.1193403753
C   C1        1.0  0.39310  0.71660  0.02140  1.0000 -0.3044497627
C   C2        1.0  0.28790  0.70000  0.96340  1.0000 -0.321168832
C   C3        1.0  0.50290  0.74870  0.92050  1.0000 -0.1265024427
C   C4        1.0  0.44890  0.77480  0.95660  1.0000 0.1591739137
C   C5        1.0  0.45140  0.86350  0.96780  1.0000 -0.1811855226
C   C6        1.0  0.50800  0.93410  0.94710  1.0000 -0.0789952907
C   C7        1.0  0.55820  0.90970  0.91080  1.0000 -0.1205351541
C   C8        1.0  0.55470  0.81700  0.90070  1.0000 -0.0914593074
C   C9        1.0  0.61700  0.61110  0.87630  1.0000 -0.0277480368
C   C10       1.0  0.61330  0.63570  0.83580  1.0000 -0.1205351541
C   C11       1.0  0.69850  0.61990  0.81100  1.0000 -0.1073001159
C   C12       1.0  0.78330  0.57170  0.82650  1.0000 -0.0117213343
C   C13       1.0  0.78660  0.54790  0.86560  1.0000 -0.1002493583
C   C14       1.0  0.70290  0.56970  0.89120  1.0000 -0.1073001159
C   C15       1.0  0.87080  0.54410  0.79900  1.0000 0.5778664094
C   C16       1.0  0.39830  0.60530  0.87520  1.0000 -0.0277480368
C   C17       1.0  0.35470  0.67390  0.85190  1.0000 -0.1205351541
C   C18       1.0  0.27490  0.65540  0.82650  1.0000 -0.1002493583
C   C19       1.0  0.23510  0.56670  0.82550  1.0000 -0.0117213343
C   C20       1.0  0.28030  0.49610  0.84750  1.0000 -0.1002493583
C   C21       1.0  0.36170  0.51460  0.87330  1.0000 -0.1073001159
C   C22       1.0  0.14540  0.54060  0.79790  1.0000 0.5658304435
C   C23       1.0  0.39310  0.28340  0.47860  1.0000 -0.3044497627
C   C24       1.0  0.28790  0.30000  0.53660  1.0000 -0.321168832
C   C25       1.0  0.50290  0.25130  0.57950  1.0000 -0.1265024427
C   C26       1.0  0.44890  0.22520  0.54340  1.0000 0.1591739137
C   C27       1.0  0.45140  0.13650  0.53220  1.0000 -0.1811855226
C   C28       1.0  0.50800  0.06590  0.55290  1.0000 -0.0789952907
C   C29       1.0  0.55820  0.09030  0.58920  1.0000 -0.1205351541
C   C30       1.0  0.55470  0.18300  0.59930  1.0000 -0.0914593074
C   C31       1.0  0.61700  0.38890  0.62370  1.0000 -0.0277480368
C   C32       1.0  0.61330  0.36430  0.66420  1.0000 -0.1205351541
C   C33       1.0  0.69850  0.38010  0.68900  1.0000 -0.1073001159
C   C34       1.0  0.78330  0.42830  0.67350  1.0000 -0.0117213343
C   C35       1.0  0.78660  0.45210  0.63440  1.0000 -0.1002493583
C   C36       1.0  0.70290  0.43030  0.60880  1.0000 -0.1073001159
C   C37       1.0  0.87080  0.45590  0.70100  1.0000 0.5778664094
C   C38       1.0  0.39830  0.39470  0.62480  1.0000 -0.0277480368
C   C39       1.0  0.35470  0.32610  0.64810  1.0000 -0.1205351541
C   C40       1.0  0.27490  0.34460  0.67350  1.0000 -0.1002493583
C   C41       1.0  0.23510  0.43330  0.67450  1.0000 -0.0117213343
C   C42       1.0  0.28030  0.50390  0.65250  1.0000 -0.1002493583
C   C43       1.0  0.36170  0.48540  0.62670  1.0000 -0.1073001159
C   C44       1.0  0.14540  0.45940  0.70210  1.0000 0.5658304435
C   C45       1.0  0.60690  0.28340  0.97860  1.0000 -0.3044497627
C   C46       1.0  0.71210  0.30000  0.03660  1.0000 -0.321168832
C   C47       1.0  0.49710  0.25130  0.07950  1.0000 -0.1265024427
C   C48       1.0  0.55110  0.22520  0.04340  1.0000 0.1591739137
C   C49       1.0  0.54860  0.13650  0.03220  1.0000 -0.1811855226
C   C50       1.0  0.49200  0.06590  0.05290  1.0000 -0.0789952907
C   C51       1.0  0.44180  0.09030  0.08920  1.0000 -0.1205351541
C   C52       1.0  0.44530  0.18300  0.09930  1.0000 -0.0914593074
C   C53       1.0  0.38300  0.38890  0.12370  1.0000 -0.0277480368
C   C54       1.0  0.38670  0.36430  0.16420  1.0000 -0.1205351541
C   C55       1.0  0.30150  0.38010  0.18900  1.0000 -0.1073001159
C   C56       1.0  0.21670  0.42830  0.17350  1.0000 -0.0117213343
C   C57       1.0  0.21340  0.45210  0.13440  1.0000 -0.1002493583
C   C58       1.0  0.29710  0.43030  0.10880  1.0000 -0.1073001159
C   C59       1.0  0.12920  0.45590  0.20100  1.0000 0.5778664094
C   C60       1.0  0.60170  0.39470  0.12480  1.0000 -0.0277480368
C   C61       1.0  0.64530  0.32610  0.14810  1.0000 -0.1205351541
C   C62       1.0  0.72510  0.34460  0.17350  1.0000 -0.1002493583
C   C63       1.0  0.76490  0.43330  0.17450  1.0000 -0.0117213343
C   C64       1.0  0.71970  0.50390  0.15250  1.0000 -0.1002493583
C   C65       1.0  0.63830  0.48540  0.12670  1.0000 -0.1073001159
C   C66       1.0  0.85460  0.45940  0.20210  1.0000 0.5658304435
C   C67       1.0  0.60690  0.71660  0.52140  1.0000 -0.3044497627
C   C68       1.0  0.71210  0.70000  0.46340  1.0000 -0.321168832
C   C69       1.0  0.49710  0.74870  0.42050  1.0000 -0.1265024427
C   C70       1.0  0.55110  0.77480  0.45660  1.0000 0.1591739137
C   C71       1.0  0.54860  0.86350  0.46780  1.0000 -0.1811855226
C   C72       1.0  0.49200  0.93410  0.44710  1.0000 -0.0789952907
C   C73       1.0  0.44180  0.90970  0.41080  1.0000 -0.1205351541
C   C74       1.0  0.44530  0.81700  0.40070  1.0000 -0.0914593074
C   C75       1.0  0.38300  0.61110  0.37630  1.0000 -0.0277480368
C   C76       1.0  0.38670  0.63570  0.33580  1.0000 -0.1205351541
C   C77       1.0  0.30150  0.61990  0.31100  1.0000 -0.1073001159
C   C78       1.0  0.21670  0.57170  0.32650  1.0000 -0.0117213343
C   C79       1.0  0.21340  0.54790  0.36560  1.0000 -0.1002493583
C   C80       1.0  0.29710  0.56970  0.39120  1.0000 -0.1073001159
C   C81       1.0  0.12920  0.54410  0.29900  1.0000 0.5778664094
C   C82       1.0  0.60170  0.60530  0.37520  1.0000 -0.0277480368
C   C83       1.0  0.64530  0.67390  0.35190  1.0000 -0.1205351541
C   C84       1.0  0.72510  0.65540  0.32650  1.0000 -0.1002493583
C   C85       1.0  0.76490  0.56670  0.32550  1.0000 -0.0117213343
C   C86       1.0  0.71970  0.49610  0.34750  1.0000 -0.1002493583
C   C87       1.0  0.63830  0.51460  0.37330  1.0000 -0.1073001159
C   C88       1.0  0.85460  0.54060  0.29790  1.0000 0.5658304435
C   C89       1.0  0.10690  0.78340  0.52140  1.0000 -0.3044497627
C   C90       1.0  0.21210  0.80000  0.46340  1.0000 -0.321168832
C   C91       1.0  0.99710  0.75130  0.42050  1.0000 -0.1265024427
C   C92       1.0  0.05110  0.72520  0.45660  1.0000 0.1591739137
C   C93       1.0  0.04860  0.63650  0.46780  1.0000 -0.1811855226
C   C94       1.0  0.99200  0.56590  0.44710  1.0000 -0.0789952907
C   C95       1.0  0.94180  0.59030  0.41080  1.0000 -0.1205351541
C   C96       1.0  0.94530  0.68300  0.40070  1.0000 -0.0914593074
C   C97       1.0  0.88300  0.88890  0.37630  1.0000 -0.0277480368
C   C98       1.0  0.88670  0.86430  0.33580  1.0000 -0.1205351541
C   C99       1.0  0.80150  0.88010  0.31100  1.0000 -0.1073001159
C   C100      1.0  0.71670  0.92830  0.32650  1.0000 -0.0117213343
C   C101      1.0  0.71340  0.95210  0.36560  1.0000 -0.1002493583
C   C102      1.0  0.79710  0.93030  0.39120  1.0000 -0.1073001159
C   C103      1.0  0.62920  0.95590  0.29900  1.0000 0.5778664094
C   C104      1.0  0.10170  0.89470  0.37520  1.0000 -0.0277480368
C   C105      1.0  0.14530  0.82610  0.35190  1.0000 -0.1205351541
C   C106      1.0  0.22510  0.84460  0.32650  1.0000 -0.1002493583
C   C107      1.0  0.26490  0.93330  0.32550  1.0000 -0.0117213343
C   C108      1.0  0.21970  0.00390  0.34750  1.0000 -0.1002493583
C   C109      1.0  0.13830  0.98540  0.37330  1.0000 -0.1073001159
C   C110      1.0  0.35460  0.95940  0.29790  1.0000 0.5658304435
C   C111      1.0  0.10690  0.21660  0.97860  1.0000 -0.3044497627
C   C112      1.0  0.21210  0.20000  0.03660  1.0000 -0.321168832
C   C113      1.0  0.99710  0.24870  0.07950  1.0000 -0.1265024427
C   C114      1.0  0.05110  0.27480  0.04340  1.0000 0.1591739137
C   C115      1.0  0.04860  0.36350  0.03220  1.0000 -0.1811855226
C   C116      1.0  0.99200  0.43410  0.05290  1.0000 -0.0789952907
C   C117      1.0  0.94180  0.40970  0.08920  1.0000 -0.1205351541
C   C118      1.0  0.94530  0.31700  0.09930  1.0000 -0.0914593074
C   C119      1.0  0.88300  0.11110  0.12370  1.0000 -0.0277480368
C   C120      1.0  0.88670  0.13570  0.16420  1.0000 -0.1205351541
C   C121      1.0  0.80150  0.11990  0.18900  1.0000 -0.1073001159
C   C122      1.0  0.71670  0.07170  0.17350  1.0000 -0.0117213343
C   C123      1.0  0.71340  0.04790  0.13440  1.0000 -0.1002493583
C   C124      1.0  0.79710  0.06970  0.10880  1.0000 -0.1073001159
C   C125      1.0  0.62920  0.04410  0.20100  1.0000 0.5778664094
C   C126      1.0  0.10170  0.10530  0.12480  1.0000 -0.0277480368
C   C127      1.0  0.14530  0.17390  0.14810  1.0000 -0.1205351541
C   C128      1.0  0.22510  0.15540  0.17350  1.0000 -0.1002493583
C   C129      1.0  0.26490  0.06670  0.17450  1.0000 -0.0117213343
C   C130      1.0  0.21970  0.99610  0.15250  1.0000 -0.1002493583
C   C131      1.0  0.13830  0.01460  0.12670  1.0000 -0.1073001159
C   C132      1.0  0.35460  0.04060  0.20210  1.0000 0.5658304435
C   C133      1.0  0.89310  0.21660  0.47860  1.0000 -0.3044497627
C   C134      1.0  0.78790  0.20000  0.53660  1.0000 -0.321168832
C   C135      1.0  0.00290  0.24870  0.57950  1.0000 -0.1265024427
C   C136      1.0  0.94890  0.27480  0.54340  1.0000 0.1591739137
C   C137      1.0  0.95140  0.36350  0.53220  1.0000 -0.1811855226
C   C138      1.0  0.00800  0.43410  0.55290  1.0000 -0.0789952907
C   C139      1.0  0.05820  0.40970  0.58920  1.0000 -0.1205351541
C   C140      1.0  0.05470  0.31700  0.59930  1.0000 -0.0914593074
C   C141      1.0  0.11700  0.11110  0.62370  1.0000 -0.0277480368
C   C142      1.0  0.11330  0.13570  0.66420  1.0000 -0.1205351541
C   C143      1.0  0.19850  0.11990  0.68900  1.0000 -0.1073001159
C   C144      1.0  0.28330  0.07170  0.67350  1.0000 -0.0117213343
C   C145      1.0  0.28660  0.04790  0.63440  1.0000 -0.1002493583
C   C146      1.0  0.20290  0.06970  0.60880  1.0000 -0.1073001159
C   C147      1.0  0.37080  0.04410  0.70100  1.0000 0.5778664094
C   C148      1.0  0.89830  0.10530  0.62480  1.0000 -0.0277480368
C   C149      1.0  0.85470  0.17390  0.64810  1.0000 -0.1205351541
C   C150      1.0  0.77490  0.15540  0.67350  1.0000 -0.1002493583
C   C151      1.0  0.73510  0.06670  0.67450  1.0000 -0.0117213343
C   C152      1.0  0.78030  0.99610  0.65250  1.0000 -0.1002493583
C   C153      1.0  0.86170  0.01460  0.62670  1.0000 -0.1073001159
C   C154      1.0  0.64540  0.04060  0.70210  1.0000 0.5658304435
C   C155      1.0  0.89310  0.78340  0.02140  1.0000 -0.3044497627
C   C156      1.0  0.78790  0.80000  0.96340  1.0000 -0.321168832
C   C157      1.0  0.00290  0.75130  0.92050  1.0000 -0.1265024427
C   C158      1.0  0.94890  0.72520  0.95660  1.0000 0.1591739137
C   C159      1.0  0.95140  0.63650  0.96780  1.0000 -0.1811855226
C   C160      1.0  0.00800  0.56590  0.94710  1.0000 -0.0789952907
C   C161      1.0  0.05820  0.59030  0.91080  1.0000 -0.1205351541
C   C162      1.0  0.05470  0.68300  0.90070  1.0000 -0.0914593074
C   C163      1.0  0.11700  0.88890  0.87630  1.0000 -0.0277480368
C   C164      1.0  0.11330  0.86430  0.83580  1.0000 -0.1205351541
C   C165      1.0  0.19850  0.88010  0.81100  1.0000 -0.1073001159
C   C166      1.0  0.28330  0.92830  0.82650  1.0000 -0.0117213343
C   C167      1.0  0.28660  0.95210  0.86560  1.0000 -0.1002493583
C   C168      1.0  0.20290  0.93030  0.89120  1.0000 -0.1073001159
C   C169      1.0  0.37080  0.95590  0.79900  1.0000 0.5778664094
C   C170      1.0  0.89830  0.89470  0.87520  1.0000 -0.0277480368
C   C171      1.0  0.85470  0.82610  0.85190  1.0000 -0.1205351541
C   C172      1.0  0.77490  0.84460  0.82650  1.0000 -0.1002493583
C   C173      1.0  0.73510  0.93330  0.82550  1.0000 -0.0117213343
C   C174      1.0  0.78030  0.00390  0.84750  1.0000 -0.1002493583
C   C175      1.0  0.86170  0.98540  0.87330  1.0000 -0.1073001159
C   C176      1.0  0.64540  0.95940  0.79790  1.0000 0.5658304435
I   I1        1.0  0.64755  0.56706  0.01524  1.0000 -0.3998267832
I   I2        1.0  0.64755  0.43294  0.48476  1.0000 -0.3998267832
I   I3        1.0  0.35245  0.43294  0.98476  1.0000 -0.3998267832
I   I4        1.0  0.35245  0.56706  0.51524  1.0000 -0.3998267832
I   I5        1.0  0.85245  0.93294  0.51524  1.0000 -0.3998267832
I   I6        1.0  0.85245  0.06706  0.98476  1.0000 -0.3998267832
I   I7        1.0  0.14755  0.06706  0.48476  1.0000 -0.3998267832
I   I8        1.0  0.14755  0.93294  0.01524  1.0000 -0.3998267832
N   N1        1.0  0.39380  0.70200  0.97840  1.0000 -0.0277480368
N   N2        1.0  0.39380  0.29800  0.52160  1.0000 -0.0277480368
N   N3        1.0  0.60620  0.29800  0.02160  1.0000 -0.0277480368
N   N4        1.0  0.60620  0.70200  0.47840  1.0000 -0.0277480368
N   N5        1.0  0.10620  0.79800  0.47840  1.0000 -0.0277480368
N   N6        1.0  0.10620  0.20200  0.02160  1.0000 -0.0277480368
N   N7        1.0  0.89380  0.20200  0.52160  1.0000 -0.0277480368
N   N8        1.0  0.89380  0.79800  0.97840  1.0000 -0.0277480368
O   O1        1.0  0.88820  0.60150  0.77110  1.0000 -0.5182443518
O   O2        1.0  0.10090  0.60700  0.78100  1.0000 -0.510373469
O   O3        1.0  0.12500  0.45370  0.79530  1.0000 -0.510373469
O   O4        1.0  0.91630  0.46920  0.80500  1.0000 -0.4963591355
O   O5        1.0  0.88820  0.39850  0.72890  1.0000 -0.5182443518
O   O6        1.0  0.10090  0.39300  0.71900  1.0000 -0.510373469
O   O7        1.0  0.12500  0.54630  0.70470  1.0000 -0.510373469
O   O8        1.0  0.91630  0.53080  0.69500  1.0000 -0.4963591355
O   O9        1.0  0.11180  0.39850  0.22890  1.0000 -0.5182443518
O   O10       1.0  0.89910  0.39300  0.21900  1.0000 -0.510373469
O   O11       1.0  0.87500  0.54630  0.20470  1.0000 -0.510373469
O   O12       1.0  0.08370  0.53080  0.19500  1.0000 -0.4963591355
O   O13       1.0  0.11180  0.60150  0.27110  1.0000 -0.5182443518
O   O14       1.0  0.89910  0.60700  0.28100  1.0000 -0.510373469
O   O15       1.0  0.87500  0.45370  0.29530  1.0000 -0.510373469
O   O16       1.0  0.08370  0.46920  0.30500  1.0000 -0.4963591355
O   O17       1.0  0.61180  0.89850  0.27110  1.0000 -0.5182443518
O   O18       1.0  0.39910  0.89300  0.28100  1.0000 -0.510373469
O   O19       1.0  0.37500  0.04630  0.29530  1.0000 -0.510373469
O   O20       1.0  0.58370  0.03080  0.30500  1.0000 -0.4963591355
O   O21       1.0  0.61180  0.10150  0.22890  1.0000 -0.5182443518
O   O22       1.0  0.39910  0.10700  0.21900  1.0000 -0.510373469
O   O23       1.0  0.37500  0.95370  0.20470  1.0000 -0.510373469
O   O24       1.0  0.58370  0.96920  0.19500  1.0000 -0.4963591355
O   O25       1.0  0.38820  0.10150  0.72890  1.0000 -0.5182443518
O   O26       1.0  0.60090  0.10700  0.71900  1.0000 -0.510373469
O   O27       1.0  0.62500  0.95370  0.70470  1.0000 -0.510373469
O   O28       1.0  0.41630  0.96920  0.69500  1.0000 -0.4963591355
O   O29       1.0  0.38820  0.89850  0.77110  1.0000 -0.5182443518
O   O30       1.0  0.60090  0.89300  0.78100  1.0000 -0.510373469
O   O31       1.0  0.62500  0.04630  0.79530  1.0000 -0.510373469
O   O32       1.0  0.41630  0.03080  0.80500  1.0000 -0.4963591355
