# DDEC6 charges by PACMAN v1.1 (https://github.com/mtap-research/PACMAN-charge/)
data_2019[Co][pcu]3[ASR]3
_chemical_formula_sum              "Co8 H120 C144 N16 O32"
_cell_length_a       15.9831
_cell_length_b       14.7768
_cell_length_c       18.602
_cell_angle_alpha    90
_cell_angle_beta     101.524
_cell_angle_gamma    90

_symmetry_space_group_name_H-M    "P 1"
_symmetry_Int_Tables_number       1

loop_
  _symmetry_equiv_pos_as_xyz
  'x, y, z'

loop_
  _atom_site_type_symbol
  _atom_site_label
  _atom_site_symmetry_multiplicity
  _atom_site_fract_x
  _atom_site_fract_y
  _atom_site_fract_z
  _atom_site_occupancy
  _atom_site_charge
Co  Co1       1.0  0.48542  0.50269  0.42514  1.0000 0.8498485204
Co  Co2       1.0  0.01458  0.00269  0.57486  1.0000 0.8498485204
Co  Co3       1.0  0.51458  0.49731  0.57486  1.0000 0.8498485204
Co  Co4       1.0  0.98542  0.99731  0.42514  1.0000 0.8498485204
Co  Co5       1.0  0.02559  0.50495  0.07740  1.0000 0.8498485204
Co  Co6       1.0  0.47441  0.00495  0.92260  1.0000 0.8562692419
Co  Co7       1.0  0.97441  0.49505  0.92260  1.0000 0.8562692419
Co  Co8       1.0  0.52559  0.99505  0.07740  1.0000 0.8498485204
H   H1        1.0  0.36050  0.65490  0.03150  1.0000 0.2417715952
H   H2        1.0  0.66840  0.71340  0.39740  1.0000 0.1124952246
H   H3        1.0  0.78010  0.81640  0.40530  1.0000 0.1211719539
H   H4        1.0  0.80410  0.82570  0.62600  1.0000 0.1314745151
H   H5        1.0  0.69150  0.72310  0.61830  1.0000 0.1211719539
H   H6        1.0  0.51590  0.60870  0.29420  1.0000 0.1124952246
H   H7        1.0  0.45850  0.62840  0.17080  1.0000 0.1404749591
H   H8        1.0  0.26350  0.46460  0.19550  1.0000 0.1404749591
H   H9        1.0  0.32600  0.44980  0.31810  1.0000 0.1211719539
H   H10       1.0  0.29680  0.49620  0.06840  1.0000 0.1124952246
H   H11       1.0  0.26180  0.59380  0.08450  1.0000 0.1124952246
H   H12       1.0  0.50800  0.70530  0.92350  1.0000 0.1467909853
H   H13       1.0  0.47250  0.72640  0.99630  1.0000 0.1404749591
H   H14       1.0  0.40880  0.69180  0.92390  1.0000 0.1404749591
H   H15       1.0  0.58250  0.56960  0.92630  1.0000 0.1211719539
H   H16       1.0  0.13950  0.15490  0.96850  1.0000 0.2417715952
H   H17       1.0  0.83160  0.21340  0.60260  1.0000 0.1124952246
H   H18       1.0  0.71990  0.31640  0.59470  1.0000 0.1211719539
H   H19       1.0  0.69590  0.32570  0.37400  1.0000 0.1314745151
H   H20       1.0  0.80850  0.22310  0.38170  1.0000 0.1211719539
H   H21       1.0  0.98410  0.10870  0.70580  1.0000 0.1124952246
H   H22       1.0  0.04150  0.12840  0.82920  1.0000 0.1404749591
H   H23       1.0  0.23650  0.96460  0.80450  1.0000 0.1404749591
H   H24       1.0  0.17400  0.94980  0.68190  1.0000 0.1211719539
H   H25       1.0  0.20320  0.99620  0.93160  1.0000 0.1124952246
H   H26       1.0  0.23820  0.09380  0.91550  1.0000 0.1124952246
H   H27       1.0  0.99200  0.20530  0.07650  1.0000 0.1467909853
H   H28       1.0  0.02750  0.22640  0.00370  1.0000 0.1404749591
H   H29       1.0  0.09120  0.19180  0.07610  1.0000 0.1404749591
H   H30       1.0  0.91750  0.06960  0.07370  1.0000 0.1211719539
H   H31       1.0  0.63950  0.34510  0.96850  1.0000 0.2417715952
H   H32       1.0  0.33160  0.28660  0.60260  1.0000 0.1124952246
H   H33       1.0  0.21990  0.18360  0.59470  1.0000 0.1211719539
H   H34       1.0  0.19590  0.17430  0.37400  1.0000 0.1314745151
H   H35       1.0  0.30850  0.27690  0.38170  1.0000 0.1211719539
H   H36       1.0  0.48410  0.39130  0.70580  1.0000 0.1124952246
H   H37       1.0  0.54150  0.37160  0.82920  1.0000 0.1404749591
H   H38       1.0  0.73650  0.53540  0.80450  1.0000 0.1404749591
H   H39       1.0  0.67400  0.55020  0.68190  1.0000 0.1211719539
H   H40       1.0  0.70320  0.50380  0.93160  1.0000 0.1124952246
H   H41       1.0  0.73820  0.40620  0.91550  1.0000 0.1124952246
H   H42       1.0  0.49200  0.29470  0.07650  1.0000 0.1467909853
H   H43       1.0  0.52750  0.27360  0.00370  1.0000 0.1404749591
H   H44       1.0  0.59120  0.30820  0.07610  1.0000 0.1404749591
H   H45       1.0  0.41750  0.43040  0.07370  1.0000 0.1211719539
H   H46       1.0  0.86050  0.84510  0.03150  1.0000 0.2417715952
H   H47       1.0  0.16840  0.78660  0.39740  1.0000 0.1124952246
H   H48       1.0  0.28010  0.68360  0.40530  1.0000 0.1211719539
H   H49       1.0  0.30410  0.67430  0.62600  1.0000 0.1314745151
H   H50       1.0  0.19150  0.77690  0.61830  1.0000 0.1211719539
H   H51       1.0  0.01590  0.89130  0.29420  1.0000 0.1124952246
H   H52       1.0  0.95850  0.87160  0.17080  1.0000 0.1404749591
H   H53       1.0  0.76350  0.03540  0.19550  1.0000 0.1404749591
H   H54       1.0  0.82600  0.05020  0.31810  1.0000 0.1211719539
H   H55       1.0  0.79680  0.00380  0.06840  1.0000 0.1124952246
H   H56       1.0  0.76180  0.90620  0.08450  1.0000 0.1124952246
H   H57       1.0  0.00800  0.79470  0.92350  1.0000 0.1467909853
H   H58       1.0  0.97250  0.77360  0.99630  1.0000 0.1404749591
H   H59       1.0  0.90880  0.80820  0.92390  1.0000 0.1404749591
H   H60       1.0  0.08250  0.93040  0.92630  1.0000 0.1211719539
H   H61       1.0  0.85810  0.65030  0.41620  1.0000 0.2417715952
H   H62       1.0  0.81310  0.25110  0.91540  1.0000 0.1211719539
H   H63       1.0  0.70510  0.14810  0.92580  1.0000 0.1211719539
H   H64       1.0  0.73360  0.20830  0.14170  1.0000 0.1211719539
H   H65       1.0  0.83640  0.31670  0.13010  1.0000 0.1211719539
H   H66       1.0  0.10510  0.64540  0.18850  1.0000 0.1124952246
H   H67       1.0  0.07970  0.71700  0.29260  1.0000 0.1314745151
H   H68       1.0  0.87120  0.56080  0.28160  1.0000 0.1404749591
H   H69       1.0  0.90210  0.49260  0.17850  1.0000 0.1211719539
H   H70       1.0  0.00590  0.71900  0.39570  1.0000 0.1124952246
H   H71       1.0  0.91430  0.74710  0.34950  1.0000 0.1211719539
H   H72       1.0  0.07210  0.59020  0.43000  1.0000 0.1211719539
H   H73       1.0  0.80130  0.49040  0.53370  1.0000 0.1467909853
H   H74       1.0  0.78520  0.52270  0.44990  1.0000 0.1404749591
H   H75       1.0  0.81380  0.59450  0.51460  1.0000 0.1404749591
H   H76       1.0  0.64190  0.15030  0.58380  1.0000 0.2417715952
H   H77       1.0  0.68690  0.75110  0.08460  1.0000 0.1211719539
H   H78       1.0  0.79490  0.64810  0.07420  1.0000 0.1211719539
H   H79       1.0  0.76640  0.70830  0.85830  1.0000 0.1211719539
H   H80       1.0  0.66360  0.81670  0.86990  1.0000 0.1211719539
H   H81       1.0  0.39490  0.14540  0.81150  1.0000 0.1124952246
H   H82       1.0  0.42030  0.21700  0.70740  1.0000 0.1314745151
H   H83       1.0  0.62880  0.06080  0.71840  1.0000 0.1404749591
H   H84       1.0  0.59790  0.99260  0.82150  1.0000 0.1211719539
H   H85       1.0  0.49410  0.21900  0.60430  1.0000 0.1124952246
H   H86       1.0  0.58570  0.24710  0.65050  1.0000 0.1211719539
H   H87       1.0  0.42790  0.09020  0.57000  1.0000 0.1211719539
H   H88       1.0  0.69870  0.99040  0.46630  1.0000 0.1467909853
H   H89       1.0  0.71480  0.02270  0.55010  1.0000 0.1404749591
H   H90       1.0  0.68620  0.09450  0.48540  1.0000 0.1404749591
H   H91       1.0  0.14190  0.34970  0.58380  1.0000 0.2417715952
H   H92       1.0  0.18690  0.74890  0.08460  1.0000 0.1211719539
H   H93       1.0  0.29490  0.85190  0.07420  1.0000 0.1211719539
H   H94       1.0  0.26640  0.79170  0.85830  1.0000 0.1211719539
H   H95       1.0  0.16360  0.68330  0.86990  1.0000 0.1211719539
H   H96       1.0  0.89490  0.35460  0.81150  1.0000 0.1124952246
H   H97       1.0  0.92030  0.28300  0.70740  1.0000 0.1314745151
H   H98       1.0  0.12880  0.43920  0.71840  1.0000 0.1404749591
H   H99       1.0  0.09790  0.50740  0.82150  1.0000 0.1211719539
H   H100      1.0  0.99410  0.28100  0.60430  1.0000 0.1124952246
H   H101      1.0  0.08570  0.25290  0.65050  1.0000 0.1211719539
H   H102      1.0  0.92790  0.40980  0.57000  1.0000 0.1211719539
H   H103      1.0  0.19870  0.50960  0.46630  1.0000 0.1467909853
H   H104      1.0  0.21480  0.47730  0.55010  1.0000 0.1404749591
H   H105      1.0  0.18620  0.40550  0.48540  1.0000 0.1404749591
H   H106      1.0  0.35810  0.84970  0.41620  1.0000 0.2417715952
H   H107      1.0  0.31310  0.24890  0.91540  1.0000 0.1211719539
H   H108      1.0  0.20510  0.35190  0.92580  1.0000 0.1211719539
H   H109      1.0  0.23360  0.29170  0.14170  1.0000 0.1211719539
H   H110      1.0  0.33640  0.18330  0.13010  1.0000 0.1211719539
H   H111      1.0  0.60510  0.85460  0.18850  1.0000 0.1124952246
H   H112      1.0  0.57970  0.78300  0.29260  1.0000 0.1314745151
H   H113      1.0  0.37120  0.93920  0.28160  1.0000 0.1404749591
H   H114      1.0  0.40210  0.00740  0.17850  1.0000 0.1211719539
H   H115      1.0  0.50590  0.78100  0.39570  1.0000 0.1124952246
H   H116      1.0  0.41430  0.75290  0.34950  1.0000 0.1211719539
H   H117      1.0  0.57210  0.90980  0.43000  1.0000 0.1211719539
H   H118      1.0  0.30130  0.00960  0.53370  1.0000 0.1467909853
H   H119      1.0  0.28520  0.97730  0.44990  1.0000 0.1404749591
H   H120      1.0  0.31380  0.90550  0.51460  1.0000 0.1404749591
C   C1        1.0  0.60246  0.63610  0.50276  1.0000 0.567454886
C   C2        1.0  0.66980  0.70736  0.50719  1.0000 -0.0208927782
C   C3        1.0  0.69606  0.73594  0.44394  1.0000 -0.1295540658
C   C4        1.0  0.76238  0.79707  0.44866  1.0000 -0.1295540658
C   C5        1.0  0.80332  0.83041  0.51646  1.0000 -0.0146969094
C   C6        1.0  0.77658  0.80269  0.57954  1.0000 -0.1102671049
C   C7        1.0  0.70985  0.74157  0.57507  1.0000 -0.1102671049
C   C8        1.0  0.87692  0.89450  0.52094  1.0000 0.567454886
C   C9        1.0  0.46440  0.57816  0.27355  1.0000 0.0882595663
C   C10       1.0  0.43044  0.59055  0.19984  1.0000 -0.1935041755
C   C11       1.0  0.35477  0.54686  0.16870  1.0000 0.1571058944
C   C12       1.0  0.31597  0.49436  0.21439  1.0000 -0.1968947708
C   C13       1.0  0.35375  0.48552  0.28741  1.0000 0.0882595663
C   C14       1.0  0.31415  0.55681  0.08860  1.0000 -0.1295540658
C   C15       1.0  0.43362  0.54882  0.02244  1.0000 0.1314745151
C   C16       1.0  0.46677  0.68690  0.95325  1.0000 -0.4446122035
C   C17       1.0  0.48379  0.59044  0.97785  1.0000 0.0882595663
C   C18       1.0  0.54874  0.54110  0.95647  1.0000 -0.2543357595
C   C19       1.0  0.89754  0.13610  0.49724  1.0000 0.567454886
C   C20       1.0  0.83020  0.20736  0.49281  1.0000 -0.0208927782
C   C21       1.0  0.80394  0.23594  0.55606  1.0000 -0.1295540658
C   C22       1.0  0.73762  0.29707  0.55134  1.0000 -0.1295540658
C   C23       1.0  0.69668  0.33041  0.48354  1.0000 -0.0208927782
C   C24       1.0  0.72342  0.30269  0.42046  1.0000 -0.1102671049
C   C25       1.0  0.79015  0.24157  0.42493  1.0000 -0.1102671049
C   C26       1.0  0.62308  0.39450  0.47906  1.0000 0.567454886
C   C27       1.0  0.03560  0.07816  0.72645  1.0000 0.0882595663
C   C28       1.0  0.06956  0.09055  0.80016  1.0000 -0.1935041755
C   C29       1.0  0.14523  0.04686  0.83130  1.0000 0.1571058944
C   C30       1.0  0.18403  0.99436  0.78561  1.0000 -0.1968947708
C   C31       1.0  0.14625  0.98552  0.71259  1.0000 0.0882595663
C   C32       1.0  0.18585  0.05681  0.91140  1.0000 -0.1295540658
C   C33       1.0  0.06638  0.04882  0.97756  1.0000 0.1314745151
C   C34       1.0  0.03323  0.18690  0.04675  1.0000 -0.4446122035
C   C35       1.0  0.01621  0.09044  0.02215  1.0000 0.0882595663
C   C36       1.0  0.95126  0.04110  0.04353  1.0000 -0.2543357595
C   C37       1.0  0.39754  0.36390  0.49724  1.0000 0.567454886
C   C38       1.0  0.33020  0.29264  0.49281  1.0000 -0.0208927782
C   C39       1.0  0.30394  0.26406  0.55606  1.0000 -0.1295540658
C   C40       1.0  0.23762  0.20293  0.55134  1.0000 -0.1295540658
C   C41       1.0  0.19668  0.16959  0.48354  1.0000 -0.0146969094
C   C42       1.0  0.22342  0.19731  0.42046  1.0000 -0.1102671049
C   C43       1.0  0.29015  0.25843  0.42493  1.0000 -0.1102671049
C   C44       1.0  0.12308  0.10550  0.47906  1.0000 0.567454886
C   C45       1.0  0.53560  0.42184  0.72645  1.0000 0.0882595663
C   C46       1.0  0.56956  0.40945  0.80016  1.0000 -0.1935041755
C   C47       1.0  0.64523  0.45314  0.83130  1.0000 0.1571058944
C   C48       1.0  0.68403  0.50564  0.78561  1.0000 -0.1968947708
C   C49       1.0  0.64625  0.51448  0.71259  1.0000 0.0882595663
C   C50       1.0  0.68585  0.44319  0.91140  1.0000 -0.1295540658
C   C51       1.0  0.56638  0.45118  0.97756  1.0000 0.1314745151
C   C52       1.0  0.53323  0.31310  0.04675  1.0000 -0.4446122035
C   C53       1.0  0.51621  0.40956  0.02215  1.0000 0.0882595663
C   C54       1.0  0.45126  0.45890  0.04353  1.0000 -0.2543357595
C   C55       1.0  0.10246  0.86390  0.50276  1.0000 0.567454886
C   C56       1.0  0.16980  0.79264  0.50719  1.0000 -0.0208927782
C   C57       1.0  0.19606  0.76406  0.44394  1.0000 -0.1295540658
C   C58       1.0  0.26238  0.70293  0.44866  1.0000 -0.1295540658
C   C59       1.0  0.30332  0.66959  0.51646  1.0000 -0.0146969094
C   C60       1.0  0.27658  0.69731  0.57954  1.0000 -0.1102671049
C   C61       1.0  0.20985  0.75843  0.57507  1.0000 -0.1102671049
C   C62       1.0  0.37692  0.60550  0.52094  1.0000 0.567454886
C   C63       1.0  0.96440  0.92184  0.27355  1.0000 0.0882595663
C   C64       1.0  0.93044  0.90945  0.19984  1.0000 -0.1935041755
C   C65       1.0  0.85477  0.95314  0.16870  1.0000 0.1571058944
C   C66       1.0  0.81597  0.00564  0.21439  1.0000 -0.1968947708
C   C67       1.0  0.85375  0.01448  0.28741  1.0000 0.0882595663
C   C68       1.0  0.81415  0.94319  0.08860  1.0000 -0.1295540658
C   C69       1.0  0.93362  0.95118  0.02244  1.0000 0.1314745151
C   C70       1.0  0.96677  0.81310  0.95325  1.0000 -0.4446122035
C   C71       1.0  0.98379  0.90956  0.97785  1.0000 0.0882595663
C   C72       1.0  0.04874  0.95890  0.95647  1.0000 -0.2543357595
C   C73       1.0  0.89831  0.36800  0.01388  1.0000 0.567454886
C   C74       1.0  0.83404  0.29549  0.02146  1.0000 -0.0208927782
C   C75       1.0  0.79570  0.24388  0.96103  1.0000 -0.1198407066
C   C76       1.0  0.73208  0.18189  0.96743  1.0000 -0.1198407066
C   C77       1.0  0.70774  0.16911  0.03429  1.0000 -0.0269653456
C   C78       1.0  0.74836  0.21836  0.09536  1.0000 -0.1198407066
C   C79       1.0  0.81021  0.28207  0.08862  1.0000 -0.1198407066
C   C80       1.0  0.63670  0.10462  0.04021  1.0000 0.5536588744
C   C81       1.0  0.05692  0.62764  0.20788  1.0000 0.0882595663
C   C82       1.0  0.04189  0.67094  0.26999  1.0000 -0.2152350082
C   C83       1.0  0.97203  0.64731  0.29925  1.0000 0.1467909853
C   C84       1.0  0.92000  0.57947  0.26360  1.0000 -0.1935041755
C   C85       1.0  0.93888  0.53897  0.20201  1.0000 0.0882595663
C   C86       1.0  0.95195  0.69485  0.36632  1.0000 -0.1404247119
C   C87       1.0  0.95562  0.56870  0.45482  1.0000 0.1314745151
C   C88       1.0  0.04254  0.55340  0.45858  1.0000 -0.2593925282
C   C89       1.0  0.91226  0.51386  0.49726  1.0000 0.0951722671
C   C90       1.0  0.82010  0.53194  0.49901  1.0000 -0.4563506826
C   C91       1.0  0.60169  0.86800  0.98612  1.0000 0.567454886
C   C92       1.0  0.66596  0.79549  0.97854  1.0000 -0.0208927782
C   C93       1.0  0.70430  0.74388  0.03897  1.0000 -0.1198407066
C   C94       1.0  0.76792  0.68189  0.03257  1.0000 -0.1198407066
C   C95       1.0  0.79226  0.66911  0.96571  1.0000 -0.0269653456
C   C96       1.0  0.75164  0.71836  0.90464  1.0000 -0.1295540658
C   C97       1.0  0.68979  0.78207  0.91138  1.0000 -0.1198407066
C   C98       1.0  0.86330  0.60462  0.95979  1.0000 0.5536588744
C   C99       1.0  0.44308  0.12764  0.79212  1.0000 0.0882595663
C   C100      1.0  0.45811  0.17094  0.73001  1.0000 -0.2152350082
C   C101      1.0  0.52797  0.14731  0.70075  1.0000 0.1467909853
C   C102      1.0  0.58000  0.07947  0.73640  1.0000 -0.1935041755
C   C103      1.0  0.56112  0.03897  0.79799  1.0000 0.0882595663
C   C104      1.0  0.54805  0.19485  0.63368  1.0000 -0.1404247119
C   C105      1.0  0.54438  0.06870  0.54518  1.0000 0.1314745151
C   C106      1.0  0.45746  0.05340  0.54142  1.0000 -0.2593925282
C   C107      1.0  0.58774  0.01386  0.50274  1.0000 0.0951722671
C   C108      1.0  0.67990  0.03194  0.50099  1.0000 -0.4563506826
C   C109      1.0  0.10169  0.63200  0.98612  1.0000 0.567454886
C   C110      1.0  0.16596  0.70451  0.97854  1.0000 -0.0208927782
C   C111      1.0  0.20430  0.75612  0.03897  1.0000 -0.1198407066
C   C112      1.0  0.26792  0.81811  0.03257  1.0000 -0.1198407066
C   C113      1.0  0.29226  0.83089  0.96571  1.0000 -0.0269653456
C   C114      1.0  0.25164  0.78164  0.90464  1.0000 -0.1295540658
C   C115      1.0  0.18979  0.71793  0.91138  1.0000 -0.1198407066
C   C116      1.0  0.36330  0.89538  0.95979  1.0000 0.5536588744
C   C117      1.0  0.94308  0.37236  0.79212  1.0000 0.0882595663
C   C118      1.0  0.95811  0.32906  0.73001  1.0000 -0.2146504357
C   C119      1.0  0.02797  0.35269  0.70075  1.0000 0.1467909853
C   C120      1.0  0.08000  0.42053  0.73640  1.0000 -0.1935041755
C   C121      1.0  0.06112  0.46103  0.79799  1.0000 0.0882595663
C   C122      1.0  0.04805  0.30515  0.63368  1.0000 -0.1404247119
C   C123      1.0  0.04438  0.43130  0.54518  1.0000 0.1314745151
C   C124      1.0  0.95746  0.44660  0.54142  1.0000 -0.2593925282
C   C125      1.0  0.08774  0.48614  0.50274  1.0000 0.0951722671
C   C126      1.0  0.17990  0.46806  0.50099  1.0000 -0.4563506826
C   C127      1.0  0.39831  0.13200  0.01388  1.0000 0.567454886
C   C128      1.0  0.33404  0.20451  0.02146  1.0000 -0.0208927782
C   C129      1.0  0.29570  0.25612  0.96103  1.0000 -0.1198407066
C   C130      1.0  0.23208  0.31811  0.96743  1.0000 -0.1198407066
C   C131      1.0  0.20774  0.33089  0.03429  1.0000 -0.0269653456
C   C132      1.0  0.24836  0.28164  0.09536  1.0000 -0.1198407066
C   C133      1.0  0.31021  0.21793  0.08862  1.0000 -0.1198407066
C   C134      1.0  0.13670  0.39538  0.04021  1.0000 0.5536588744
C   C135      1.0  0.55692  0.87236  0.20788  1.0000 0.0882595663
C   C136      1.0  0.54189  0.82906  0.26999  1.0000 -0.2152350082
C   C137      1.0  0.47203  0.85269  0.29925  1.0000 0.1467909853
C   C138      1.0  0.42000  0.92053  0.26360  1.0000 -0.1935041755
C   C139      1.0  0.43888  0.96103  0.20201  1.0000 0.0882595663
C   C140      1.0  0.45195  0.80515  0.36632  1.0000 -0.1404247119
C   C141      1.0  0.45562  0.93130  0.45482  1.0000 0.1314745151
C   C142      1.0  0.54254  0.94660  0.45858  1.0000 -0.2593925282
C   C143      1.0  0.41226  0.98614  0.49726  1.0000 0.0951722671
C   C144      1.0  0.32010  0.96806  0.49901  1.0000 -0.4563506826
N   N1        1.0  0.42850  0.52544  0.31711  1.0000 -0.2394166424
N   N2        1.0  0.36846  0.59787  0.04466  1.0000 -0.3494892328
N   N3        1.0  0.07150  0.02544  0.68289  1.0000 -0.2394166424
N   N4        1.0  0.13154  0.09787  0.95534  1.0000 -0.3494892328
N   N5        1.0  0.57150  0.47456  0.68289  1.0000 -0.2394166424
N   N6        1.0  0.63154  0.40213  0.95534  1.0000 -0.3494892328
N   N7        1.0  0.92850  0.97456  0.31711  1.0000 -0.2394166424
N   N8        1.0  0.86846  0.90213  0.04466  1.0000 -0.3494892328
N   N9        1.0  0.00647  0.56184  0.17384  1.0000 -0.2336878388
N   N10       1.0  0.91153  0.63944  0.41339  1.0000 -0.3376767471
N   N11       1.0  0.49353  0.06184  0.82616  1.0000 -0.2336878388
N   N12       1.0  0.58847  0.13944  0.58661  1.0000 -0.3376767471
N   N13       1.0  0.99353  0.43816  0.82616  1.0000 -0.2336878388
N   N14       1.0  0.08847  0.36056  0.58661  1.0000 -0.3376767471
N   N15       1.0  0.50647  0.93816  0.17384  1.0000 -0.2336878388
N   N16       1.0  0.41153  0.86056  0.41339  1.0000 -0.3376767471
O   O1        1.0  0.56632  0.60938  0.43954  1.0000 -0.5481580331
O   O2        1.0  0.58726  0.60659  0.56244  1.0000 -0.5481580331
O   O3        1.0  0.89514  0.91953  0.46149  1.0000 -0.5693487658
O   O4        1.0  0.91585  0.92000  0.58388  1.0000 -0.5234028383
O   O5        1.0  0.93368  0.10938  0.56046  1.0000 -0.5481580331
O   O6        1.0  0.91274  0.10659  0.43756  1.0000 -0.5481580331
O   O7        1.0  0.60486  0.41953  0.53851  1.0000 -0.5693487658
O   O8        1.0  0.58415  0.42000  0.41612  1.0000 -0.5234028383
O   O9        1.0  0.43368  0.39062  0.56046  1.0000 -0.5481580331
O   O10       1.0  0.41274  0.39341  0.43756  1.0000 -0.5481580331
O   O11       1.0  0.10486  0.08047  0.53851  1.0000 -0.5693487658
O   O12       1.0  0.08415  0.08000  0.41612  1.0000 -0.5234028383
O   O13       1.0  0.06632  0.89062  0.43954  1.0000 -0.5481580331
O   O14       1.0  0.08726  0.89341  0.56244  1.0000 -0.5481580331
O   O15       1.0  0.39514  0.58047  0.46149  1.0000 -0.5693487658
O   O16       1.0  0.41585  0.58000  0.58388  1.0000 -0.5234028383
O   O17       1.0  0.94002  0.40250  0.07220  1.0000 -0.5481580331
O   O18       1.0  0.90492  0.38993  0.94990  1.0000 -0.5554829522
O   O19       1.0  0.62895  0.07817  0.10342  1.0000 -0.5386602416
O   O20       1.0  0.58732  0.08001  0.98207  1.0000 -0.5693487658
O   O21       1.0  0.55998  0.90250  0.92780  1.0000 -0.5481580331
O   O22       1.0  0.59508  0.88993  0.05010  1.0000 -0.5554829522
O   O23       1.0  0.87105  0.57817  0.89658  1.0000 -0.5386602416
O   O24       1.0  0.91268  0.58001  0.01793  1.0000 -0.5693487658
O   O25       1.0  0.05998  0.59750  0.92780  1.0000 -0.5481580331
O   O26       1.0  0.09508  0.61007  0.05010  1.0000 -0.5554829522
O   O27       1.0  0.37105  0.92183  0.89658  1.0000 -0.5386602416
O   O28       1.0  0.41268  0.91999  0.01793  1.0000 -0.5693487658
O   O29       1.0  0.44002  0.09750  0.07220  1.0000 -0.5481580331
O   O30       1.0  0.40492  0.11007  0.94990  1.0000 -0.5554829522
O   O31       1.0  0.12895  0.42183  0.10342  1.0000 -0.5386602416
O   O32       1.0  0.08732  0.41999  0.98207  1.0000 -0.5693487658
