# DDEC6 charges by PACMAN v1.1 (https://github.com/mtap-research/PACMAN-charge/)
data_2019[Cd][kgd]2[ASR]4
_chemical_formula_sum              "Cd6 H28 C52 N8 O24"
_cell_length_a       7.7527
_cell_length_b       10.316
_cell_length_c       25.513
_cell_angle_alpha    98.471
_cell_angle_beta     89.728
_cell_angle_gamma    95.312

_symmetry_space_group_name_H-M    "P 1"
_symmetry_Int_Tables_number       1

loop_
  _symmetry_equiv_pos_as_xyz
  'x, y, z'

loop_
  _atom_site_type_symbol
  _atom_site_label
  _atom_site_symmetry_multiplicity
  _atom_site_fract_x
  _atom_site_fract_y
  _atom_site_fract_z
  _atom_site_occupancy
  _atom_site_charge
Cd  Cd1       1.0  0.31481  0.21446  0.11001  1.0000 0.9413768055
Cd  Cd2       1.0  0.98730  0.82190  0.74900  1.0000 1.0774508716
Cd  Cd3       1.0  0.67892  0.85467  0.61148  1.0000 0.9413768055
Cd  Cd4       1.0  0.68519  0.78554  0.88999  1.0000 0.9413768055
Cd  Cd5       1.0  0.01270  0.17810  0.25100  1.0000 1.0774508716
Cd  Cd6       1.0  0.32108  0.14533  0.38852  1.0000 0.9413768055
H   H1        1.0  0.31300  0.69520  0.11370  1.0000 0.1321048664
H   H2        1.0  0.71030  0.52680  0.03900  1.0000 0.1192815492
H   H3        1.0  0.25130  0.89320  0.91320  1.0000 0.1668641618
H   H4        1.0  0.09320  0.97730  0.92260  1.0000 0.1585297184
H   H5        1.0  0.06140  0.03730  0.59980  1.0000 0.1668641618
H   H6        1.0  0.23910  0.97680  0.60080  1.0000 0.1585297184
H   H7        1.0  0.26950  0.76850  0.53060  1.0000 0.1386932732
H   H8        1.0  0.06900  0.63290  0.46580  1.0000 0.1585297184
H   H9        1.0  0.71590  0.51160  0.46230  1.0000 0.1192815492
H   H10       1.0  0.32380  0.63310  0.38640  1.0000 0.1321048664
H   H11       1.0  0.66210  0.89430  0.47230  1.0000 0.1192815492
H   H12       1.0  0.25550  0.71660  0.97270  1.0000 0.1386932732
H   H13       1.0  0.04020  0.62290  0.03240  1.0000 0.1585297184
H   H14       1.0  0.64090  0.90100  0.02740  1.0000 0.1192815492
H   H15       1.0  0.68700  0.30480  0.88630  1.0000 0.1321048664
H   H16       1.0  0.28970  0.47320  0.96100  1.0000 0.1192815492
H   H17       1.0  0.74870  0.10680  0.08680  1.0000 0.1668641618
H   H18       1.0  0.90680  0.02270  0.07740  1.0000 0.1585297184
H   H19       1.0  0.93860  0.96270  0.40020  1.0000 0.1668641618
H   H20       1.0  0.76090  0.02320  0.39920  1.0000 0.1585297184
H   H21       1.0  0.73050  0.23150  0.46940  1.0000 0.1386932732
H   H22       1.0  0.93100  0.36710  0.53420  1.0000 0.1585297184
H   H23       1.0  0.28410  0.48840  0.53770  1.0000 0.1192815492
H   H24       1.0  0.67620  0.36690  0.61360  1.0000 0.1321048664
H   H25       1.0  0.33790  0.10570  0.52770  1.0000 0.1192815492
H   H26       1.0  0.74450  0.28340  0.02730  1.0000 0.1386932732
H   H27       1.0  0.95980  0.37710  0.96760  1.0000 0.1585297184
H   H28       1.0  0.35910  0.09900  0.97260  1.0000 0.1192815492
C   C1        1.0  0.37730  0.94200  0.09240  1.0000 0.5397588985
C   C2        1.0  0.46540  0.81850  0.07450  1.0000 -0.0203581441
C   C3        1.0  0.41040  0.70030  0.09240  1.0000 -0.1161025314
C   C4        1.0  0.49980  0.59080  0.07860  1.0000 -0.0120453353
C   C5        1.0  0.43710  0.46090  0.09540  1.0000 0.5397588985
C   C6        1.0  0.64780  0.59970  0.04720  1.0000 -0.1382966915
C   C7        1.0  0.70230  0.71530  0.02850  1.0000 0.0440233314
C   C8        1.0  0.86610  0.72850  0.99930  1.0000 0.1585297184
C   C9        1.0  0.12600  0.88930  0.91080  1.0000 -0.2984597682
C   C10       1.0  0.07330  0.85060  0.85380  1.0000 0.6670851113
C   C11       1.0  0.11470  0.95740  0.60300  1.0000 -0.2984597682
C   C12       1.0  0.07290  0.91890  0.65610  1.0000 0.658196211
C   C13       1.0  0.15090  0.77420  0.52800  1.0000 -0.0437582572
C   C14       1.0  0.04100  0.69980  0.49210  1.0000 -0.2367064653
C   C15       1.0  0.87750  0.74350  0.50250  1.0000 0.1668641618
C   C16       1.0  0.71480  0.70850  0.47220  1.0000 0.0339651407
C   C17       1.0  0.65550  0.57960  0.45380  1.0000 -0.1382966915
C   C18       1.0  0.50490  0.55040  0.42250  1.0000 -0.0120453353
C   C19       1.0  0.43780  0.40900  0.40520  1.0000 0.5397588985
C   C20       1.0  0.42090  0.65220  0.40850  1.0000 -0.1126306354
C   C21       1.0  0.47770  0.78250  0.42650  1.0000 -0.0203581441
C   C22       1.0  0.39600  0.89560  0.40930  1.0000 0.5397588985
C   C23       1.0  0.62420  0.80750  0.45900  1.0000 -0.1382966915
C   C24       1.0  0.13870  0.73030  0.97520  1.0000 -0.0437582572
C   C25       1.0  0.02030  0.67960  0.00830  1.0000 -0.2367064653
C   C26       1.0  0.60820  0.82390  0.04120  1.0000 -0.1382966915
C   C27       1.0  0.62270  0.05800  0.90760  1.0000 0.5397588985
C   C28       1.0  0.53460  0.18150  0.92550  1.0000 -0.0203581441
C   C29       1.0  0.58960  0.29970  0.90760  1.0000 -0.1161025314
C   C30       1.0  0.50020  0.40920  0.92140  1.0000 -0.0120453353
C   C31       1.0  0.56290  0.53910  0.90460  1.0000 0.5397588985
C   C32       1.0  0.35220  0.40030  0.95280  1.0000 -0.1382966915
C   C33       1.0  0.29770  0.28470  0.97150  1.0000 0.0440233314
C   C34       1.0  0.13390  0.27150  0.00070  1.0000 0.1585297184
C   C35       1.0  0.87400  0.11070  0.08920  1.0000 -0.2984597682
C   C36       1.0  0.92670  0.14940  0.14620  1.0000 0.6670851113
C   C37       1.0  0.88530  0.04260  0.39700  1.0000 -0.2984597682
C   C38       1.0  0.92710  0.08110  0.34390  1.0000 0.658196211
C   C39       1.0  0.84910  0.22580  0.47200  1.0000 -0.0437582572
C   C40       1.0  0.95900  0.30020  0.50790  1.0000 -0.2367064653
C   C41       1.0  0.12250  0.25650  0.49750  1.0000 0.1668641618
C   C42       1.0  0.28520  0.29150  0.52780  1.0000 0.0339651407
C   C43       1.0  0.34450  0.42040  0.54620  1.0000 -0.1382966915
C   C44       1.0  0.49510  0.44960  0.57750  1.0000 -0.0120453353
C   C45       1.0  0.56220  0.59100  0.59480  1.0000 0.5397588985
C   C46       1.0  0.57910  0.34780  0.59150  1.0000 -0.1126306354
C   C47       1.0  0.52230  0.21750  0.57350  1.0000 -0.0203581441
C   C48       1.0  0.60400  0.10440  0.59070  1.0000 0.5397588985
C   C49       1.0  0.37580  0.19250  0.54100  1.0000 -0.1382966915
C   C50       1.0  0.86130  0.26970  0.02480  1.0000 -0.0437582572
C   C51       1.0  0.97970  0.32040  0.99170  1.0000 -0.2367064653
C   C52       1.0  0.39180  0.17610  0.95880  1.0000 -0.1382966915
N   N1        1.0  0.88490  0.80740  0.96170  1.0000 -0.3243616222
N   N2        1.0  0.05310  0.80360  0.94690  1.0000 0.216969823
N   N3        1.0  0.88610  0.83990  0.54430  1.0000 -0.3320733307
N   N4        1.0  0.05750  0.85800  0.55920  1.0000 0.2149051578
N   N5        1.0  0.11510  0.19260  0.03830  1.0000 -0.3243616222
N   N6        1.0  0.94690  0.19640  0.05310  1.0000 0.216969823
N   N7        1.0  0.11390  0.16010  0.45570  1.0000 -0.3320733307
N   N8        1.0  0.94250  0.14200  0.44080  1.0000 0.216969823
O   O1        1.0  0.44690  0.04370  0.07510  1.0000 -0.5568679867
O   O2        1.0  0.25010  0.93980  0.12130  1.0000 -0.540993437
O   O3        1.0  0.30320  0.45290  0.12290  1.0000 -0.540993437
O   O4        1.0  0.51570  0.36310  0.07960  1.0000 -0.540993437
O   O5        1.0  0.91970  0.86650  0.66351  1.0000 -0.6089005171
O   O6        1.0  0.18270  0.93520  0.69180  1.0000 -0.5084353684
O   O7        1.0  0.30050  0.38400  0.37820  1.0000 -0.5495156446
O   O8        1.0  0.51820  0.32100  0.41870  1.0000 -0.540993437
O   O9        1.0  0.47210  0.00930  0.42370  1.0000 -0.5495156446
O   O10       1.0  0.26060  0.87590  0.38190  1.0000 -0.5495156446
O   O11       1.0  0.93070  0.78870  0.84017  1.0000 -0.5951910018
O   O12       1.0  0.17820  0.88820  0.81990  1.0000 -0.5244543551
O   O13       1.0  0.55310  0.95630  0.92490  1.0000 -0.5568679867
O   O14       1.0  0.74990  0.06020  0.87870  1.0000 -0.540993437
O   O15       1.0  0.69680  0.54710  0.87710  1.0000 -0.540993437
O   O16       1.0  0.48430  0.63690  0.92040  1.0000 -0.540993437
O   O17       1.0  0.08030  0.13350  0.33649  1.0000 -0.6089005171
O   O18       1.0  0.81730  0.06480  0.30820  1.0000 -0.5084353684
O   O19       1.0  0.69950  0.61600  0.62180  1.0000 -0.5495156446
O   O20       1.0  0.48180  0.67900  0.58130  1.0000 -0.540993437
O   O21       1.0  0.52790  0.99070  0.57630  1.0000 -0.5495156446
O   O22       1.0  0.73940  0.12410  0.61810  1.0000 -0.5495156446
O   O23       1.0  0.06930  0.21130  0.15983  1.0000 -0.5951910018
O   O24       1.0  0.82180  0.11180  0.18010  1.0000 -0.5244543551
