# DDEC6 charges by PACMAN v1.1 (https://github.com/mtap-research/PACMAN-charge/)
data_2019[Cu][sql]2[ASR]5
_chemical_formula_sum              "Cu4 H32 C68 O16 F24"
_cell_length_a       16.5962
_cell_length_b       16.5962
_cell_length_c       23.131
_cell_angle_alpha    60.3598
_cell_angle_beta     119.64
_cell_angle_gamma    154.453

_symmetry_space_group_name_H-M    "P 1"
_symmetry_Int_Tables_number       1

loop_
  _symmetry_equiv_pos_as_xyz
  'x, y, z'

loop_
  _atom_site_type_symbol
  _atom_site_label
  _atom_site_symmetry_multiplicity
  _atom_site_fract_x
  _atom_site_fract_y
  _atom_site_fract_z
  _atom_site_occupancy
  _atom_site_charge
Cu  Cu1       1.0  0.61541  0.67257  0.47818  1.0000 0.8278818703
Cu  Cu2       1.0  0.67257  0.61541  0.02182  1.0000 0.8278818703
Cu  Cu3       1.0  0.38459  0.32743  0.52182  1.0000 0.8278818703
Cu  Cu4       1.0  0.32743  0.38459  0.97818  1.0000 0.8278818703
H   H1        1.0  0.57830  0.31830  0.21940  1.0000 0.1299297134
H   H2        1.0  0.48780  0.13320  0.32060  1.0000 0.120724563
H   H3        1.0  0.95960  0.76760  0.25330  1.0000 0.120724563
H   H4        1.0  0.05180  0.95400  0.15130  1.0000 0.1299297134
H   H5        1.0  0.00950  0.91650  0.40040  1.0000 0.1299297134
H   H6        1.0  0.63110  0.38230  0.45360  1.0000 0.1299297134
H   H7        1.0  0.80790  0.45950  0.41980  1.0000 0.120724563
H   H8        1.0  0.17800  0.98920  0.36380  1.0000 0.120724563
H   H9        1.0  0.31830  0.57830  0.28060  1.0000 0.1299297134
H   H10       1.0  0.13320  0.48780  0.17940  1.0000 0.120724563
H   H11       1.0  0.76760  0.95960  0.24670  1.0000 0.120724563
H   H12       1.0  0.95400  0.05180  0.34870  1.0000 0.1299297134
H   H13       1.0  0.91650  0.00950  0.09960  1.0000 0.1299297134
H   H14       1.0  0.38230  0.63110  0.04640  1.0000 0.1299297134
H   H15       1.0  0.45950  0.80790  0.08020  1.0000 0.120724563
H   H16       1.0  0.98920  0.17800  0.13620  1.0000 0.120724563
H   H17       1.0  0.42170  0.68170  0.78060  1.0000 0.1299297134
H   H18       1.0  0.51220  0.86680  0.67940  1.0000 0.120724563
H   H19       1.0  0.04040  0.23240  0.74670  1.0000 0.120724563
H   H20       1.0  0.94820  0.04600  0.84870  1.0000 0.1299297134
H   H21       1.0  0.99050  0.08350  0.59960  1.0000 0.1299297134
H   H22       1.0  0.36890  0.61770  0.54640  1.0000 0.1299297134
H   H23       1.0  0.19210  0.54050  0.58020  1.0000 0.120724563
H   H24       1.0  0.82200  0.01080  0.63620  1.0000 0.120724563
H   H25       1.0  0.68170  0.42170  0.71940  1.0000 0.1299297134
H   H26       1.0  0.86680  0.51220  0.82060  1.0000 0.120724563
H   H27       1.0  0.23240  0.04040  0.75330  1.0000 0.120724563
H   H28       1.0  0.04600  0.94820  0.65130  1.0000 0.1299297134
H   H29       1.0  0.08350  0.99050  0.90040  1.0000 0.1299297134
H   H30       1.0  0.61770  0.36890  0.95360  1.0000 0.1299297134
H   H31       1.0  0.54050  0.19210  0.91980  1.0000 0.120724563
H   H32       1.0  0.01080  0.82200  0.86380  1.0000 0.120724563
C   C1        1.0  0.45312  0.20748  0.22620  1.0000 -0.0889852783
C   C2        1.0  0.39882  0.09638  0.28700  1.0000 -0.1423185827
C   C3        1.0  0.21499  0.93141  0.29930  1.0000 0.0694706891
C   C4        1.0  0.08517  0.87943  0.24680  1.0000 -0.1333928933
C   C5        1.0  0.14045  0.99135  0.18560  1.0000 -0.0889852783
C   C6        1.0  0.32625  0.15835  0.17490  1.0000 -0.0101143333
C   C7        1.0  0.96677  0.82303  0.40390  1.0000 -0.0889852783
C   C8        1.0  0.74250  0.50550  0.43600  1.0000 -0.0889852783
C   C9        1.0  0.14151  0.79809  0.36600  1.0000 -0.2798553133
C   C10       1.0  0.30377  0.89543  0.42450  1.0000 0.6617918438
C   C11       1.0  0.04044  0.63216  0.35520  1.0000 0.6617918438
C   C12       1.0  0.01317  0.73443  0.38760  1.0000 0.0694706891
C   C13       1.0  0.84810  0.55170  0.41520  1.0000 -0.149893588
C   C14       1.0  0.06835  0.86645  0.38240  1.0000 -0.1333928933
C   C15       1.0  0.38976  0.28524  0.10970  1.0000 0.5778900734
C   C16       1.0  0.68824  0.59056  0.45470  1.0000 0.5778900734
C   C17       1.0  0.80233  0.64207  0.43060  1.0000 -0.0101143333
C   C18       1.0  0.20748  0.45312  0.27380  1.0000 -0.0889852783
C   C19       1.0  0.09638  0.39882  0.21300  1.0000 -0.1423185827
C   C20       1.0  0.93141  0.21499  0.20070  1.0000 0.0694706891
C   C21       1.0  0.87943  0.08517  0.25320  1.0000 -0.1333928933
C   C22       1.0  0.99135  0.14045  0.31440  1.0000 -0.0889852783
C   C23       1.0  0.15835  0.32625  0.32510  1.0000 -0.0101143333
C   C24       1.0  0.82303  0.96677  0.09610  1.0000 -0.0889852783
C   C25       1.0  0.50550  0.74250  0.06400  1.0000 -0.0889852783
C   C26       1.0  0.79809  0.14151  0.13400  1.0000 -0.2798553133
C   C27       1.0  0.89543  0.30377  0.07550  1.0000 0.6617918438
C   C28       1.0  0.63216  0.04044  0.14480  1.0000 0.6617918438
C   C29       1.0  0.73443  0.01317  0.11240  1.0000 0.0694706891
C   C30       1.0  0.55170  0.84810  0.08480  1.0000 -0.149893588
C   C31       1.0  0.86645  0.06835  0.11760  1.0000 -0.1333928933
C   C32       1.0  0.28524  0.38976  0.39030  1.0000 0.5778900734
C   C33       1.0  0.59056  0.68824  0.04530  1.0000 0.5778900734
C   C34       1.0  0.64207  0.80233  0.06940  1.0000 -0.0101143333
C   C35       1.0  0.54688  0.79252  0.77380  1.0000 -0.0889852783
C   C36       1.0  0.60118  0.90362  0.71300  1.0000 -0.1423185827
C   C37       1.0  0.78501  0.06859  0.70070  1.0000 0.0694706891
C   C38       1.0  0.91483  0.12057  0.75320  1.0000 -0.1333928933
C   C39       1.0  0.85955  0.00865  0.81440  1.0000 -0.0889852783
C   C40       1.0  0.67375  0.84165  0.82510  1.0000 -0.0101143333
C   C41       1.0  0.03323  0.17697  0.59610  1.0000 -0.0889852783
C   C42       1.0  0.25750  0.49450  0.56400  1.0000 -0.0889852783
C   C43       1.0  0.85849  0.20191  0.63400  1.0000 -0.2798553133
C   C44       1.0  0.69623  0.10457  0.57550  1.0000 0.6617918438
C   C45       1.0  0.95956  0.36784  0.64480  1.0000 0.6617918438
C   C46       1.0  0.98683  0.26557  0.61240  1.0000 0.0694706891
C   C47       1.0  0.15190  0.44830  0.58480  1.0000 -0.149893588
C   C48       1.0  0.93165  0.13355  0.61760  1.0000 -0.1333928933
C   C49       1.0  0.61024  0.71476  0.89030  1.0000 0.5778900734
C   C50       1.0  0.31176  0.40944  0.54530  1.0000 0.5778900734
C   C51       1.0  0.19767  0.35793  0.56940  1.0000 -0.0101143333
C   C52       1.0  0.79252  0.54688  0.72620  1.0000 -0.0889852783
C   C53       1.0  0.90362  0.60118  0.78700  1.0000 -0.1423185827
C   C54       1.0  0.06859  0.78501  0.79930  1.0000 0.0694706891
C   C55       1.0  0.12057  0.91483  0.74680  1.0000 -0.1333928933
C   C56       1.0  0.00865  0.85955  0.68560  1.0000 -0.0889852783
C   C57       1.0  0.84165  0.67375  0.67490  1.0000 -0.0101143333
C   C58       1.0  0.17697  0.03323  0.90390  1.0000 -0.0889852783
C   C59       1.0  0.49450  0.25750  0.93600  1.0000 -0.0889852783
C   C60       1.0  0.20191  0.85849  0.86600  1.0000 -0.2798553133
C   C61       1.0  0.10457  0.69623  0.92450  1.0000 0.6617918438
C   C62       1.0  0.36784  0.95956  0.85520  1.0000 0.6617918438
C   C63       1.0  0.26557  0.98683  0.88760  1.0000 0.0694706891
C   C64       1.0  0.44830  0.15190  0.91520  1.0000 -0.149893588
C   C65       1.0  0.13355  0.93165  0.88240  1.0000 -0.1333928933
C   C66       1.0  0.71476  0.61024  0.60970  1.0000 0.5778900734
C   C67       1.0  0.40944  0.31176  0.95470  1.0000 0.5778900734
C   C68       1.0  0.35793  0.19767  0.93060  1.0000 -0.0101143333
O   O1        1.0  0.74313  0.71667  0.44541  1.0000 -0.5115603605
O   O2        1.0  0.55947  0.43093  0.10293  1.0000 -0.5175498897
O   O3        1.0  0.26752  0.23608  0.06632  1.0000 -0.5115603605
O   O4        1.0  0.54738  0.42442  0.48247  1.0000 -0.5175498897
O   O5        1.0  0.71667  0.74313  0.05459  1.0000 -0.5115603605
O   O6        1.0  0.43093  0.55947  0.39707  1.0000 -0.5175498897
O   O7        1.0  0.23608  0.26752  0.43368  1.0000 -0.5115603605
O   O8        1.0  0.42442  0.54738  0.01753  1.0000 -0.5175498897
O   O9        1.0  0.25687  0.28333  0.55459  1.0000 -0.5115603605
O   O10       1.0  0.44053  0.56907  0.89707  1.0000 -0.5175498897
O   O11       1.0  0.73248  0.76392  0.93368  1.0000 -0.5115603605
O   O12       1.0  0.45262  0.57558  0.51753  1.0000 -0.5175498897
O   O13       1.0  0.28333  0.25687  0.94541  1.0000 -0.5115603605
O   O14       1.0  0.56907  0.44053  0.60293  1.0000 -0.5175498897
O   O15       1.0  0.76392  0.73248  0.56632  1.0000 -0.5115603605
O   O16       1.0  0.57558  0.45262  0.98247  1.0000 -0.5175498897
F   F1        1.0  0.40870  0.92810  0.41886  1.0000 -0.2004975123
F   F2        1.0  0.23579  0.78681  0.48320  1.0000 -0.1936414033
F   F3        1.0  0.41775  0.05785  0.42928  1.0000 -0.1936414033
F   F4        1.0  0.00041  0.52319  0.41196  1.0000 -0.2004975123
F   F5        1.0  0.14727  0.69393  0.32744  1.0000 -0.1936414033
F   F6        1.0  0.87942  0.52078  0.31480  1.0000 -0.1936414033
F   F7        1.0  0.92810  0.40870  0.08114  1.0000 -0.2004975123
F   F8        1.0  0.78681  0.23579  0.01680  1.0000 -0.1936414033
F   F9        1.0  0.05785  0.41775  0.07072  1.0000 -0.1936414033
F   F10       1.0  0.52319  0.00041  0.08804  1.0000 -0.2004975123
F   F11       1.0  0.69393  0.14727  0.17256  1.0000 -0.1936414033
F   F12       1.0  0.52078  0.87942  0.18520  1.0000 -0.1936414033
F   F13       1.0  0.59130  0.07190  0.58114  1.0000 -0.2004975123
F   F14       1.0  0.76421  0.21319  0.51680  1.0000 -0.1936414033
F   F15       1.0  0.58225  0.94215  0.57072  1.0000 -0.1936414033
F   F16       1.0  0.99959  0.47681  0.58804  1.0000 -0.2004975123
F   F17       1.0  0.85273  0.30607  0.67256  1.0000 -0.1936414033
F   F18       1.0  0.12058  0.47922  0.68520  1.0000 -0.1936414033
F   F19       1.0  0.07190  0.59130  0.91886  1.0000 -0.2004975123
F   F20       1.0  0.21319  0.76421  0.98320  1.0000 -0.1936414033
F   F21       1.0  0.94215  0.58225  0.92928  1.0000 -0.1936414033
F   F22       1.0  0.47681  0.99959  0.91196  1.0000 -0.2004975123
F   F23       1.0  0.30607  0.85273  0.82744  1.0000 -0.1936414033
F   F24       1.0  0.47922  0.12058  0.81480  1.0000 -0.1936414033
