# DDEC6 charges by PACMAN v1.1 (https://github.com/mtap-research/PACMAN-charge/)
data_2019[Zr][nan]2[ASR]2
_chemical_formula_sum              "Zr24 H120 C200 O112"
_cell_length_a       21.5135
_cell_length_b       21.5135
_cell_length_c       19.998
_cell_angle_alpha    90
_cell_angle_beta     90
_cell_angle_gamma    95.3125

_symmetry_space_group_name_H-M    "P 1"
_symmetry_Int_Tables_number       1

loop_
  _symmetry_equiv_pos_as_xyz
  'x, y, z'

loop_
  _atom_site_type_symbol
  _atom_site_label
  _atom_site_symmetry_multiplicity
  _atom_site_fract_x
  _atom_site_fract_y
  _atom_site_fract_z
  _atom_site_occupancy
  _atom_site_charge
Zr  Zr1       1.0  0.10340  0.42426  0.16152  1.0000 2.4157719749
Zr  Zr2       1.0  0.16270  0.27756  0.16129  1.0000 2.4023687678
Zr  Zr3       1.0  0.57574  0.89660  0.33848  1.0000 2.4157719749
Zr  Zr4       1.0  0.72244  0.83730  0.33871  1.0000 2.4023687678
Zr  Zr5       1.0  0.10340  0.42426  0.33848  1.0000 2.4157719749
Zr  Zr6       1.0  0.16270  0.27756  0.33871  1.0000 2.4023687678
Zr  Zr7       1.0  0.57574  0.89660  0.16152  1.0000 2.4157719749
Zr  Zr8       1.0  0.72244  0.83730  0.16129  1.0000 2.4023687678
Zr  Zr9       1.0  0.24013  0.40245  0.25000  1.0000 2.3648683863
Zr  Zr10      1.0  0.02523  0.30003  0.25000  1.0000 2.3468072253
Zr  Zr11      1.0  0.59755  0.75987  0.25000  1.0000 2.3648683863
Zr  Zr12      1.0  0.69997  0.97477  0.25000  1.0000 2.3468072253
Zr  Zr13      1.0  0.89660  0.57574  0.66152  1.0000 2.4157719749
Zr  Zr14      1.0  0.83730  0.72244  0.66129  1.0000 2.4023687678
Zr  Zr15      1.0  0.42426  0.10340  0.83848  1.0000 2.4157719749
Zr  Zr16      1.0  0.27756  0.16270  0.83871  1.0000 2.4023687678
Zr  Zr17      1.0  0.89660  0.57574  0.83848  1.0000 2.4157719749
Zr  Zr18      1.0  0.83730  0.72244  0.83871  1.0000 2.4023687678
Zr  Zr19      1.0  0.42426  0.10340  0.66152  1.0000 2.4157719749
Zr  Zr20      1.0  0.27756  0.16270  0.66129  1.0000 2.4023687678
Zr  Zr21      1.0  0.75987  0.59755  0.75000  1.0000 2.3648683863
Zr  Zr22      1.0  0.97477  0.69997  0.75000  1.0000 2.3444635707
Zr  Zr23      1.0  0.40245  0.24013  0.75000  1.0000 2.3648683863
Zr  Zr24      1.0  0.30003  0.02523  0.75000  1.0000 2.3468072253
H   H1        1.0  0.83806  0.33930  0.17176  1.0000 0.1319269972
H   H2        1.0  0.74506  0.36538  0.12261  1.0000 0.1193137463
H   H3        1.0  0.84070  0.49746  0.01263  1.0000 0.1193137463
H   H4        1.0  0.93387  0.46983  0.05676  1.0000 0.1319269972
H   H5        1.0  0.81085  0.27019  0.91745  1.0000 0.1193137463
H   H6        1.0  0.79108  0.36816  0.95070  1.0000 0.1193137463
H   H7        1.0  0.64265  0.51689  0.94736  1.0000 0.1193137463
H   H8        1.0  0.54460  0.53534  0.90992  1.0000 0.1135200101
H   H9        1.0  0.65174  0.48134  0.13184  1.0000 0.1319269972
H   H10       1.0  0.63227  0.57753  0.17478  1.0000 0.1319269972
H   H11       1.0  0.73822  0.66344  0.03111  1.0000 0.1319269972
H   H12       1.0  0.75863  0.56707  0.98858  1.0000 0.1193137463
H   H13       1.0  0.01087  0.15399  0.12425  1.0000 0.090954209
H   H14       1.0  0.13583  0.35315  0.98058  1.0000 0.090954209
H   H15       1.0  0.25854  0.53908  0.11516  1.0000 0.1193137463
H   H16       1.0  0.66070  0.16194  0.32824  1.0000 0.1319269972
H   H17       1.0  0.63462  0.25494  0.37739  1.0000 0.1193137463
H   H18       1.0  0.50254  0.15930  0.48737  1.0000 0.1193137463
H   H19       1.0  0.53017  0.06613  0.44324  1.0000 0.1319269972
H   H20       1.0  0.72981  0.18915  0.58255  1.0000 0.1193137463
H   H21       1.0  0.63184  0.20892  0.54930  1.0000 0.1193137463
H   H22       1.0  0.48311  0.35735  0.55264  1.0000 0.1193137463
H   H23       1.0  0.46466  0.45540  0.59008  1.0000 0.1135200101
H   H24       1.0  0.51866  0.34826  0.36816  1.0000 0.1319269972
H   H25       1.0  0.42247  0.36773  0.32522  1.0000 0.1319269972
H   H26       1.0  0.33656  0.26178  0.46889  1.0000 0.1319269972
H   H27       1.0  0.43293  0.24137  0.51142  1.0000 0.1193137463
H   H28       1.0  0.84601  0.98913  0.37575  1.0000 0.090954209
H   H29       1.0  0.64685  0.86417  0.51942  1.0000 0.090954209
H   H30       1.0  0.46092  0.74146  0.38484  1.0000 0.1193137463
H   H31       1.0  0.83806  0.33930  0.32824  1.0000 0.1319269972
H   H32       1.0  0.74506  0.36538  0.37739  1.0000 0.1193137463
H   H33       1.0  0.84070  0.49746  0.48737  1.0000 0.1193137463
H   H34       1.0  0.93387  0.46983  0.44324  1.0000 0.1319269972
H   H35       1.0  0.81085  0.27019  0.58255  1.0000 0.1193137463
H   H36       1.0  0.79108  0.36816  0.54930  1.0000 0.1193137463
H   H37       1.0  0.64265  0.51689  0.55264  1.0000 0.1193137463
H   H38       1.0  0.54460  0.53534  0.59008  1.0000 0.1135200101
H   H39       1.0  0.65174  0.48134  0.36816  1.0000 0.1319269972
H   H40       1.0  0.63227  0.57753  0.32522  1.0000 0.1319269972
H   H41       1.0  0.73822  0.66344  0.46889  1.0000 0.1319269972
H   H42       1.0  0.75863  0.56707  0.51142  1.0000 0.1193137463
H   H43       1.0  0.01087  0.15399  0.37575  1.0000 0.090954209
H   H44       1.0  0.13583  0.35315  0.51942  1.0000 0.090954209
H   H45       1.0  0.25854  0.53908  0.38484  1.0000 0.1193137463
H   H46       1.0  0.66070  0.16194  0.17176  1.0000 0.1319269972
H   H47       1.0  0.63462  0.25494  0.12261  1.0000 0.1193137463
H   H48       1.0  0.50254  0.15930  0.01263  1.0000 0.1193137463
H   H49       1.0  0.53017  0.06613  0.05676  1.0000 0.1319269972
H   H50       1.0  0.72981  0.18915  0.91745  1.0000 0.1193137463
H   H51       1.0  0.63184  0.20892  0.95070  1.0000 0.1193137463
H   H52       1.0  0.48311  0.35735  0.94736  1.0000 0.1193137463
H   H53       1.0  0.46466  0.45540  0.90992  1.0000 0.1135200101
H   H54       1.0  0.51866  0.34826  0.13184  1.0000 0.1319269972
H   H55       1.0  0.42247  0.36773  0.17478  1.0000 0.1319269972
H   H56       1.0  0.33656  0.26178  0.03111  1.0000 0.1319269972
H   H57       1.0  0.43293  0.24137  0.98858  1.0000 0.1193137463
H   H58       1.0  0.84601  0.98913  0.12425  1.0000 0.090954209
H   H59       1.0  0.64685  0.86417  0.98058  1.0000 0.090954209
H   H60       1.0  0.46092  0.74146  0.11516  1.0000 0.1193137463
H   H61       1.0  0.16194  0.66070  0.67176  1.0000 0.1319269972
H   H62       1.0  0.25494  0.63462  0.62261  1.0000 0.1193137463
H   H63       1.0  0.15930  0.50254  0.51263  1.0000 0.1193137463
H   H64       1.0  0.06613  0.53017  0.55676  1.0000 0.1319269972
H   H65       1.0  0.18915  0.72981  0.41745  1.0000 0.1193137463
H   H66       1.0  0.20892  0.63184  0.45070  1.0000 0.1193137463
H   H67       1.0  0.35735  0.48311  0.44736  1.0000 0.1193137463
H   H68       1.0  0.45540  0.46466  0.40992  1.0000 0.1135200101
H   H69       1.0  0.34826  0.51866  0.63184  1.0000 0.1319269972
H   H70       1.0  0.36773  0.42247  0.67478  1.0000 0.1319269972
H   H71       1.0  0.26178  0.33656  0.53111  1.0000 0.1319269972
H   H72       1.0  0.24137  0.43293  0.48858  1.0000 0.1193137463
H   H73       1.0  0.98913  0.84601  0.62425  1.0000 0.090954209
H   H74       1.0  0.86417  0.64685  0.48058  1.0000 0.090954209
H   H75       1.0  0.74146  0.46092  0.61516  1.0000 0.1193137463
H   H76       1.0  0.33930  0.83806  0.82824  1.0000 0.1319269972
H   H77       1.0  0.36538  0.74506  0.87739  1.0000 0.1193137463
H   H78       1.0  0.49746  0.84070  0.98737  1.0000 0.1193137463
H   H79       1.0  0.46983  0.93387  0.94324  1.0000 0.1319269972
H   H80       1.0  0.27019  0.81085  0.08255  1.0000 0.1193137463
H   H81       1.0  0.36816  0.79108  0.04930  1.0000 0.1193137463
H   H82       1.0  0.51689  0.64265  0.05264  1.0000 0.1193137463
H   H83       1.0  0.53534  0.54460  0.09008  1.0000 0.1135200101
H   H84       1.0  0.48134  0.65174  0.86816  1.0000 0.1319269972
H   H85       1.0  0.57753  0.63227  0.82522  1.0000 0.1319269972
H   H86       1.0  0.66344  0.73822  0.96889  1.0000 0.1319269972
H   H87       1.0  0.56707  0.75863  0.01142  1.0000 0.1193137463
H   H88       1.0  0.15399  0.01087  0.87575  1.0000 0.090954209
H   H89       1.0  0.35315  0.13583  0.01942  1.0000 0.090954209
H   H90       1.0  0.53908  0.25854  0.88484  1.0000 0.1193137463
H   H91       1.0  0.16194  0.66070  0.82824  1.0000 0.1319269972
H   H92       1.0  0.25494  0.63462  0.87739  1.0000 0.1193137463
H   H93       1.0  0.15930  0.50254  0.98737  1.0000 0.1193137463
H   H94       1.0  0.06613  0.53017  0.94324  1.0000 0.1319269972
H   H95       1.0  0.18915  0.72981  0.08255  1.0000 0.1193137463
H   H96       1.0  0.20892  0.63184  0.04930  1.0000 0.1193137463
H   H97       1.0  0.35735  0.48311  0.05264  1.0000 0.1193137463
H   H98       1.0  0.45540  0.46466  0.09008  1.0000 0.1135200101
H   H99       1.0  0.34826  0.51866  0.86816  1.0000 0.1319269972
H   H100      1.0  0.36773  0.42247  0.82522  1.0000 0.1319269972
H   H101      1.0  0.26178  0.33656  0.96889  1.0000 0.1319269972
H   H102      1.0  0.24137  0.43293  0.01142  1.0000 0.1193137463
H   H103      1.0  0.98913  0.84601  0.87575  1.0000 0.090954209
H   H104      1.0  0.86417  0.64685  0.01942  1.0000 0.090954209
H   H105      1.0  0.74146  0.46092  0.88484  1.0000 0.1193137463
H   H106      1.0  0.33930  0.83806  0.67176  1.0000 0.1319269972
H   H107      1.0  0.36538  0.74506  0.62261  1.0000 0.1193137463
H   H108      1.0  0.49746  0.84070  0.51263  1.0000 0.1193137463
H   H109      1.0  0.46983  0.93387  0.55676  1.0000 0.1319269972
H   H110      1.0  0.27019  0.81085  0.41745  1.0000 0.1193137463
H   H111      1.0  0.36816  0.79108  0.45070  1.0000 0.1193137463
H   H112      1.0  0.51689  0.64265  0.44736  1.0000 0.1193137463
H   H113      1.0  0.53534  0.54460  0.40992  1.0000 0.1135200101
H   H114      1.0  0.48134  0.65174  0.63184  1.0000 0.1319269972
H   H115      1.0  0.57753  0.63227  0.67478  1.0000 0.1319269972
H   H116      1.0  0.66344  0.73822  0.53111  1.0000 0.1319269972
H   H117      1.0  0.56707  0.75863  0.48858  1.0000 0.1193137463
H   H118      1.0  0.15399  0.01087  0.62425  1.0000 0.090954209
H   H119      1.0  0.35315  0.13583  0.48058  1.0000 0.090954209
H   H120      1.0  0.53908  0.25854  0.61516  1.0000 0.1193137463
C   C1        1.0  0.95517  0.38323  0.14650  1.0000 0.6385046082
C   C2        1.0  0.89518  0.40032  0.11770  1.0000 -0.0397221814
C   C3        1.0  0.83889  0.36991  0.13880  1.0000 -0.0900079471
C   C4        1.0  0.78299  0.38621  0.10960  1.0000 -0.1608426589
C   C5        1.0  0.78380  0.43288  0.06150  1.0000 0.0808263334
C   C6        1.0  0.84031  0.46489  0.04320  1.0000 -0.1505206659
C   C7        1.0  0.89617  0.44883  0.07000  1.0000 -0.0844481376
C   C8        1.0  0.72341  0.45023  0.03350  1.0000 -0.0397221814
C   C9        1.0  0.77095  0.27765  0.93140  1.0000 -0.0900079471
C   C10       1.0  0.75908  0.33592  0.95210  1.0000 -0.1608426589
C   C11       1.0  0.69975  0.34863  0.97540  1.0000 0.0289312369
C   C12       1.0  0.68492  0.41116  0.99620  1.0000 -0.0397221814
C   C13       1.0  0.62221  0.42677  0.97180  1.0000 0.0289312369
C   C14       1.0  0.61060  0.48478  0.94800  1.0000 -0.1444694412
C   C15       1.0  0.55194  0.49586  0.92520  1.0000 -0.0900079471
C   C16       1.0  0.70802  0.51404  0.05650  1.0000 0.090954209
C   C17       1.0  0.66951  0.51773  0.11180  1.0000 -0.1608426589
C   C18       1.0  0.65738  0.57530  0.13720  1.0000 -0.1026747612
C   C19       1.0  0.68280  0.62970  0.10630  1.0000 -0.028985896
C   C20       1.0  0.72089  0.62691  0.05130  1.0000 -0.0900079471
C   C21       1.0  0.73330  0.56908  0.02610  1.0000 -0.1505206659
C   C22       1.0  0.67155  0.69165  0.13730  1.0000 0.6243220555
C   C23       1.0  0.03100  0.18960  0.14390  1.0000 0.4796757462
C   C24       1.0  0.13380  0.35200  0.02700  1.0000 0.4498050089
C   C25       1.0  0.23721  0.50559  0.13740  1.0000 0.4888977806
C   C26       1.0  0.61677  0.04483  0.35350  1.0000 0.6385046082
C   C27       1.0  0.59968  0.10482  0.38230  1.0000 -0.0397221814
C   C28       1.0  0.63009  0.16111  0.36120  1.0000 -0.0900079471
C   C29       1.0  0.61379  0.21701  0.39040  1.0000 -0.1608426589
C   C30       1.0  0.56712  0.21620  0.43850  1.0000 0.0808263334
C   C31       1.0  0.53511  0.15969  0.45680  1.0000 -0.1505206659
C   C32       1.0  0.55117  0.10383  0.43000  1.0000 -0.0844481376
C   C33       1.0  0.54977  0.27659  0.46650  1.0000 -0.0397221814
C   C34       1.0  0.72235  0.22905  0.56860  1.0000 -0.0900079471
C   C35       1.0  0.66408  0.24092  0.54790  1.0000 -0.1608426589
C   C36       1.0  0.65137  0.30025  0.52460  1.0000 0.0289312369
C   C37       1.0  0.58884  0.31508  0.50380  1.0000 -0.0397221814
C   C38       1.0  0.57323  0.37779  0.52820  1.0000 0.0289312369
C   C39       1.0  0.51522  0.38940  0.55200  1.0000 -0.1444694412
C   C40       1.0  0.50414  0.44806  0.57480  1.0000 -0.0900079471
C   C41       1.0  0.48596  0.29198  0.44350  1.0000 0.090954209
C   C42       1.0  0.48227  0.33049  0.38820  1.0000 -0.1608426589
C   C43       1.0  0.42470  0.34262  0.36280  1.0000 -0.1026747612
C   C44       1.0  0.37030  0.31720  0.39370  1.0000 -0.028985896
C   C45       1.0  0.37309  0.27911  0.44870  1.0000 -0.0900079471
C   C46       1.0  0.43092  0.26670  0.47390  1.0000 -0.1505206659
C   C47       1.0  0.30835  0.32845  0.36270  1.0000 0.6243220555
C   C48       1.0  0.81040  0.96900  0.35610  1.0000 0.4796757462
C   C49       1.0  0.64800  0.86620  0.47300  1.0000 0.4498050089
C   C50       1.0  0.49441  0.76279  0.36260  1.0000 0.4888977806
C   C51       1.0  0.95517  0.38323  0.35350  1.0000 0.6385046082
C   C52       1.0  0.89518  0.40032  0.38230  1.0000 -0.0397221814
C   C53       1.0  0.83889  0.36991  0.36120  1.0000 -0.0900079471
C   C54       1.0  0.78299  0.38621  0.39040  1.0000 -0.1608426589
C   C55       1.0  0.78380  0.43288  0.43850  1.0000 0.0808263334
C   C56       1.0  0.84031  0.46489  0.45680  1.0000 -0.1505206659
C   C57       1.0  0.89617  0.44883  0.43000  1.0000 -0.0844481376
C   C58       1.0  0.72341  0.45023  0.46650  1.0000 -0.0397221814
C   C59       1.0  0.77095  0.27765  0.56860  1.0000 -0.0900079471
C   C60       1.0  0.75908  0.33592  0.54790  1.0000 -0.1608426589
C   C61       1.0  0.69975  0.34863  0.52460  1.0000 0.0289312369
C   C62       1.0  0.68492  0.41116  0.50380  1.0000 -0.0397221814
C   C63       1.0  0.62221  0.42677  0.52820  1.0000 0.0289312369
C   C64       1.0  0.61060  0.48478  0.55200  1.0000 -0.1444694412
C   C65       1.0  0.55194  0.49586  0.57480  1.0000 -0.0900079471
C   C66       1.0  0.70802  0.51404  0.44350  1.0000 0.090954209
C   C67       1.0  0.66951  0.51773  0.38820  1.0000 -0.1608426589
C   C68       1.0  0.65738  0.57530  0.36280  1.0000 -0.1026747612
C   C69       1.0  0.68280  0.62970  0.39370  1.0000 -0.028985896
C   C70       1.0  0.72089  0.62691  0.44870  1.0000 -0.0900079471
C   C71       1.0  0.73330  0.56908  0.47390  1.0000 -0.1505206659
C   C72       1.0  0.67155  0.69165  0.36270  1.0000 0.6243220555
C   C73       1.0  0.03100  0.18960  0.35610  1.0000 0.4796757462
C   C74       1.0  0.13380  0.35200  0.47300  1.0000 0.4498050089
C   C75       1.0  0.23721  0.50559  0.36260  1.0000 0.4888977806
C   C76       1.0  0.61677  0.04483  0.14650  1.0000 0.6385046082
C   C77       1.0  0.59968  0.10482  0.11770  1.0000 -0.0397221814
C   C78       1.0  0.63009  0.16111  0.13880  1.0000 -0.0900079471
C   C79       1.0  0.61379  0.21701  0.10960  1.0000 -0.1608426589
C   C80       1.0  0.56712  0.21620  0.06150  1.0000 0.0808263334
C   C81       1.0  0.53511  0.15969  0.04320  1.0000 -0.1505206659
C   C82       1.0  0.55117  0.10383  0.07000  1.0000 -0.0844481376
C   C83       1.0  0.54977  0.27659  0.03350  1.0000 -0.0397221814
C   C84       1.0  0.72235  0.22905  0.93140  1.0000 -0.0900079471
C   C85       1.0  0.66408  0.24092  0.95210  1.0000 -0.1608426589
C   C86       1.0  0.65137  0.30025  0.97540  1.0000 0.0289312369
C   C87       1.0  0.58884  0.31508  0.99620  1.0000 -0.0397221814
C   C88       1.0  0.57323  0.37779  0.97180  1.0000 0.0289312369
C   C89       1.0  0.51522  0.38940  0.94800  1.0000 -0.1444694412
C   C90       1.0  0.50414  0.44806  0.92520  1.0000 -0.0900079471
C   C91       1.0  0.48596  0.29198  0.05650  1.0000 0.090954209
C   C92       1.0  0.48227  0.33049  0.11180  1.0000 -0.1608426589
C   C93       1.0  0.42470  0.34262  0.13720  1.0000 -0.1026747612
C   C94       1.0  0.37030  0.31720  0.10630  1.0000 -0.028985896
C   C95       1.0  0.37309  0.27911  0.05130  1.0000 -0.0900079471
C   C96       1.0  0.43092  0.26670  0.02610  1.0000 -0.1505206659
C   C97       1.0  0.30835  0.32845  0.13730  1.0000 0.6243220555
C   C98       1.0  0.81040  0.96900  0.14390  1.0000 0.4796757462
C   C99       1.0  0.64800  0.86620  0.02700  1.0000 0.4498050089
C   C100      1.0  0.49441  0.76279  0.13740  1.0000 0.4888977806
C   C101      1.0  0.04483  0.61677  0.64650  1.0000 0.6385046082
C   C102      1.0  0.10482  0.59968  0.61770  1.0000 -0.0397221814
C   C103      1.0  0.16111  0.63009  0.63880  1.0000 -0.0900079471
C   C104      1.0  0.21701  0.61379  0.60960  1.0000 -0.1608426589
C   C105      1.0  0.21620  0.56712  0.56150  1.0000 0.0808263334
C   C106      1.0  0.15969  0.53511  0.54320  1.0000 -0.1505206659
C   C107      1.0  0.10383  0.55117  0.57000  1.0000 -0.0844481376
C   C108      1.0  0.27659  0.54977  0.53350  1.0000 -0.0397221814
C   C109      1.0  0.22905  0.72235  0.43140  1.0000 -0.0900079471
C   C110      1.0  0.24092  0.66408  0.45210  1.0000 -0.1608426589
C   C111      1.0  0.30025  0.65137  0.47540  1.0000 0.0289312369
C   C112      1.0  0.31508  0.58884  0.49620  1.0000 -0.0397221814
C   C113      1.0  0.37779  0.57323  0.47180  1.0000 0.0289312369
C   C114      1.0  0.38940  0.51522  0.44800  1.0000 -0.1444694412
C   C115      1.0  0.44806  0.50414  0.42520  1.0000 -0.0900079471
C   C116      1.0  0.29198  0.48596  0.55650  1.0000 0.090954209
C   C117      1.0  0.33049  0.48227  0.61180  1.0000 -0.1608426589
C   C118      1.0  0.34262  0.42470  0.63720  1.0000 -0.1026747612
C   C119      1.0  0.31720  0.37030  0.60630  1.0000 -0.028985896
C   C120      1.0  0.27911  0.37309  0.55130  1.0000 -0.0900079471
C   C121      1.0  0.26670  0.43092  0.52610  1.0000 -0.1505206659
C   C122      1.0  0.32845  0.30835  0.63730  1.0000 0.6243220555
C   C123      1.0  0.96900  0.81040  0.64390  1.0000 0.4796757462
C   C124      1.0  0.86620  0.64800  0.52700  1.0000 0.4498050089
C   C125      1.0  0.76279  0.49441  0.63740  1.0000 0.4888977806
C   C126      1.0  0.38323  0.95517  0.85350  1.0000 0.6385046082
C   C127      1.0  0.40032  0.89518  0.88230  1.0000 -0.0397221814
C   C128      1.0  0.36991  0.83889  0.86120  1.0000 -0.0900079471
C   C129      1.0  0.38621  0.78299  0.89040  1.0000 -0.1608426589
C   C130      1.0  0.43288  0.78380  0.93850  1.0000 0.0808263334
C   C131      1.0  0.46489  0.84031  0.95680  1.0000 -0.1505206659
C   C132      1.0  0.44883  0.89617  0.93000  1.0000 -0.0844481376
C   C133      1.0  0.45023  0.72341  0.96650  1.0000 -0.0397221814
C   C134      1.0  0.27765  0.77095  0.06860  1.0000 -0.0900079471
C   C135      1.0  0.33592  0.75908  0.04790  1.0000 -0.1608426589
C   C136      1.0  0.34863  0.69975  0.02460  1.0000 0.0289312369
C   C137      1.0  0.41116  0.68492  0.00380  1.0000 -0.0397221814
C   C138      1.0  0.42677  0.62221  0.02820  1.0000 0.0289312369
C   C139      1.0  0.48478  0.61060  0.05200  1.0000 -0.1444694412
C   C140      1.0  0.49586  0.55194  0.07480  1.0000 -0.0900079471
C   C141      1.0  0.51404  0.70802  0.94350  1.0000 0.090954209
C   C142      1.0  0.51773  0.66951  0.88820  1.0000 -0.1608426589
C   C143      1.0  0.57530  0.65738  0.86280  1.0000 -0.1026747612
C   C144      1.0  0.62970  0.68280  0.89370  1.0000 -0.028985896
C   C145      1.0  0.62691  0.72089  0.94870  1.0000 -0.0900079471
C   C146      1.0  0.56908  0.73330  0.97390  1.0000 -0.1505206659
C   C147      1.0  0.69165  0.67155  0.86270  1.0000 0.6243220555
C   C148      1.0  0.18960  0.03100  0.85610  1.0000 0.4796757462
C   C149      1.0  0.35200  0.13380  0.97300  1.0000 0.4498050089
C   C150      1.0  0.50559  0.23721  0.86260  1.0000 0.4888977806
C   C151      1.0  0.04483  0.61677  0.85350  1.0000 0.6385046082
C   C152      1.0  0.10482  0.59968  0.88230  1.0000 -0.0397221814
C   C153      1.0  0.16111  0.63009  0.86120  1.0000 -0.0900079471
C   C154      1.0  0.21701  0.61379  0.89040  1.0000 -0.1608426589
C   C155      1.0  0.21620  0.56712  0.93850  1.0000 0.0808263334
C   C156      1.0  0.15969  0.53511  0.95680  1.0000 -0.1505206659
C   C157      1.0  0.10383  0.55117  0.93000  1.0000 -0.0844481376
C   C158      1.0  0.27659  0.54977  0.96650  1.0000 -0.0397221814
C   C159      1.0  0.22905  0.72235  0.06860  1.0000 -0.0900079471
C   C160      1.0  0.24092  0.66408  0.04790  1.0000 -0.1608426589
C   C161      1.0  0.30025  0.65137  0.02460  1.0000 0.0289312369
C   C162      1.0  0.31508  0.58884  0.00380  1.0000 -0.0397221814
C   C163      1.0  0.37779  0.57323  0.02820  1.0000 0.0289312369
C   C164      1.0  0.38940  0.51522  0.05200  1.0000 -0.1444694412
C   C165      1.0  0.44806  0.50414  0.07480  1.0000 -0.0900079471
C   C166      1.0  0.29198  0.48596  0.94350  1.0000 0.090954209
C   C167      1.0  0.33049  0.48227  0.88820  1.0000 -0.1608426589
C   C168      1.0  0.34262  0.42470  0.86280  1.0000 -0.1026747612
C   C169      1.0  0.31720  0.37030  0.89370  1.0000 -0.028985896
C   C170      1.0  0.27911  0.37309  0.94870  1.0000 -0.0900079471
C   C171      1.0  0.26670  0.43092  0.97390  1.0000 -0.1505206659
C   C172      1.0  0.32845  0.30835  0.86270  1.0000 0.6243220555
C   C173      1.0  0.96900  0.81040  0.85610  1.0000 0.4796757462
C   C174      1.0  0.86620  0.64800  0.97300  1.0000 0.4498050089
C   C175      1.0  0.76279  0.49441  0.86260  1.0000 0.4888977806
C   C176      1.0  0.38323  0.95517  0.64650  1.0000 0.6385046082
C   C177      1.0  0.40032  0.89518  0.61770  1.0000 -0.0397221814
C   C178      1.0  0.36991  0.83889  0.63880  1.0000 -0.0900079471
C   C179      1.0  0.38621  0.78299  0.60960  1.0000 -0.1608426589
C   C180      1.0  0.43288  0.78380  0.56150  1.0000 0.0808263334
C   C181      1.0  0.46489  0.84031  0.54320  1.0000 -0.1505206659
C   C182      1.0  0.44883  0.89617  0.57000  1.0000 -0.0844481376
C   C183      1.0  0.45023  0.72341  0.53350  1.0000 -0.0397221814
C   C184      1.0  0.27765  0.77095  0.43140  1.0000 -0.0900079471
C   C185      1.0  0.33592  0.75908  0.45210  1.0000 -0.1608426589
C   C186      1.0  0.34863  0.69975  0.47540  1.0000 0.0289312369
C   C187      1.0  0.41116  0.68492  0.49620  1.0000 -0.0397221814
C   C188      1.0  0.42677  0.62221  0.47180  1.0000 0.0289312369
C   C189      1.0  0.48478  0.61060  0.44800  1.0000 -0.1444694412
C   C190      1.0  0.49586  0.55194  0.42520  1.0000 -0.0900079471
C   C191      1.0  0.51404  0.70802  0.55650  1.0000 0.090954209
C   C192      1.0  0.51773  0.66951  0.61180  1.0000 -0.1608426589
C   C193      1.0  0.57530  0.65738  0.63720  1.0000 -0.1026747612
C   C194      1.0  0.62970  0.68280  0.60630  1.0000 -0.028985896
C   C195      1.0  0.62691  0.72089  0.55130  1.0000 -0.0900079471
C   C196      1.0  0.56908  0.73330  0.52610  1.0000 -0.1505206659
C   C197      1.0  0.69165  0.67155  0.63730  1.0000 0.6243220555
C   C198      1.0  0.18960  0.03100  0.64390  1.0000 0.4796757462
C   C199      1.0  0.35200  0.13380  0.52700  1.0000 0.4498050089
C   C200      1.0  0.50559  0.23721  0.63740  1.0000 0.4888977806
O   O1        1.0  0.00406  0.41704  0.12930  1.0000 -0.6096029294
O   O2        1.0  0.95355  0.33619  0.18497  1.0000 -0.5663092894
O   O3        1.0  0.62951  0.68971  0.18225  1.0000 -0.5823318666
O   O4        1.0  0.70421  0.73959  0.11800  1.0000 -0.5823318666
O   O5        1.0  0.07240  0.32072  0.15111  1.0000 -1.073504017
O   O6        1.0  0.99528  0.21954  0.18480  1.0000 -0.5823318666
O   O7        1.0  0.09047  0.20153  0.12630  1.0000 -0.5985699308
O   O8        1.0  0.11120  0.40288  0.05430  1.0000 -0.6096029294
O   O9        1.0  0.15389  0.30043  0.05350  1.0000 -0.5985699308
O   O10       1.0  0.17808  0.37266  0.17666  1.0000 -1.1077086193
O   O11       1.0  0.18204  0.49066  0.11820  1.0000 -0.5567069513
O   O12       1.0  0.26704  0.48128  0.18260  1.0000 -0.5284318489
O   O13       1.0  0.58296  0.99594  0.37070  1.0000 -0.6096029294
O   O14       1.0  0.66381  0.04645  0.31503  1.0000 -0.5663092894
O   O15       1.0  0.31029  0.37049  0.31775  1.0000 -0.5823318666
O   O16       1.0  0.26041  0.29579  0.38200  1.0000 -0.5823318666
O   O17       1.0  0.67928  0.92760  0.34889  1.0000 -1.073504017
O   O18       1.0  0.78046  0.00472  0.31520  1.0000 -0.5823318666
O   O19       1.0  0.79847  0.90953  0.37370  1.0000 -0.5985699308
O   O20       1.0  0.59712  0.88880  0.44570  1.0000 -0.6096029294
O   O21       1.0  0.69957  0.84611  0.44650  1.0000 -0.5985699308
O   O22       1.0  0.62734  0.82192  0.32334  1.0000 -1.1077086193
O   O23       1.0  0.50934  0.81796  0.38180  1.0000 -0.5567069513
O   O24       1.0  0.51872  0.73296  0.31740  1.0000 -0.5284318489
O   O25       1.0  0.00406  0.41704  0.37070  1.0000 -0.6096029294
O   O26       1.0  0.95355  0.33619  0.31503  1.0000 -0.5663092894
O   O27       1.0  0.62951  0.68971  0.31775  1.0000 -0.5823318666
O   O28       1.0  0.70421  0.73959  0.38200  1.0000 -0.5823318666
O   O29       1.0  0.07240  0.32072  0.34889  1.0000 -1.073504017
O   O30       1.0  0.99528  0.21954  0.31520  1.0000 -0.5823318666
O   O31       1.0  0.09047  0.20153  0.37370  1.0000 -0.5985699308
O   O32       1.0  0.11120  0.40288  0.44570  1.0000 -0.6096029294
O   O33       1.0  0.15389  0.30043  0.44650  1.0000 -0.5985699308
O   O34       1.0  0.17808  0.37266  0.32334  1.0000 -1.1077086193
O   O35       1.0  0.18204  0.49066  0.38180  1.0000 -0.5567069513
O   O36       1.0  0.26704  0.48128  0.31740  1.0000 -0.5284318489
O   O37       1.0  0.58296  0.99594  0.12930  1.0000 -0.6096029294
O   O38       1.0  0.66381  0.04645  0.18497  1.0000 -0.5663092894
O   O39       1.0  0.31029  0.37049  0.18225  1.0000 -0.5823318666
O   O40       1.0  0.26041  0.29579  0.11800  1.0000 -0.5823318666
O   O41       1.0  0.67928  0.92760  0.15111  1.0000 -1.073504017
O   O42       1.0  0.78046  0.00472  0.18480  1.0000 -0.5823318666
O   O43       1.0  0.79847  0.90953  0.12630  1.0000 -0.5985699308
O   O44       1.0  0.59712  0.88880  0.05430  1.0000 -0.6096029294
O   O45       1.0  0.69957  0.84611  0.05350  1.0000 -0.5985699308
O   O46       1.0  0.62734  0.82192  0.17666  1.0000 -1.1077086193
O   O47       1.0  0.50934  0.81796  0.11820  1.0000 -0.5567069513
O   O48       1.0  0.51872  0.73296  0.18260  1.0000 -0.5284318489
O   O49       1.0  0.06169  0.39233  0.25000  1.0000 -1.1077086193
O   O50       1.0  0.11226  0.26394  0.25000  1.0000 -1.1629507405
O   O51       1.0  0.22653  0.29211  0.25000  1.0000 -1.0885730547
O   O52       1.0  0.15664  0.46548  0.25000  1.0000 -1.1496457321
O   O53       1.0  0.60767  0.93831  0.25000  1.0000 -1.1077086193
O   O54       1.0  0.73606  0.88774  0.25000  1.0000 -1.1629507405
O   O55       1.0  0.70789  0.77347  0.25000  1.0000 -1.0885730547
O   O56       1.0  0.53452  0.84336  0.25000  1.0000 -1.1496457321
O   O57       1.0  0.99594  0.58296  0.62930  1.0000 -0.6096029294
O   O58       1.0  0.04645  0.66381  0.68497  1.0000 -0.5663092894
O   O59       1.0  0.37049  0.31029  0.68225  1.0000 -0.5823318666
O   O60       1.0  0.29579  0.26041  0.61800  1.0000 -0.5823318666
O   O61       1.0  0.92760  0.67928  0.65111  1.0000 -1.073504017
O   O62       1.0  0.00472  0.78046  0.68480  1.0000 -0.5850157303
O   O63       1.0  0.90953  0.79847  0.62630  1.0000 -0.5985699308
O   O64       1.0  0.88880  0.59712  0.55430  1.0000 -0.6096029294
O   O65       1.0  0.84611  0.69957  0.55350  1.0000 -0.5985699308
O   O66       1.0  0.82192  0.62734  0.67666  1.0000 -1.1077086193
O   O67       1.0  0.81796  0.50934  0.61820  1.0000 -0.5567069513
O   O68       1.0  0.73296  0.51872  0.68260  1.0000 -0.5284318489
O   O69       1.0  0.41704  0.00406  0.87070  1.0000 -0.6096029294
O   O70       1.0  0.33619  0.95355  0.81503  1.0000 -0.5663092894
O   O71       1.0  0.68971  0.62951  0.81775  1.0000 -0.5823318666
O   O72       1.0  0.73959  0.70421  0.88200  1.0000 -0.5823318666
O   O73       1.0  0.32072  0.07240  0.84889  1.0000 -1.073504017
O   O74       1.0  0.21954  0.99528  0.81520  1.0000 -0.5850157303
O   O75       1.0  0.20153  0.09047  0.87370  1.0000 -0.5985699308
O   O76       1.0  0.40288  0.11120  0.94570  1.0000 -0.6096029294
O   O77       1.0  0.30043  0.15389  0.94650  1.0000 -0.5985699308
O   O78       1.0  0.37266  0.17808  0.82334  1.0000 -1.1077086193
O   O79       1.0  0.49066  0.18204  0.88180  1.0000 -0.5567069513
O   O80       1.0  0.48128  0.26704  0.81740  1.0000 -0.5284318489
O   O81       1.0  0.99594  0.58296  0.87070  1.0000 -0.6096029294
O   O82       1.0  0.04645  0.66381  0.81503  1.0000 -0.5663092894
O   O83       1.0  0.37049  0.31029  0.81775  1.0000 -0.5823318666
O   O84       1.0  0.29579  0.26041  0.88200  1.0000 -0.5823318666
O   O85       1.0  0.92760  0.67928  0.84889  1.0000 -1.073504017
O   O86       1.0  0.00472  0.78046  0.81520  1.0000 -0.5850157303
O   O87       1.0  0.90953  0.79847  0.87370  1.0000 -0.5985699308
O   O88       1.0  0.88880  0.59712  0.94570  1.0000 -0.6096029294
O   O89       1.0  0.84611  0.69957  0.94650  1.0000 -0.5985699308
O   O90       1.0  0.82192  0.62734  0.82334  1.0000 -1.1077086193
O   O91       1.0  0.81796  0.50934  0.88180  1.0000 -0.5567069513
O   O92       1.0  0.73296  0.51872  0.81740  1.0000 -0.5284318489
O   O93       1.0  0.41704  0.00406  0.62930  1.0000 -0.6096029294
O   O94       1.0  0.33619  0.95355  0.68497  1.0000 -0.5663092894
O   O95       1.0  0.68971  0.62951  0.68225  1.0000 -0.5823318666
O   O96       1.0  0.73959  0.70421  0.61800  1.0000 -0.5823318666
O   O97       1.0  0.32072  0.07240  0.65111  1.0000 -1.073504017
O   O98       1.0  0.21954  0.99528  0.68480  1.0000 -0.5823318666
O   O99       1.0  0.20153  0.09047  0.62630  1.0000 -0.5985699308
O   O100      1.0  0.40288  0.11120  0.55430  1.0000 -0.6096029294
O   O101      1.0  0.30043  0.15389  0.55350  1.0000 -0.5985699308
O   O102      1.0  0.37266  0.17808  0.67666  1.0000 -1.1077086193
O   O103      1.0  0.49066  0.18204  0.61820  1.0000 -0.5567069513
O   O104      1.0  0.48128  0.26704  0.68260  1.0000 -0.5284318489
O   O105      1.0  0.93831  0.60767  0.75000  1.0000 -1.1077086193
O   O106      1.0  0.88774  0.73606  0.75000  1.0000 -1.1629507405
O   O107      1.0  0.77347  0.70789  0.75000  1.0000 -1.0885730547
O   O108      1.0  0.84336  0.53452  0.75000  1.0000 -1.1496457321
O   O109      1.0  0.39233  0.06169  0.75000  1.0000 -1.1077086193
O   O110      1.0  0.26394  0.11226  0.75000  1.0000 -1.1629507405
O   O111      1.0  0.29211  0.22653  0.75000  1.0000 -1.0885730547
O   O112      1.0  0.46548  0.15664  0.75000  1.0000 -1.1496457321
