# DDEC6 charges by PACMAN v1.1 (https://github.com/mtap-research/PACMAN-charge/)
data_2019[Sm][kgd]2[ASR]1
_chemical_formula_sum              "Sm2 H30 C54 O12"
_cell_length_a       9.2629
_cell_length_b       13.7781
_cell_length_c       15.3499
_cell_angle_alpha    106.156
_cell_angle_beta     95.408
_cell_angle_gamma    96.02

_symmetry_space_group_name_H-M    "P 1"
_symmetry_Int_Tables_number       1

loop_
  _symmetry_equiv_pos_as_xyz
  'x, y, z'

loop_
  _atom_site_type_symbol
  _atom_site_label
  _atom_site_symmetry_multiplicity
  _atom_site_fract_x
  _atom_site_fract_y
  _atom_site_fract_z
  _atom_site_occupancy
  _atom_site_charge
Sm  Sm1       1.0  0.92181  0.33964  0.45735  1.0000 2.0313267992
Sm  Sm2       1.0  0.07819  0.66036  0.54265  1.0000 2.0313267992
H   H1        1.0  0.06040  0.36980  0.77640  1.0000 0.1184928944
H   H2        1.0  0.13990  0.43630  0.93120  1.0000 0.110315676
H   H3        1.0  0.09220  0.71690  0.91440  1.0000 0.110315676
H   H4        1.0  0.01540  0.65070  0.75970  1.0000 0.1287185238
H   H5        1.0  0.28870  0.51350  0.05430  1.0000 0.110315676
H   H6        1.0  0.30640  0.73490  0.29010  1.0000 0.1184928944
H   H7        1.0  0.08130  0.75580  0.06100  1.0000 0.110315676
H   H8        1.0  0.13780  0.83440  0.35920  1.0000 0.1287185238
H   H9        1.0  0.07330  0.98820  0.43630  1.0000 0.1287185238
H   H10       1.0  0.06280  0.07590  0.20740  1.0000 0.1184928944
H   H11       1.0  0.13420  0.92330  0.13070  1.0000 0.110315676
H   H12       1.0  0.33450  0.60800  0.35220  1.0000 0.1184928944
H   H13       1.0  0.48260  0.52580  0.42880  1.0000 0.1287185238
H   H14       1.0  0.64630  0.40110  0.19670  1.0000 0.110315676
H   H15       1.0  0.50780  0.49100  0.12230  1.0000 0.110315676
H   H16       1.0  0.93960  0.63020  0.22360  1.0000 0.1184928944
H   H17       1.0  0.86010  0.56370  0.06880  1.0000 0.110315676
H   H18       1.0  0.90780  0.28310  0.08560  1.0000 0.110315676
H   H19       1.0  0.98460  0.34930  0.24030  1.0000 0.1287185238
H   H20       1.0  0.71130  0.48650  0.94570  1.0000 0.110315676
H   H21       1.0  0.69360  0.26510  0.70990  1.0000 0.1184928944
H   H22       1.0  0.91870  0.24420  0.93900  1.0000 0.110315676
H   H23       1.0  0.86220  0.16560  0.64080  1.0000 0.1287185238
H   H24       1.0  0.92670  0.01180  0.56370  1.0000 0.1287185238
H   H25       1.0  0.93720  0.92410  0.79260  1.0000 0.1184928944
H   H26       1.0  0.86580  0.07670  0.86930  1.0000 0.110315676
H   H27       1.0  0.66550  0.39200  0.64780  1.0000 0.1184928944
H   H28       1.0  0.51740  0.47420  0.57120  1.0000 0.1287185238
H   H29       1.0  0.35370  0.59890  0.80330  1.0000 0.110315676
H   H30       1.0  0.49220  0.50900  0.87770  1.0000 0.110315676
C   C1        1.0  0.98800  0.45660  0.65030  1.0000 0.6074059294
C   C2        1.0  0.03160  0.50370  0.75180  1.0000 -0.0232132705
C   C3        1.0  0.06780  0.43970  0.80400  1.0000 -0.0912124528
C   C4        1.0  0.11510  0.47970  0.89720  1.0000 -0.1511899371
C   C5        1.0  0.12570  0.58390  0.94040  1.0000 0.0668804222
C   C6        1.0  0.08680  0.64710  0.88690  1.0000 -0.1511899371
C   C7        1.0  0.04060  0.60750  0.79390  1.0000 -0.0829358729
C   C8        1.0  0.17820  0.62740  0.04060  1.0000 0.079853647
C   C9        1.0  0.26310  0.57560  0.08660  1.0000 -0.1984529509
C   C10       1.0  0.31110  0.61450  0.18020  1.0000 0.0855926038
C   C11       1.0  0.27340  0.70800  0.22800  1.0000 -0.1777001931
C   C12       1.0  0.18660  0.76230  0.18410  1.0000 0.079853647
C   C13       1.0  0.13960  0.72080  0.09080  1.0000 -0.1984529509
C   C14       1.0  0.14540  0.86130  0.23590  1.0000 0.0637045489
C   C15       1.0  0.12440  0.88290  0.32860  1.0000 -0.1394575512
C   C16       1.0  0.08430  0.97490  0.37470  1.0000 -0.0829358729
C   C17       1.0  0.05980  0.04840  0.33000  1.0000 -0.0109323407
C   C18       1.0  0.07880  0.02770  0.23810  1.0000 -0.0955399363
C   C19       1.0  0.12130  0.93580  0.19200  1.0000 -0.1511899371
C   C20       1.0  0.01080  0.14770  0.37780  1.0000 0.5599671589
C   C21       1.0  0.40390  0.55810  0.22850  1.0000 0.0668804222
C   C22       1.0  0.39830  0.56750  0.32090  1.0000 -0.1394575512
C   C23       1.0  0.48620  0.51750  0.36680  1.0000 -0.0748632862
C   C24       1.0  0.58020  0.45460  0.32030  1.0000 -0.0232132705
C   C25       1.0  0.58550  0.44390  0.22850  1.0000 -0.0912124528
C   C26       1.0  0.50040  0.49670  0.18340  1.0000 -0.1599532231
C   C27       1.0  0.67920  0.40190  0.36880  1.0000 0.5793493079
C   C28       1.0  0.01200  0.54340  0.34970  1.0000 0.6074059294
C   C29       1.0  0.96840  0.49630  0.24820  1.0000 -0.0232132705
C   C30       1.0  0.93220  0.56030  0.19600  1.0000 -0.0912124528
C   C31       1.0  0.88490  0.52030  0.10280  1.0000 -0.1511899371
C   C32       1.0  0.87430  0.41610  0.05960  1.0000 0.0668804222
C   C33       1.0  0.91320  0.35290  0.11310  1.0000 -0.1511899371
C   C34       1.0  0.95940  0.39250  0.20610  1.0000 -0.0829358729
C   C35       1.0  0.82180  0.37260  0.95940  1.0000 0.079853647
C   C36       1.0  0.73690  0.42440  0.91340  1.0000 -0.1984529509
C   C37       1.0  0.68890  0.38550  0.81980  1.0000 0.0855926038
C   C38       1.0  0.72660  0.29200  0.77200  1.0000 -0.1777001931
C   C39       1.0  0.81340  0.23770  0.81590  1.0000 0.079853647
C   C40       1.0  0.86040  0.27920  0.90920  1.0000 -0.1984529509
C   C41       1.0  0.85460  0.13870  0.76410  1.0000 0.0637045489
C   C42       1.0  0.87560  0.11710  0.67140  1.0000 -0.1394575512
C   C43       1.0  0.91570  0.02510  0.62530  1.0000 -0.0829358729
C   C44       1.0  0.94020  0.95160  0.67000  1.0000 -0.0109323407
C   C45       1.0  0.92120  0.97230  0.76190  1.0000 -0.0955399363
C   C46       1.0  0.87870  0.06420  0.80800  1.0000 -0.1511899371
C   C47       1.0  0.98920  0.85230  0.62220  1.0000 0.5599671589
C   C48       1.0  0.59610  0.44190  0.77150  1.0000 0.0668804222
C   C49       1.0  0.60170  0.43250  0.67910  1.0000 -0.1394575512
C   C50       1.0  0.51380  0.48250  0.63320  1.0000 -0.0748632862
C   C51       1.0  0.41980  0.54540  0.67970  1.0000 -0.0232132705
C   C52       1.0  0.41450  0.55610  0.77150  1.0000 -0.0912124528
C   C53       1.0  0.49960  0.50330  0.81660  1.0000 -0.1599532231
C   C54       1.0  0.32080  0.59810  0.63120  1.0000 0.5793493079
O   O1        1.0  0.99240  0.51370  0.59680  1.0000 -0.7389940931
O   O2        1.0  0.94800  0.36360  0.62010  1.0000 -0.610148163
O   O3        1.0  0.99520  0.16990  0.46160  1.0000 -0.6465996219
O   O4        1.0  0.98370  0.20820  0.33110  1.0000 -0.6581259979
O   O5        1.0  0.73660  0.32790  0.32440  1.0000 -0.6179771139
O   O6        1.0  0.70890  0.43540  0.45640  1.0000 -0.666921915
O   O7        1.0  0.00760  0.48630  0.40320  1.0000 -0.7389940931
O   O8        1.0  0.05200  0.63640  0.37990  1.0000 -0.610148163
O   O9        1.0  0.00480  0.83010  0.53840  1.0000 -0.6465996219
O   O10       1.0  0.01630  0.79180  0.66890  1.0000 -0.6581259979
O   O11       1.0  0.26340  0.67210  0.67560  1.0000 -0.6179771139
O   O12       1.0  0.29110  0.56460  0.54360  1.0000 -0.666921915
