# DDEC6 charges by PACMAN v1.1 (https://github.com/mtap-research/PACMAN-charge/)
data_2019[Dy][nan]3[ASR]4
_chemical_formula_sum              "Dy6 H144 C252 N18 O36"
_cell_length_a       23.4842
_cell_length_b       23.4842
_cell_length_c       20.823
_cell_angle_alpha    90
_cell_angle_beta     90
_cell_angle_gamma    118.926

_symmetry_space_group_name_H-M    "P 1"
_symmetry_Int_Tables_number       1

loop_
  _symmetry_equiv_pos_as_xyz
  'x, y, z'

loop_
  _atom_site_type_symbol
  _atom_site_label
  _atom_site_symmetry_multiplicity
  _atom_site_fract_x
  _atom_site_fract_y
  _atom_site_fract_z
  _atom_site_occupancy
  _atom_site_charge
Dy  Dy1       1.0  0.52105  0.41315  0.33667  1.0000 2.0817644918
Dy  Dy2       1.0  0.47895  0.58685  0.83667  1.0000 2.0817644918
Dy  Dy3       1.0  0.58685  0.47895  0.16333  1.0000 2.0817644918
Dy  Dy4       1.0  0.41315  0.52105  0.66333  1.0000 2.0817644918
Dy  Dy5       1.0  0.41540  0.41540  0.50000  1.0000 2.0449983203
Dy  Dy6       1.0  0.58460  0.58460  0.00000  1.0000 2.0461911285
H   H1        1.0  0.39160  0.21620  0.35330  1.0000 0.1188696666
H   H2        1.0  0.25110  0.24050  0.43270  1.0000 0.1292364065
H   H3        1.0  0.48270  0.59210  0.16260  1.0000 0.1292364065
H   H4        1.0  0.32380  0.10380  0.35260  1.0000 0.1120600855
H   H5        1.0  0.18300  0.12840  0.43370  1.0000 0.1120600855
H   H6        1.0  0.42270  0.64670  0.16270  1.0000 0.1120600855
H   H7        1.0  0.27710  0.01190  0.37820  1.0000 0.1188696666
H   H8        1.0  0.12280  0.02780  0.41540  1.0000 0.1188696666
H   H9        1.0  0.41110  0.73370  0.20120  1.0000 0.1120600855
H   H10       1.0  0.22100  0.90220  0.39760  1.0000 0.1292364065
H   H11       1.0  0.06160  0.91640  0.41430  1.0000 0.1188696666
H   H12       1.0  0.35640  0.79300  0.20620  1.0000 0.1188696666
H   H13       1.0  0.92390  0.78490  0.45650  1.0000 0.1188696666
H   H14       1.0  0.92260  0.61680  0.48630  1.0000 0.1188696666
H   H15       1.0  0.05862  0.60802  0.46830  1.0000 0.1188696666
H   H16       1.0  0.22190  0.76910  0.42480  1.0000 0.1188696666
H   H17       1.0  0.36070  0.93250  0.21610  1.0000 0.1188696666
H   H18       1.0  0.19860  0.94720  0.22770  1.0000 0.1188696666
H   H19       1.0  0.81550  0.73630  0.48470  1.0000 0.1188696666
H   H20       1.0  0.81380  0.56820  0.51030  1.0000 0.1188696666
H   H21       1.0  0.11710  0.55470  0.48990  1.0000 0.1188696666
H   H22       1.0  0.28090  0.71490  0.43970  1.0000 0.1188696666
H   H23       1.0  0.41860  0.04240  0.19560  1.0000 0.1120600855
H   H24       1.0  0.25830  0.05630  0.20860  1.0000 0.1188696666
H   H25       1.0  0.74070  0.69590  0.57220  1.0000 0.1120600855
H   H26       1.0  0.70580  0.53160  0.48190  1.0000 0.1188696666
H   H27       1.0  0.17830  0.50910  0.43440  1.0000 0.1188696666
H   H28       1.0  0.32150  0.66710  0.51680  1.0000 0.1188696666
H   H29       1.0  0.46270  0.13510  0.14840  1.0000 0.1188696666
H   H30       1.0  0.32410  0.16150  0.22960  1.0000 0.1120600855
H   H31       1.0  0.63530  0.64810  0.60760  1.0000 0.1292364065
H   H32       1.0  0.59820  0.48200  0.51890  1.0000 0.1292364065
H   H33       1.0  0.23560  0.45240  0.45210  1.0000 0.1292364065
H   H34       1.0  0.37810  0.61230  0.53710  1.0000 0.1292364065
H   H35       1.0  0.52620  0.24600  0.13790  1.0000 0.1292364065
H   H36       1.0  0.39230  0.27270  0.22690  1.0000 0.1292364065
H   H37       1.0  0.60840  0.78380  0.85330  1.0000 0.1188696666
H   H38       1.0  0.74890  0.75950  0.93270  1.0000 0.1292364065
H   H39       1.0  0.51730  0.40790  0.66260  1.0000 0.1292364065
H   H40       1.0  0.67620  0.89620  0.85260  1.0000 0.1120600855
H   H41       1.0  0.81700  0.87160  0.93370  1.0000 0.1120600855
H   H42       1.0  0.57730  0.35330  0.66270  1.0000 0.1120600855
H   H43       1.0  0.72290  0.98810  0.87820  1.0000 0.1188696666
H   H44       1.0  0.87720  0.97220  0.91540  1.0000 0.1188696666
H   H45       1.0  0.58890  0.26630  0.70120  1.0000 0.1120600855
H   H46       1.0  0.77900  0.09780  0.89760  1.0000 0.1188696666
H   H47       1.0  0.93840  0.08360  0.91430  1.0000 0.1188696666
H   H48       1.0  0.64360  0.20700  0.70620  1.0000 0.1188696666
H   H49       1.0  0.07610  0.21510  0.95650  1.0000 0.1188696666
H   H50       1.0  0.07740  0.38320  0.98630  1.0000 0.1188696666
H   H51       1.0  0.94138  0.39198  0.96830  1.0000 0.1188696666
H   H52       1.0  0.77810  0.23090  0.92480  1.0000 0.1188696666
H   H53       1.0  0.63930  0.06750  0.71610  1.0000 0.1188696666
H   H54       1.0  0.80140  0.05280  0.72770  1.0000 0.1188696666
H   H55       1.0  0.18450  0.26370  0.98470  1.0000 0.1188696666
H   H56       1.0  0.18620  0.43180  0.01030  1.0000 0.1188696666
H   H57       1.0  0.88290  0.44530  0.98990  1.0000 0.1188696666
H   H58       1.0  0.71910  0.28510  0.93970  1.0000 0.1188696666
H   H59       1.0  0.58140  0.95760  0.69560  1.0000 0.1120600855
H   H60       1.0  0.74170  0.94370  0.70860  1.0000 0.1188696666
H   H61       1.0  0.25930  0.30410  0.07220  1.0000 0.1120600855
H   H62       1.0  0.29420  0.46840  0.98190  1.0000 0.1188696666
H   H63       1.0  0.82170  0.49090  0.93440  1.0000 0.1188696666
H   H64       1.0  0.67850  0.33290  0.01680  1.0000 0.1188696666
H   H65       1.0  0.53730  0.86490  0.64840  1.0000 0.1188696666
H   H66       1.0  0.67590  0.83850  0.72960  1.0000 0.1120600855
H   H67       1.0  0.36470  0.35190  0.10760  1.0000 0.1292364065
H   H68       1.0  0.40180  0.51800  0.01890  1.0000 0.1292364065
H   H69       1.0  0.76440  0.54760  0.95210  1.0000 0.1292364065
H   H70       1.0  0.62190  0.38770  0.03710  1.0000 0.1292364065
H   H71       1.0  0.47380  0.75400  0.63790  1.0000 0.1292364065
H   H72       1.0  0.60770  0.72730  0.72690  1.0000 0.1292364065
H   H73       1.0  0.78380  0.60840  0.14670  1.0000 0.1188696666
H   H74       1.0  0.75950  0.74890  0.06730  1.0000 0.1292364065
H   H75       1.0  0.40790  0.51730  0.33740  1.0000 0.1292364065
H   H76       1.0  0.89620  0.67620  0.14740  1.0000 0.1120600855
H   H77       1.0  0.87160  0.81700  0.06630  1.0000 0.1120600855
H   H78       1.0  0.35330  0.57730  0.33730  1.0000 0.1120600855
H   H79       1.0  0.98810  0.72290  0.12180  1.0000 0.1188696666
H   H80       1.0  0.97220  0.87720  0.08460  1.0000 0.1188696666
H   H81       1.0  0.26630  0.58890  0.29880  1.0000 0.1120600855
H   H82       1.0  0.09780  0.77900  0.10240  1.0000 0.1188696666
H   H83       1.0  0.08360  0.93840  0.08570  1.0000 0.1188696666
H   H84       1.0  0.20700  0.64360  0.29380  1.0000 0.1188696666
H   H85       1.0  0.21510  0.07610  0.04350  1.0000 0.1188696666
H   H86       1.0  0.38320  0.07740  0.01370  1.0000 0.1188696666
H   H87       1.0  0.39198  0.94138  0.03170  1.0000 0.1188696666
H   H88       1.0  0.23090  0.77810  0.07520  1.0000 0.1188696666
H   H89       1.0  0.06750  0.63930  0.28390  1.0000 0.1188696666
H   H90       1.0  0.05280  0.80140  0.27230  1.0000 0.1188696666
H   H91       1.0  0.26370  0.18450  0.01530  1.0000 0.1188696666
H   H92       1.0  0.43180  0.18620  0.98970  1.0000 0.1188696666
H   H93       1.0  0.44530  0.88290  0.01010  1.0000 0.1188696666
H   H94       1.0  0.28510  0.71910  0.06030  1.0000 0.1188696666
H   H95       1.0  0.95760  0.58140  0.30440  1.0000 0.1120600855
H   H96       1.0  0.94370  0.74170  0.29140  1.0000 0.1188696666
H   H97       1.0  0.30410  0.25930  0.92780  1.0000 0.1120600855
H   H98       1.0  0.46840  0.29420  0.01810  1.0000 0.1188696666
H   H99       1.0  0.49090  0.82170  0.06560  1.0000 0.1188696666
H   H100      1.0  0.33290  0.67850  0.98320  1.0000 0.1188696666
H   H101      1.0  0.86490  0.53730  0.35160  1.0000 0.1188696666
H   H102      1.0  0.83850  0.67590  0.27040  1.0000 0.1120600855
H   H103      1.0  0.35190  0.36470  0.89240  1.0000 0.1292364065
H   H104      1.0  0.51800  0.40180  0.98110  1.0000 0.1292364065
H   H105      1.0  0.54760  0.76440  0.04790  1.0000 0.1292364065
H   H106      1.0  0.38770  0.62190  0.96290  1.0000 0.1292364065
H   H107      1.0  0.75400  0.47380  0.36210  1.0000 0.1292364065
H   H108      1.0  0.72730  0.60770  0.27310  1.0000 0.1292364065
H   H109      1.0  0.21620  0.39160  0.64670  1.0000 0.1188696666
H   H110      1.0  0.24050  0.25110  0.56730  1.0000 0.1292364065
H   H111      1.0  0.59210  0.48270  0.83740  1.0000 0.1292364065
H   H112      1.0  0.10380  0.32380  0.64740  1.0000 0.1120600855
H   H113      1.0  0.12840  0.18300  0.56630  1.0000 0.1120600855
H   H114      1.0  0.64670  0.42270  0.83730  1.0000 0.1120600855
H   H115      1.0  0.01190  0.27710  0.62180  1.0000 0.1188696666
H   H116      1.0  0.02780  0.12280  0.58460  1.0000 0.1188696666
H   H117      1.0  0.73370  0.41110  0.79880  1.0000 0.1120600855
H   H118      1.0  0.90220  0.22100  0.60240  1.0000 0.1188696666
H   H119      1.0  0.91640  0.06160  0.58570  1.0000 0.1188696666
H   H120      1.0  0.79300  0.35640  0.79380  1.0000 0.1188696666
H   H121      1.0  0.78490  0.92390  0.54350  1.0000 0.1188696666
H   H122      1.0  0.61680  0.92260  0.51370  1.0000 0.1188696666
H   H123      1.0  0.60802  0.05862  0.53170  1.0000 0.1188696666
H   H124      1.0  0.76910  0.22190  0.57520  1.0000 0.1188696666
H   H125      1.0  0.93250  0.36070  0.78390  1.0000 0.1188696666
H   H126      1.0  0.94720  0.19860  0.77230  1.0000 0.1188696666
H   H127      1.0  0.73630  0.81550  0.51530  1.0000 0.1188696666
H   H128      1.0  0.56820  0.81380  0.48970  1.0000 0.1188696666
H   H129      1.0  0.55470  0.11710  0.51010  1.0000 0.1188696666
H   H130      1.0  0.71490  0.28090  0.56030  1.0000 0.1188696666
H   H131      1.0  0.04240  0.41860  0.80440  1.0000 0.1120600855
H   H132      1.0  0.05630  0.25830  0.79140  1.0000 0.1188696666
H   H133      1.0  0.69590  0.74070  0.42780  1.0000 0.1120600855
H   H134      1.0  0.53160  0.70580  0.51810  1.0000 0.1188696666
H   H135      1.0  0.50910  0.17830  0.56560  1.0000 0.1188696666
H   H136      1.0  0.66710  0.32150  0.48320  1.0000 0.1188696666
H   H137      1.0  0.13510  0.46270  0.85160  1.0000 0.1120600855
H   H138      1.0  0.16150  0.32410  0.77040  1.0000 0.1120600855
H   H139      1.0  0.64810  0.63530  0.39240  1.0000 0.1292364065
H   H140      1.0  0.48200  0.59820  0.48110  1.0000 0.1292364065
H   H141      1.0  0.45240  0.23560  0.54790  1.0000 0.1292364065
H   H142      1.0  0.61230  0.37810  0.46290  1.0000 0.1292364065
H   H143      1.0  0.24600  0.52620  0.86210  1.0000 0.1292364065
H   H144      1.0  0.27270  0.39230  0.77310  1.0000 0.1292364065
C   C1        1.0  0.36947  0.31151  0.38380  1.0000 0.6385537012
C   C2        1.0  0.32589  0.23931  0.38670  1.0000 -0.0297741565
C   C3        1.0  0.34899  0.19881  0.36780  1.0000 -0.1015688046
C   C4        1.0  0.26531  0.21309  0.41520  1.0000 -0.0912856808
C   C5        1.0  0.45619  0.58821  0.19730  1.0000 -0.0912856808
C   C6        1.0  0.30884  0.13076  0.36980  1.0000 -0.1581004368
C   C7        1.0  0.22513  0.14567  0.41790  1.0000 -0.1581004368
C   C8        1.0  0.42066  0.62154  0.19800  1.0000 -0.1507347244
C   C9        1.0  0.24876  0.10404  0.39660  1.0000 0.0802427174
C   C10       1.0  0.20810  0.03190  0.40070  1.0000 0.0684460835
C   C11       1.0  0.23404  0.99336  0.39160  1.0000 -0.1507347244
C   C12       1.0  0.14315  0.00245  0.41060  1.0000 -0.1581004368
C   C13       1.0  0.37088  0.71612  0.22160  1.0000 -0.1507347244
C   C14       1.0  0.19987  0.92693  0.40110  1.0000 -0.1015688046
C   C15       1.0  0.10680  0.93580  0.41360  1.0000 -0.1112241051
C   C16       1.0  0.33729  0.75111  0.22320  1.0000 -0.1112241051
C   C17       1.0  0.13535  0.89757  0.41550  1.0000 0.0182232223
C   C18       1.0  0.09835  0.82657  0.42870  1.0000 0.3710387701
C   C19       1.0  0.00550  0.73704  0.45400  1.0000 0.3623790914
C   C20       1.0  0.09791  0.73105  0.44290  1.0000 0.3623790914
C   C21       1.0  0.23655  0.85589  0.23820  1.0000 0.3710387701
C   C22       1.0  0.93534  0.70566  0.47020  1.0000 0.0117794295
C   C23       1.0  0.13408  0.69432  0.44810  1.0000 0.0117794295
C   C24       1.0  0.27310  0.92686  0.22460  1.0000 0.0182232223
C   C25       1.0  0.90237  0.74143  0.46890  1.0000 -0.1112241051
C   C26       1.0  0.90144  0.64156  0.48600  1.0000 -0.1015688046
C   C27       1.0  0.10368  0.63032  0.46440  1.0000 -0.1112241051
C   C28       1.0  0.20078  0.72582  0.43770  1.0000 -0.1015688046
C   C29       1.0  0.33927  0.95693  0.21490  1.0000 -0.1112241051
C   C30       1.0  0.24332  0.96588  0.22190  1.0000 -0.1112241051
C   C31       1.0  0.83714  0.71206  0.48600  1.0000 -0.1672626319
C   C32       1.0  0.83621  0.61253  0.50170  1.0000 -0.1507347244
C   C33       1.0  0.13848  0.59752  0.47540  1.0000 -0.1507347244
C   C34       1.0  0.23610  0.69310  0.44630  1.0000 -0.1507347244
C   C35       1.0  0.37417  0.02343  0.20330  1.0000 -0.1507347244
C   C36       1.0  0.27956  0.03164  0.21070  1.0000 -0.1581004368
C   C37       1.0  0.80374  0.64798  0.50490  1.0000 0.0684460835
C   C38       1.0  0.20565  0.62875  0.46470  1.0000 0.0684460835
C   C39       1.0  0.34521  0.06217  0.20270  1.0000 0.0615951823
C   C40       1.0  0.73436  0.61776  0.52570  1.0000 0.0684460835
C   C41       1.0  0.24296  0.59384  0.47550  1.0000 0.0615951823
C   C42       1.0  0.38599  0.13411  0.19410  1.0000 0.0802427174
C   C43       1.0  0.71231  0.65269  0.56180  1.0000 -0.1507347244
C   C44       1.0  0.69180  0.55456  0.50790  1.0000 -0.1423457315
C   C45       1.0  0.21821  0.52959  0.45540  1.0000 -0.1581004368
C   C46       1.0  0.30355  0.62365  0.50480  1.0000 -0.1423457315
C   C47       1.0  0.44761  0.16219  0.16480  1.0000 -0.1672626319
C   C48       1.0  0.36617  0.17743  0.21390  1.0000 -0.1581004368
C   C49       1.0  0.64896  0.62424  0.58250  1.0000 -0.0912856808
C   C50       1.0  0.62674  0.52502  0.52940  1.0000 -0.077317161
C   C51       1.0  0.25233  0.49507  0.46620  1.0000 -0.1015688046
C   C52       1.0  0.33780  0.59120  0.51690  1.0000 -0.1015688046
C   C53       1.0  0.48666  0.22914  0.15960  1.0000 -0.1015688046
C   C54       1.0  0.40685  0.24495  0.21120  1.0000 -0.0912856808
C   C55       1.0  0.60524  0.56060  0.56660  1.0000 -0.0427565402
C   C56       1.0  0.31136  0.52604  0.49830  1.0000 -0.0297741565
C   C57       1.0  0.46750  0.27006  0.18580  1.0000 -0.0297741565
C   C58       1.0  0.53573  0.53099  0.58553  1.0000 0.6299726093
C   C59       1.0  0.34615  0.48787  0.51040  1.0000 0.5998452628
C   C60       1.0  0.51259  0.34157  0.18400  1.0000 0.6231897795
C   C61       1.0  0.63053  0.68849  0.88380  1.0000 0.6385537012
C   C62       1.0  0.67411  0.76069  0.88670  1.0000 -0.0297741565
C   C63       1.0  0.65101  0.80119  0.86780  1.0000 -0.1015688046
C   C64       1.0  0.73469  0.78691  0.91520  1.0000 -0.0912856808
C   C65       1.0  0.54381  0.41179  0.69730  1.0000 -0.0912856808
C   C66       1.0  0.69116  0.86924  0.86980  1.0000 -0.1581004368
C   C67       1.0  0.77487  0.85433  0.91790  1.0000 -0.1581004368
C   C68       1.0  0.57934  0.37846  0.69800  1.0000 -0.1507347244
C   C69       1.0  0.75124  0.89596  0.89660  1.0000 0.0802427174
C   C70       1.0  0.79190  0.96810  0.90070  1.0000 0.0684460835
C   C71       1.0  0.76596  0.00664  0.89160  1.0000 -0.1507347244
C   C72       1.0  0.85685  0.99755  0.91060  1.0000 -0.1581004368
C   C73       1.0  0.62912  0.28388  0.72160  1.0000 -0.1507347244
C   C74       1.0  0.80013  0.07307  0.90110  1.0000 -0.1015688046
C   C75       1.0  0.89320  0.06420  0.91360  1.0000 -0.1112241051
C   C76       1.0  0.66271  0.24889  0.72320  1.0000 -0.1112241051
C   C77       1.0  0.86465  0.10243  0.91550  1.0000 0.0182232223
C   C78       1.0  0.90165  0.17343  0.92870  1.0000 0.3710387701
C   C79       1.0  0.99450  0.26296  0.95400  1.0000 0.3623790914
C   C80       1.0  0.90209  0.26895  0.94290  1.0000 0.3623790914
C   C81       1.0  0.76345  0.14411  0.73820  1.0000 0.3710387701
C   C82       1.0  0.06466  0.29434  0.97020  1.0000 0.0117794295
C   C83       1.0  0.86592  0.30568  0.94810  1.0000 0.0117794295
C   C84       1.0  0.72690  0.07314  0.72460  1.0000 0.0182232223
C   C85       1.0  0.09763  0.25857  0.96890  1.0000 -0.1112241051
C   C86       1.0  0.09856  0.35844  0.98600  1.0000 -0.1015688046
C   C87       1.0  0.89632  0.36968  0.96440  1.0000 -0.1015688046
C   C88       1.0  0.79922  0.27418  0.93770  1.0000 -0.1015688046
C   C89       1.0  0.66073  0.04307  0.71490  1.0000 -0.1112241051
C   C90       1.0  0.75668  0.03412  0.72190  1.0000 -0.1112241051
C   C91       1.0  0.16286  0.28794  0.98600  1.0000 -0.1672626319
C   C92       1.0  0.16379  0.38747  0.00170  1.0000 -0.1507347244
C   C93       1.0  0.86152  0.40248  0.97540  1.0000 -0.1507347244
C   C94       1.0  0.76390  0.30690  0.94630  1.0000 -0.1507347244
C   C95       1.0  0.62583  0.97657  0.70330  1.0000 -0.1507347244
C   C96       1.0  0.72044  0.96836  0.71070  1.0000 -0.1581004368
C   C97       1.0  0.19626  0.35202  0.00490  1.0000 0.0684460835
C   C98       1.0  0.79435  0.37125  0.96470  1.0000 0.0684460835
C   C99       1.0  0.65479  0.93783  0.70270  1.0000 0.0615951823
C   C100      1.0  0.26564  0.38224  0.02570  1.0000 0.0684460835
C   C101      1.0  0.75704  0.40616  0.97550  1.0000 0.0615951823
C   C102      1.0  0.61401  0.86589  0.69410  1.0000 0.0802427174
C   C103      1.0  0.28769  0.34731  0.06180  1.0000 -0.1507347244
C   C104      1.0  0.30820  0.44544  0.00790  1.0000 -0.1423457315
C   C105      1.0  0.78179  0.47041  0.95540  1.0000 -0.1581004368
C   C106      1.0  0.69645  0.37635  0.00480  1.0000 -0.1423457315
C   C107      1.0  0.55239  0.83781  0.66480  1.0000 -0.1672626319
C   C108      1.0  0.63383  0.82257  0.71390  1.0000 -0.1581004368
C   C109      1.0  0.35104  0.37576  0.08250  1.0000 -0.0912856808
C   C110      1.0  0.37326  0.47498  0.02940  1.0000 -0.077317161
C   C111      1.0  0.74767  0.50493  0.96620  1.0000 -0.1015688046
C   C112      1.0  0.66220  0.40880  0.01690  1.0000 -0.1015688046
C   C113      1.0  0.51334  0.77086  0.65960  1.0000 -0.1015688046
C   C114      1.0  0.59315  0.75505  0.71120  1.0000 -0.0912856808
C   C115      1.0  0.39476  0.43940  0.06660  1.0000 -0.0427565402
C   C116      1.0  0.68864  0.47396  0.99830  1.0000 -0.0297741565
C   C117      1.0  0.53250  0.72994  0.68580  1.0000 -0.0297741565
C   C118      1.0  0.46427  0.46901  0.08553  1.0000 0.6299726093
C   C119      1.0  0.65385  0.51213  0.01040  1.0000 0.5998452628
C   C120      1.0  0.48741  0.65843  0.68400  1.0000 0.6231897795
C   C121      1.0  0.68849  0.63053  0.11620  1.0000 0.6385537012
C   C122      1.0  0.76069  0.67411  0.11330  1.0000 -0.0297741565
C   C123      1.0  0.80119  0.65101  0.13220  1.0000 -0.1015688046
C   C124      1.0  0.78691  0.73469  0.08480  1.0000 -0.0912856808
C   C125      1.0  0.41179  0.54381  0.30270  1.0000 -0.0912856808
C   C126      1.0  0.86924  0.69116  0.13020  1.0000 -0.1581004368
C   C127      1.0  0.85433  0.77487  0.08210  1.0000 -0.1581004368
C   C128      1.0  0.37846  0.57934  0.30200  1.0000 -0.1507347244
C   C129      1.0  0.89596  0.75124  0.10340  1.0000 0.0802427174
C   C130      1.0  0.96810  0.79190  0.09930  1.0000 0.0684460835
C   C131      1.0  0.00664  0.76596  0.10840  1.0000 -0.1507347244
C   C132      1.0  0.99755  0.85685  0.08940  1.0000 -0.1581004368
C   C133      1.0  0.28388  0.62912  0.27840  1.0000 -0.1507347244
C   C134      1.0  0.07307  0.80013  0.09890  1.0000 -0.1015688046
C   C135      1.0  0.06420  0.89320  0.08640  1.0000 -0.1112241051
C   C136      1.0  0.24889  0.66271  0.27680  1.0000 -0.1112241051
C   C137      1.0  0.10243  0.86465  0.08450  1.0000 0.0182232223
C   C138      1.0  0.17343  0.90165  0.07130  1.0000 0.3710387701
C   C139      1.0  0.26296  0.99450  0.04600  1.0000 0.3623790914
C   C140      1.0  0.26895  0.90209  0.05710  1.0000 0.3623790914
C   C141      1.0  0.14411  0.76345  0.26180  1.0000 0.3710387701
C   C142      1.0  0.29434  0.06466  0.02980  1.0000 0.0117794295
C   C143      1.0  0.30568  0.86592  0.05190  1.0000 0.0117794295
C   C144      1.0  0.07314  0.72690  0.27540  1.0000 0.0182232223
C   C145      1.0  0.25857  0.09763  0.03110  1.0000 -0.1112241051
C   C146      1.0  0.35844  0.09856  0.01400  1.0000 -0.1015688046
C   C147      1.0  0.36968  0.89632  0.03560  1.0000 -0.1112241051
C   C148      1.0  0.27418  0.79922  0.06230  1.0000 -0.1015688046
C   C149      1.0  0.04307  0.66073  0.28510  1.0000 -0.1112241051
C   C150      1.0  0.03412  0.75668  0.27810  1.0000 -0.1112241051
C   C151      1.0  0.28794  0.16286  0.01400  1.0000 -0.1672626319
C   C152      1.0  0.38747  0.16379  0.99830  1.0000 -0.1507347244
C   C153      1.0  0.40248  0.86152  0.02460  1.0000 -0.1507347244
C   C154      1.0  0.30690  0.76390  0.05370  1.0000 -0.1507347244
C   C155      1.0  0.97657  0.62583  0.29670  1.0000 -0.1507347244
C   C156      1.0  0.96836  0.72044  0.28930  1.0000 -0.1581004368
C   C157      1.0  0.35202  0.19626  0.99510  1.0000 0.0684460835
C   C158      1.0  0.37125  0.79435  0.03530  1.0000 0.0684460835
C   C159      1.0  0.93783  0.65479  0.29730  1.0000 0.0615951823
C   C160      1.0  0.38224  0.26564  0.97430  1.0000 0.0684460835
C   C161      1.0  0.40616  0.75704  0.02450  1.0000 0.0615951823
C   C162      1.0  0.86589  0.61401  0.30590  1.0000 0.0802427174
C   C163      1.0  0.34731  0.28769  0.93820  1.0000 -0.1507347244
C   C164      1.0  0.44544  0.30820  0.99210  1.0000 -0.1423457315
C   C165      1.0  0.47041  0.78179  0.04460  1.0000 -0.1581004368
C   C166      1.0  0.37635  0.69645  0.99520  1.0000 -0.1423457315
C   C167      1.0  0.83781  0.55239  0.33520  1.0000 -0.1672626319
C   C168      1.0  0.82257  0.63383  0.28610  1.0000 -0.1581004368
C   C169      1.0  0.37576  0.35104  0.91750  1.0000 -0.0912856808
C   C170      1.0  0.47498  0.37326  0.97060  1.0000 -0.077317161
C   C171      1.0  0.50493  0.74767  0.03380  1.0000 -0.1015688046
C   C172      1.0  0.40880  0.66220  0.98310  1.0000 -0.1015688046
C   C173      1.0  0.77086  0.51334  0.34040  1.0000 -0.1015688046
C   C174      1.0  0.75505  0.59315  0.28880  1.0000 -0.0912856808
C   C175      1.0  0.43940  0.39476  0.93340  1.0000 -0.0427565402
C   C176      1.0  0.47396  0.68864  0.00170  1.0000 -0.0297741565
C   C177      1.0  0.72994  0.53250  0.31420  1.0000 -0.0297741565
C   C178      1.0  0.46901  0.46427  0.91447  1.0000 0.6299726093
C   C179      1.0  0.51213  0.65385  0.98960  1.0000 0.5998452628
C   C180      1.0  0.65843  0.48741  0.31600  1.0000 0.6231897795
C   C181      1.0  0.31151  0.36947  0.61620  1.0000 0.6385537012
C   C182      1.0  0.23931  0.32589  0.61330  1.0000 -0.0297741565
C   C183      1.0  0.19881  0.34899  0.63220  1.0000 -0.1015688046
C   C184      1.0  0.21309  0.26531  0.58480  1.0000 -0.0912856808
C   C185      1.0  0.58821  0.45619  0.80270  1.0000 -0.0912856808
C   C186      1.0  0.13076  0.30884  0.63020  1.0000 -0.1581004368
C   C187      1.0  0.14567  0.22513  0.58210  1.0000 -0.1581004368
C   C188      1.0  0.62154  0.42066  0.80200  1.0000 -0.1507347244
C   C189      1.0  0.10404  0.24876  0.60340  1.0000 0.0802427174
C   C190      1.0  0.03190  0.20810  0.59930  1.0000 0.0684460835
C   C191      1.0  0.99336  0.23404  0.60840  1.0000 -0.1507347244
C   C192      1.0  0.00245  0.14315  0.58940  1.0000 -0.1581004368
C   C193      1.0  0.71612  0.37088  0.77840  1.0000 -0.1507347244
C   C194      1.0  0.92693  0.19987  0.59890  1.0000 -0.1015688046
C   C195      1.0  0.93580  0.10680  0.58640  1.0000 -0.1112241051
C   C196      1.0  0.75111  0.33729  0.77680  1.0000 -0.1112241051
C   C197      1.0  0.89757  0.13535  0.58450  1.0000 0.0182232223
C   C198      1.0  0.82657  0.09835  0.57130  1.0000 0.3710387701
C   C199      1.0  0.73704  0.00550  0.54600  1.0000 0.3623790914
C   C200      1.0  0.73105  0.09791  0.55710  1.0000 0.3623790914
C   C201      1.0  0.85589  0.23655  0.76180  1.0000 0.3710387701
C   C202      1.0  0.70566  0.93534  0.52980  1.0000 0.0117794295
C   C203      1.0  0.69432  0.13408  0.55190  1.0000 0.0117794295
C   C204      1.0  0.92686  0.27310  0.77540  1.0000 0.0182232223
C   C205      1.0  0.74143  0.90237  0.53110  1.0000 -0.1112241051
C   C206      1.0  0.64156  0.90144  0.51400  1.0000 -0.1015688046
C   C207      1.0  0.63032  0.10368  0.53560  1.0000 -0.1015688046
C   C208      1.0  0.72582  0.20078  0.56230  1.0000 -0.1015688046
C   C209      1.0  0.95693  0.33927  0.78510  1.0000 -0.1112241051
C   C210      1.0  0.96588  0.24332  0.77810  1.0000 -0.1112241051
C   C211      1.0  0.71206  0.83714  0.51400  1.0000 -0.1672626319
C   C212      1.0  0.61253  0.83621  0.49830  1.0000 -0.1507347244
C   C213      1.0  0.59752  0.13848  0.52460  1.0000 -0.1507347244
C   C214      1.0  0.69310  0.23610  0.55370  1.0000 -0.1507347244
C   C215      1.0  0.02343  0.37417  0.79670  1.0000 -0.1507347244
C   C216      1.0  0.03164  0.27956  0.78930  1.0000 -0.1581004368
C   C217      1.0  0.64798  0.80374  0.49510  1.0000 0.0684460835
C   C218      1.0  0.62875  0.20565  0.53530  1.0000 0.0684460835
C   C219      1.0  0.06217  0.34521  0.79730  1.0000 0.0615951823
C   C220      1.0  0.61776  0.73436  0.47430  1.0000 0.0684460835
C   C221      1.0  0.59384  0.24296  0.52450  1.0000 0.0615951823
C   C222      1.0  0.13411  0.38599  0.80590  1.0000 0.0802427174
C   C223      1.0  0.65269  0.71231  0.43820  1.0000 -0.1507347244
C   C224      1.0  0.55456  0.69180  0.49210  1.0000 -0.1423457315
C   C225      1.0  0.52959  0.21821  0.54460  1.0000 -0.1581004368
C   C226      1.0  0.62365  0.30355  0.49520  1.0000 -0.1423457315
C   C227      1.0  0.16219  0.44761  0.83520  1.0000 -0.1672626319
C   C228      1.0  0.17743  0.36617  0.78610  1.0000 -0.1581004368
C   C229      1.0  0.62424  0.64896  0.41750  1.0000 -0.0912856808
C   C230      1.0  0.52502  0.62674  0.47060  1.0000 -0.077317161
C   C231      1.0  0.49507  0.25233  0.53380  1.0000 -0.1015688046
C   C232      1.0  0.59120  0.33780  0.48310  1.0000 -0.1015688046
C   C233      1.0  0.22914  0.48666  0.84040  1.0000 -0.1015688046
C   C234      1.0  0.24495  0.40685  0.78880  1.0000 -0.0912856808
C   C235      1.0  0.56060  0.60524  0.43340  1.0000 -0.0427565402
C   C236      1.0  0.52604  0.31136  0.50170  1.0000 -0.0297741565
C   C237      1.0  0.27006  0.46750  0.81420  1.0000 -0.0297741565
C   C238      1.0  0.53099  0.53573  0.41447  1.0000 0.6299726093
C   C239      1.0  0.48787  0.34615  0.48960  1.0000 0.5998452628
C   C240      1.0  0.34157  0.51259  0.81600  1.0000 0.6231897795
C   C241      1.0  0.48839  0.51161  0.25000  1.0000 0.6385537012
C   C242      1.0  0.45145  0.54855  0.25000  1.0000 -0.0297741565
C   C243      1.0  0.38221  0.61779  0.25000  1.0000 0.0615951823
C   C244      1.0  0.34497  0.65503  0.25000  1.0000 0.0802427174
C   C245      1.0  0.27558  0.72442  0.25000  1.0000 0.0182232223
C   C246      1.0  0.23861  0.76139  0.25000  1.0000 0.3710387701
C   C247      1.0  0.51161  0.48839  0.75000  1.0000 0.6385537012
C   C248      1.0  0.54855  0.45145  0.75000  1.0000 -0.0297741565
C   C249      1.0  0.61779  0.38221  0.75000  1.0000 0.0615951823
C   C250      1.0  0.65503  0.34497  0.75000  1.0000 0.0802427174
C   C251      1.0  0.72442  0.27558  0.75000  1.0000 0.0182232223
C   C252      1.0  0.76139  0.23861  0.75000  1.0000 0.3710387701
N   N1        1.0  0.03523  0.80067  0.44060  1.0000 -0.411206407
N   N2        1.0  0.13229  0.79453  0.42830  1.0000 -0.411206407
N   N3        1.0  0.27184  0.82480  0.23770  1.0000 -0.4176380015
N   N4        1.0  0.03421  0.70013  0.45630  1.0000 -0.411206407
N   N5        1.0  0.96477  0.19933  0.94060  1.0000 -0.411206407
N   N6        1.0  0.86771  0.20547  0.92830  1.0000 -0.411206407
N   N7        1.0  0.72816  0.17520  0.73770  1.0000 -0.4176380015
N   N8        1.0  0.96579  0.29987  0.95630  1.0000 -0.411206407
N   N9        1.0  0.19933  0.96477  0.05940  1.0000 -0.411206407
N   N10       1.0  0.20547  0.86771  0.07170  1.0000 -0.411206407
N   N11       1.0  0.17520  0.72816  0.26230  1.0000 -0.4176380015
N   N12       1.0  0.29987  0.96579  0.04370  1.0000 -0.411206407
N   N13       1.0  0.80067  0.03523  0.55940  1.0000 -0.411206407
N   N14       1.0  0.79453  0.13229  0.57170  1.0000 -0.411206407
N   N15       1.0  0.82480  0.27184  0.76230  1.0000 -0.4176380015
N   N16       1.0  0.70013  0.03421  0.54370  1.0000 -0.411206407
N   N17       1.0  0.17255  0.82745  0.25000  1.0000 -0.4176380015
N   N18       1.0  0.82745  0.17255  0.75000  1.0000 -0.4176380015
O   O1        1.0  0.41584  0.33190  0.34527  1.0000 -0.6662262356
O   O2        1.0  0.46937  0.46395  0.28782  1.0000 -0.6647566235
O   O3        1.0  0.56358  0.51668  0.38352  1.0000 -0.6082299626
O   O4        1.0  0.50597  0.39087  0.44771  1.0000 -0.744610337
O   O5        1.0  0.63435  0.44639  0.36029  1.0000 -0.6082299626
O   O6        1.0  0.51096  0.37864  0.22742  1.0000 -0.7330309427
O   O7        1.0  0.35707  0.34597  0.41947  1.0000 -0.6201338446
O   O8        1.0  0.49764  0.47198  0.56748  1.0000 -0.7486771023
O   O9        1.0  0.32980  0.43776  0.47732  1.0000 -0.5901223397
O   O10       1.0  0.58416  0.66810  0.84527  1.0000 -0.6662262356
O   O11       1.0  0.53063  0.53605  0.78782  1.0000 -0.6647566235
O   O12       1.0  0.43642  0.48332  0.88352  1.0000 -0.6082299626
O   O13       1.0  0.49403  0.60913  0.94771  1.0000 -0.744610337
O   O14       1.0  0.36565  0.55361  0.86029  1.0000 -0.6082299626
O   O15       1.0  0.48904  0.62136  0.72742  1.0000 -0.7330309427
O   O16       1.0  0.64293  0.65403  0.91947  1.0000 -0.6201338446
O   O17       1.0  0.50236  0.52802  0.06748  1.0000 -0.7486771023
O   O18       1.0  0.67020  0.56224  0.97732  1.0000 -0.5901223397
O   O19       1.0  0.66810  0.58416  0.15473  1.0000 -0.6662262356
O   O20       1.0  0.53605  0.53063  0.21218  1.0000 -0.6647566235
O   O21       1.0  0.48332  0.43642  0.11648  1.0000 -0.6082299626
O   O22       1.0  0.60913  0.49403  0.05229  1.0000 -0.744610337
O   O23       1.0  0.55361  0.36565  0.13971  1.0000 -0.6082299626
O   O24       1.0  0.62136  0.48904  0.27258  1.0000 -0.7330309427
O   O25       1.0  0.65403  0.64293  0.08053  1.0000 -0.6201338446
O   O26       1.0  0.52802  0.50236  0.93252  1.0000 -0.7486771023
O   O27       1.0  0.56224  0.67020  0.02268  1.0000 -0.5901223397
O   O28       1.0  0.33190  0.41584  0.65473  1.0000 -0.6662262356
O   O29       1.0  0.46395  0.46937  0.71218  1.0000 -0.6647566235
O   O30       1.0  0.51668  0.56358  0.61648  1.0000 -0.6082299626
O   O31       1.0  0.39087  0.50597  0.55229  1.0000 -0.744610337
O   O32       1.0  0.44639  0.63435  0.63971  1.0000 -0.6082299626
O   O33       1.0  0.37864  0.51096  0.77258  1.0000 -0.7330309427
O   O34       1.0  0.34597  0.35707  0.58053  1.0000 -0.6201338446
O   O35       1.0  0.47198  0.49764  0.43252  1.0000 -0.7486771023
O   O36       1.0  0.43776  0.32980  0.52268  1.0000 -0.5901223397
