# DDEC6 charges by PACMAN v1.1 (https://github.com/mtap-research/PACMAN-charge/)
data_2019[Zn][pyr]3[ASR]1
_chemical_formula_sum              "Zn16 H32 C72 O56"
_cell_length_a       14.7894
_cell_length_b       16.4229
_cell_length_c       18.9429
_cell_angle_alpha    90
_cell_angle_beta     90
_cell_angle_gamma    90

_symmetry_space_group_name_H-M    "P 1"
_symmetry_Int_Tables_number       1

loop_
  _symmetry_equiv_pos_as_xyz
  'x, y, z'

loop_
  _atom_site_type_symbol
  _atom_site_label
  _atom_site_symmetry_multiplicity
  _atom_site_fract_x
  _atom_site_fract_y
  _atom_site_fract_z
  _atom_site_occupancy
  _atom_site_charge
Zn  Zn1       1.0  0.49790  0.42645  0.44619  1.0000 0.9980734599
Zn  Zn2       1.0  0.53183  0.59120  0.36569  1.0000 0.9414553356
Zn  Zn3       1.0  0.00210  0.57355  0.94619  1.0000 0.9980734599
Zn  Zn4       1.0  0.96817  0.40880  0.86569  1.0000 0.9414553356
Zn  Zn5       1.0  0.50210  0.92645  0.05381  1.0000 0.9980734599
Zn  Zn6       1.0  0.46817  0.09120  0.13431  1.0000 0.9414553356
Zn  Zn7       1.0  0.99790  0.07355  0.55381  1.0000 0.9980734599
Zn  Zn8       1.0  0.03183  0.90880  0.63431  1.0000 0.9414553356
Zn  Zn9       1.0  0.50210  0.57355  0.55381  1.0000 0.9980734599
Zn  Zn10      1.0  0.46817  0.40880  0.63431  1.0000 0.9414553356
Zn  Zn11      1.0  0.99790  0.42645  0.05381  1.0000 0.9980734599
Zn  Zn12      1.0  0.03183  0.59120  0.13431  1.0000 0.9414553356
Zn  Zn13      1.0  0.49790  0.07355  0.94619  1.0000 0.9980734599
Zn  Zn14      1.0  0.53183  0.90880  0.86569  1.0000 0.9414553356
Zn  Zn15      1.0  0.00210  0.92645  0.44619  1.0000 0.9980734599
Zn  Zn16      1.0  0.96817  0.09120  0.36569  1.0000 0.9414553356
H   H1        1.0  0.41850  0.56500  0.44860  1.0000 0.396478669
H   H2        1.0  0.79010  0.52350  0.27390  1.0000 0.1354548533
H   H3        1.0  0.96250  0.33060  0.27540  1.0000 0.1300893736
H   H4        1.0  0.75830  0.34330  0.41680  1.0000 0.1200011385
H   H5        1.0  0.08150  0.43500  0.94860  1.0000 0.396478669
H   H6        1.0  0.70990  0.47650  0.77390  1.0000 0.1354548533
H   H7        1.0  0.53750  0.66940  0.77540  1.0000 0.1300893736
H   H8        1.0  0.74170  0.65670  0.91680  1.0000 0.1200011385
H   H9        1.0  0.58150  0.06500  0.05140  1.0000 0.396478669
H   H10       1.0  0.20990  0.02350  0.22610  1.0000 0.1354548533
H   H11       1.0  0.03750  0.83060  0.22460  1.0000 0.1300893736
H   H12       1.0  0.24170  0.84330  0.08320  1.0000 0.1200011385
H   H13       1.0  0.91850  0.93500  0.55140  1.0000 0.396478669
H   H14       1.0  0.29010  0.97650  0.72610  1.0000 0.1354548533
H   H15       1.0  0.46250  0.16940  0.72460  1.0000 0.1300893736
H   H16       1.0  0.25830  0.15670  0.58320  1.0000 0.1200011385
H   H17       1.0  0.58150  0.43500  0.55140  1.0000 0.396478669
H   H18       1.0  0.20990  0.47650  0.72610  1.0000 0.1354548533
H   H19       1.0  0.03750  0.66940  0.72460  1.0000 0.1300893736
H   H20       1.0  0.24170  0.65670  0.58320  1.0000 0.1200011385
H   H21       1.0  0.91850  0.56500  0.05140  1.0000 0.396478669
H   H22       1.0  0.29010  0.52350  0.22610  1.0000 0.1354548533
H   H23       1.0  0.46250  0.33060  0.22460  1.0000 0.1300893736
H   H24       1.0  0.25830  0.34330  0.08320  1.0000 0.1200011385
H   H25       1.0  0.41850  0.93500  0.94860  1.0000 0.396478669
H   H26       1.0  0.79010  0.97650  0.77390  1.0000 0.1354548533
H   H27       1.0  0.96250  0.16940  0.77540  1.0000 0.1300893736
H   H28       1.0  0.75830  0.15670  0.91680  1.0000 0.1200011385
H   H29       1.0  0.08150  0.06500  0.44860  1.0000 0.396478669
H   H30       1.0  0.70990  0.02350  0.27390  1.0000 0.1354548533
H   H31       1.0  0.53750  0.83060  0.27540  1.0000 0.1300893736
H   H32       1.0  0.74170  0.84330  0.41680  1.0000 0.1200011385
C   C1        1.0  0.76226  0.43848  0.34844  1.0000 -0.0281577761
C   C2        1.0  0.80964  0.47330  0.29365  1.0000 -0.0968203589
C   C3        1.0  0.88719  0.43419  0.26695  1.0000 -0.042981344
C   C4        1.0  0.91230  0.35891  0.29476  1.0000 -0.0835305478
C   C5        1.0  0.86430  0.32469  0.35079  1.0000 -0.0281577761
C   C6        1.0  0.79020  0.36550  0.37780  1.0000 -0.0835305478
C   C7        1.0  0.67602  0.47735  0.37448  1.0000 0.6003916574
C   C8        1.0  0.93890  0.47043  0.20793  1.0000 0.5903962341
C   C9        1.0  0.89060  0.24254  0.37885  1.0000 0.5613187787
C   C10       1.0  0.73774  0.56152  0.84844  1.0000 -0.0281577761
C   C11       1.0  0.69036  0.52670  0.79365  1.0000 -0.0968203589
C   C12       1.0  0.61281  0.56581  0.76695  1.0000 -0.042981344
C   C13       1.0  0.58770  0.64109  0.79476  1.0000 -0.0835305478
C   C14       1.0  0.63570  0.67531  0.85079  1.0000 -0.0281577761
C   C15       1.0  0.70980  0.63450  0.87780  1.0000 -0.0835305478
C   C16       1.0  0.82398  0.52265  0.87448  1.0000 0.6003916574
C   C17       1.0  0.56110  0.52957  0.70793  1.0000 0.5903962341
C   C18       1.0  0.60940  0.75746  0.87885  1.0000 0.5613187787
C   C19       1.0  0.23774  0.93848  0.15156  1.0000 -0.0281577761
C   C20       1.0  0.19036  0.97330  0.20635  1.0000 -0.0968203589
C   C21       1.0  0.11281  0.93419  0.23305  1.0000 -0.042981344
C   C22       1.0  0.08770  0.85891  0.20524  1.0000 -0.0835305478
C   C23       1.0  0.13570  0.82469  0.14921  1.0000 -0.0281577761
C   C24       1.0  0.20980  0.86550  0.12220  1.0000 -0.0835305478
C   C25       1.0  0.32398  0.97735  0.12552  1.0000 0.6003916574
C   C26       1.0  0.06110  0.97043  0.29207  1.0000 0.5903962341
C   C27       1.0  0.10940  0.74254  0.12115  1.0000 0.5613187787
C   C28       1.0  0.26226  0.06152  0.65156  1.0000 -0.0281577761
C   C29       1.0  0.30964  0.02670  0.70635  1.0000 -0.0968203589
C   C30       1.0  0.38719  0.06581  0.73305  1.0000 -0.042981344
C   C31       1.0  0.41230  0.14109  0.70524  1.0000 -0.0835305478
C   C32       1.0  0.36430  0.17531  0.64921  1.0000 -0.0281577761
C   C33       1.0  0.29020  0.13450  0.62220  1.0000 -0.0835305478
C   C34       1.0  0.17602  0.02265  0.62552  1.0000 0.6003916574
C   C35       1.0  0.43890  0.02957  0.79207  1.0000 0.5903962341
C   C36       1.0  0.39060  0.25746  0.62115  1.0000 0.5613187787
C   C37       1.0  0.23774  0.56152  0.65156  1.0000 -0.0281577761
C   C38       1.0  0.19036  0.52670  0.70635  1.0000 -0.0968203589
C   C39       1.0  0.11281  0.56581  0.73305  1.0000 -0.042981344
C   C40       1.0  0.08770  0.64109  0.70524  1.0000 -0.0835305478
C   C41       1.0  0.13570  0.67531  0.64921  1.0000 -0.0281577761
C   C42       1.0  0.20980  0.63450  0.62220  1.0000 -0.0835305478
C   C43       1.0  0.32398  0.52265  0.62552  1.0000 0.6003916574
C   C44       1.0  0.06110  0.52957  0.79207  1.0000 0.5903962341
C   C45       1.0  0.10940  0.75746  0.62115  1.0000 0.5613187787
C   C46       1.0  0.26226  0.43848  0.15156  1.0000 -0.0281577761
C   C47       1.0  0.30964  0.47330  0.20635  1.0000 -0.0968203589
C   C48       1.0  0.38719  0.43419  0.23305  1.0000 -0.042981344
C   C49       1.0  0.41230  0.35891  0.20524  1.0000 -0.0835305478
C   C50       1.0  0.36430  0.32469  0.14921  1.0000 -0.0281577761
C   C51       1.0  0.29020  0.36550  0.12220  1.0000 -0.0835305478
C   C52       1.0  0.17602  0.47735  0.12552  1.0000 0.6003916574
C   C53       1.0  0.43890  0.47043  0.29207  1.0000 0.5903962341
C   C54       1.0  0.39060  0.24254  0.12115  1.0000 0.5613187787
C   C55       1.0  0.76226  0.06152  0.84844  1.0000 -0.0281577761
C   C56       1.0  0.80964  0.02670  0.79365  1.0000 -0.0968203589
C   C57       1.0  0.88719  0.06581  0.76695  1.0000 -0.042981344
C   C58       1.0  0.91230  0.14109  0.79476  1.0000 -0.0835305478
C   C59       1.0  0.86430  0.17531  0.85079  1.0000 -0.0281577761
C   C60       1.0  0.79020  0.13450  0.87780  1.0000 -0.0835305478
C   C61       1.0  0.67602  0.02265  0.87448  1.0000 0.6003916574
C   C62       1.0  0.93890  0.02957  0.70793  1.0000 0.5903962341
C   C63       1.0  0.89060  0.25746  0.87885  1.0000 0.5613187787
C   C64       1.0  0.73774  0.93848  0.34844  1.0000 -0.0281577761
C   C65       1.0  0.69036  0.97330  0.29365  1.0000 -0.0968203589
C   C66       1.0  0.61281  0.93419  0.26695  1.0000 -0.042981344
C   C67       1.0  0.58770  0.85891  0.29476  1.0000 -0.0835305478
C   C68       1.0  0.63570  0.82469  0.35079  1.0000 -0.0281577761
C   C69       1.0  0.70980  0.86550  0.37780  1.0000 -0.0835305478
C   C70       1.0  0.82398  0.97735  0.37448  1.0000 0.6003916574
C   C71       1.0  0.56110  0.97043  0.20793  1.0000 0.5903962341
C   C72       1.0  0.60940  0.74254  0.37885  1.0000 0.5613187787
O   O1        1.0  0.63516  0.44267  0.42343  1.0000 -0.5556140679
O   O2        1.0  0.65003  0.54243  0.34432  1.0000 -0.5307319798
O   O3        1.0  0.94953  0.54747  0.20806  1.0000 -0.5307319798
O   O4        1.0  0.97404  0.42206  0.16391  1.0000 -0.5734912443
O   O5        1.0  0.95508  0.20630  0.34728  1.0000 -0.5468922842
O   O6        1.0  0.84485  0.21224  0.42822  1.0000 -0.5307319798
O   O7        1.0  0.47156  0.55270  0.44915  1.0000 -0.8422876137
O   O8        1.0  0.86484  0.55733  0.92343  1.0000 -0.5556140679
O   O9        1.0  0.84997  0.45757  0.84432  1.0000 -0.5307319798
O   O10       1.0  0.55047  0.45253  0.70806  1.0000 -0.5307319798
O   O11       1.0  0.52596  0.57794  0.66391  1.0000 -0.5734912443
O   O12       1.0  0.54492  0.79370  0.84728  1.0000 -0.5468922842
O   O13       1.0  0.65515  0.78776  0.92822  1.0000 -0.5307319798
O   O14       1.0  0.02844  0.44730  0.94915  1.0000 -0.8422876137
O   O15       1.0  0.36484  0.94267  0.07657  1.0000 -0.5556140679
O   O16       1.0  0.34997  0.04243  0.15568  1.0000 -0.5307319798
O   O17       1.0  0.05047  0.04747  0.29194  1.0000 -0.5307319798
O   O18       1.0  0.02596  0.92206  0.33609  1.0000 -0.5734912443
O   O19       1.0  0.04492  0.70630  0.15272  1.0000 -0.5468922842
O   O20       1.0  0.15515  0.71224  0.07178  1.0000 -0.5307319798
O   O21       1.0  0.52844  0.05270  0.05085  1.0000 -0.8422876137
O   O22       1.0  0.13516  0.05733  0.57657  1.0000 -0.5556140679
O   O23       1.0  0.15003  0.95757  0.65568  1.0000 -0.5307319798
O   O24       1.0  0.44953  0.95253  0.79194  1.0000 -0.5307319798
O   O25       1.0  0.47404  0.07794  0.83609  1.0000 -0.5734912443
O   O26       1.0  0.45508  0.29370  0.65272  1.0000 -0.5468922842
O   O27       1.0  0.34485  0.28776  0.57178  1.0000 -0.5307319798
O   O28       1.0  0.97156  0.94730  0.55085  1.0000 -0.8422876137
O   O29       1.0  0.36484  0.55733  0.57657  1.0000 -0.5556140679
O   O30       1.0  0.34997  0.45757  0.65568  1.0000 -0.5307319798
O   O31       1.0  0.05047  0.45253  0.79194  1.0000 -0.5307319798
O   O32       1.0  0.02596  0.57794  0.83609  1.0000 -0.5734912443
O   O33       1.0  0.04492  0.79370  0.65272  1.0000 -0.5468922842
O   O34       1.0  0.15515  0.78776  0.57178  1.0000 -0.5307319798
O   O35       1.0  0.52844  0.44730  0.55085  1.0000 -0.8422876137
O   O36       1.0  0.13516  0.44267  0.07657  1.0000 -0.5556140679
O   O37       1.0  0.15003  0.54243  0.15568  1.0000 -0.5307319798
O   O38       1.0  0.44953  0.54747  0.29194  1.0000 -0.5307319798
O   O39       1.0  0.47404  0.42206  0.33609  1.0000 -0.5734912443
O   O40       1.0  0.45508  0.20630  0.15272  1.0000 -0.5468922842
O   O41       1.0  0.34485  0.21224  0.07178  1.0000 -0.5307319798
O   O42       1.0  0.97156  0.55270  0.05085  1.0000 -0.8422876137
O   O43       1.0  0.63516  0.05733  0.92343  1.0000 -0.5556140679
O   O44       1.0  0.65003  0.95757  0.84432  1.0000 -0.5307319798
O   O45       1.0  0.94953  0.95253  0.70806  1.0000 -0.5307319798
O   O46       1.0  0.97404  0.07794  0.66391  1.0000 -0.5734912443
O   O47       1.0  0.95508  0.29370  0.84728  1.0000 -0.5468922842
O   O48       1.0  0.84485  0.28776  0.92822  1.0000 -0.5307319798
O   O49       1.0  0.47156  0.94730  0.94915  1.0000 -0.8422876137
O   O50       1.0  0.86484  0.94267  0.42343  1.0000 -0.5556140679
O   O51       1.0  0.84997  0.04243  0.34432  1.0000 -0.5307319798
O   O52       1.0  0.55047  0.04747  0.20806  1.0000 -0.5307319798
O   O53       1.0  0.52596  0.92206  0.16391  1.0000 -0.5734912443
O   O54       1.0  0.54492  0.70630  0.34728  1.0000 -0.5468922842
O   O55       1.0  0.65515  0.71224  0.42822  1.0000 -0.5307319798
O   O56       1.0  0.02844  0.05270  0.44915  1.0000 -0.8422876137
