# DDEC6 charges by PACMAN v1.1 (https://github.com/mtap-research/PACMAN-charge/)
data_2019[Cu][bto]3[ASR]15
_chemical_formula_sum              "Cu6 H36 C42 N18 O18"
_cell_length_a       10.175
_cell_length_b       10.175
_cell_length_c       16.621
_cell_angle_alpha    90
_cell_angle_beta     90
_cell_angle_gamma    120

_symmetry_space_group_name_H-M    "P 1"
_symmetry_Int_Tables_number       1

loop_
  _symmetry_equiv_pos_as_xyz
  'x, y, z'

loop_
  _atom_site_type_symbol
  _atom_site_label
  _atom_site_symmetry_multiplicity
  _atom_site_fract_x
  _atom_site_fract_y
  _atom_site_fract_z
  _atom_site_occupancy
  _atom_site_charge
Cu  Cu1       1.0  0.40740  0.14866  0.69507  1.0000 0.7342939523
Cu  Cu2       1.0  0.74126  0.59260  0.36173  1.0000 0.7342939523
Cu  Cu3       1.0  0.85134  0.25874  0.02840  1.0000 0.7342939523
Cu  Cu4       1.0  0.25874  0.85134  0.97160  1.0000 0.7342939523
Cu  Cu5       1.0  0.14866  0.40740  0.30494  1.0000 0.7342939523
Cu  Cu6       1.0  0.59260  0.74126  0.63827  1.0000 0.7342939523
H   H1        1.0  0.46260  0.11870  0.40424  1.0000 0.2995625583
H   H2        1.0  0.53200  0.27590  0.52004  1.0000 0.118965253
H   H3        1.0  0.26500  0.85870  0.43644  1.0000 0.1361109165
H   H4        1.0  0.11850  0.72600  0.57283  1.0000 0.1278549132
H   H5        1.0  0.08420  0.84670  0.61513  1.0000 0.1278549132
H   H6        1.0  0.13820  0.71560  0.71413  1.0000 0.0915386674
H   H7        1.0  0.65610  0.53740  0.07090  1.0000 0.2995625583
H   H8        1.0  0.74390  0.46800  0.18670  1.0000 0.118965253
H   H9        1.0  0.59370  0.73500  0.10310  1.0000 0.1361109165
H   H10       1.0  0.60750  0.88150  0.23950  1.0000 0.1278549132
H   H11       1.0  0.76250  0.91580  0.28180  1.0000 0.1278549132
H   H12       1.0  0.57740  0.86180  0.38080  1.0000 0.0915386674
H   H13       1.0  0.88130  0.34390  0.73757  1.0000 0.2995625583
H   H14       1.0  0.72410  0.25610  0.85337  1.0000 0.118965253
H   H15       1.0  0.14130  0.40630  0.76977  1.0000 0.1361109165
H   H16       1.0  0.27400  0.39250  0.90617  1.0000 0.1278549132
H   H17       1.0  0.15330  0.23750  0.94847  1.0000 0.1278549132
H   H18       1.0  0.28440  0.42260  0.04747  1.0000 0.0915386674
H   H19       1.0  0.34390  0.88130  0.26243  1.0000 0.2995625583
H   H20       1.0  0.25610  0.72410  0.14663  1.0000 0.118965253
H   H21       1.0  0.40630  0.14130  0.23023  1.0000 0.1361109165
H   H22       1.0  0.39250  0.27400  0.09383  1.0000 0.1278549132
H   H23       1.0  0.23750  0.15330  0.05153  1.0000 0.1278549132
H   H24       1.0  0.42260  0.28440  0.95253  1.0000 0.0915386674
H   H25       1.0  0.11870  0.46260  0.59576  1.0000 0.2995625583
H   H26       1.0  0.27590  0.53200  0.47996  1.0000 0.118965253
H   H27       1.0  0.85870  0.26500  0.56356  1.0000 0.1361109165
H   H28       1.0  0.72600  0.11850  0.42717  1.0000 0.1278549132
H   H29       1.0  0.84670  0.08420  0.38487  1.0000 0.1278549132
H   H30       1.0  0.71560  0.13820  0.28586  1.0000 0.0915386674
H   H31       1.0  0.53740  0.65610  0.92910  1.0000 0.2995625583
H   H32       1.0  0.46800  0.74390  0.81330  1.0000 0.118965253
H   H33       1.0  0.73500  0.59370  0.89690  1.0000 0.1361109165
H   H34       1.0  0.88150  0.60750  0.76050  1.0000 0.1278549132
H   H35       1.0  0.91580  0.76250  0.71820  1.0000 0.1278549132
H   H36       1.0  0.86180  0.57740  0.61920  1.0000 0.0915386674
C   C1        1.0  0.34140  0.74650  0.66804  1.0000 0.5439479796
C   C2        1.0  0.28900  0.92580  0.81083  1.0000 0.3497899272
C   C3        1.0  0.45700  0.17140  0.51773  1.0000 0.1740584123
C   C4        1.0  0.31190  0.94370  0.47153  1.0000 -0.1122237992
C   C5        1.0  0.28260  0.94620  0.55093  1.0000 0.1771726059
C   C6        1.0  0.16520  0.82250  0.60344  1.0000 -0.2877939843
C   C7        1.0  0.22550  0.79800  0.68393  1.0000 0.0262747404
C   C8        1.0  0.40510  0.65860  0.33470  1.0000 0.5439479796
C   C9        1.0  0.63680  0.71100  0.47750  1.0000 0.3497899272
C   C10       1.0  0.71440  0.54300  0.18440  1.0000 0.1740584123
C   C11       1.0  0.63180  0.68810  0.13820  1.0000 -0.1122237992
C   C12       1.0  0.66360  0.71740  0.21760  1.0000 0.1771726059
C   C13       1.0  0.65730  0.83480  0.27010  1.0000 -0.2877939843
C   C14       1.0  0.57250  0.77450  0.35060  1.0000 0.0262747404
C   C15       1.0  0.25350  0.59490  0.00137  1.0000 0.5439479796
C   C16       1.0  0.07420  0.36320  0.14417  1.0000 0.3497899272
C   C17       1.0  0.82860  0.28560  0.85107  1.0000 0.1740584123
C   C18       1.0  0.05630  0.36820  0.80487  1.0000 -0.1122237992
C   C19       1.0  0.05380  0.33640  0.88427  1.0000 0.1771726059
C   C20       1.0  0.17750  0.34270  0.93677  1.0000 -0.2877939843
C   C21       1.0  0.20200  0.42750  0.01727  1.0000 0.0262747404
C   C22       1.0  0.59490  0.25350  0.99863  1.0000 0.5439479796
C   C23       1.0  0.36320  0.07420  0.85583  1.0000 0.3497899272
C   C24       1.0  0.28560  0.82860  0.14893  1.0000 0.1740584123
C   C25       1.0  0.36820  0.05630  0.19513  1.0000 -0.1122237992
C   C26       1.0  0.33640  0.05380  0.11573  1.0000 0.1771726059
C   C27       1.0  0.34270  0.17750  0.06323  1.0000 -0.2877939843
C   C28       1.0  0.42750  0.20200  0.98273  1.0000 0.0262747404
C   C29       1.0  0.74650  0.34140  0.33197  1.0000 0.5439479796
C   C30       1.0  0.92580  0.28900  0.18917  1.0000 0.3497899272
C   C31       1.0  0.17140  0.45700  0.48226  1.0000 0.1740584123
C   C32       1.0  0.94370  0.31190  0.52846  1.0000 -0.1122237992
C   C33       1.0  0.94620  0.28260  0.44906  1.0000 0.1771726059
C   C34       1.0  0.82250  0.16520  0.39657  1.0000 -0.2877939843
C   C35       1.0  0.79800  0.22550  0.31606  1.0000 0.0262747404
C   C36       1.0  0.65860  0.40510  0.66530  1.0000 0.5439479796
C   C37       1.0  0.71100  0.63680  0.52250  1.0000 0.3497899272
C   C38       1.0  0.54300  0.71440  0.81560  1.0000 0.1740584123
C   C39       1.0  0.68810  0.63180  0.86180  1.0000 -0.1122237992
C   C40       1.0  0.71740  0.66360  0.78240  1.0000 0.1771726059
C   C41       1.0  0.83480  0.65730  0.72990  1.0000 -0.2877939843
C   C42       1.0  0.77450  0.57250  0.64940  1.0000 0.0262747404
N   N1        1.0  0.29040  0.93760  0.73303  1.0000 -0.4143958541
N   N2        1.0  0.37330  0.09050  0.58074  1.0000 -0.3632957094
N   N3        1.0  0.42200  0.08740  0.45214  1.0000 -0.1830982568
N   N4        1.0  0.64720  0.70960  0.39970  1.0000 -0.4143958541
N   N5        1.0  0.71720  0.62670  0.24740  1.0000 -0.3632957094
N   N6        1.0  0.66540  0.57800  0.11880  1.0000 -0.1830982568
N   N7        1.0  0.06240  0.35280  0.06637  1.0000 -0.4143958541
N   N8        1.0  0.90950  0.28280  0.91407  1.0000 -0.3632957094
N   N9        1.0  0.91260  0.33460  0.78547  1.0000 -0.1830982568
N   N10       1.0  0.35280  0.06240  0.93363  1.0000 -0.4143958541
N   N11       1.0  0.28280  0.90950  0.08593  1.0000 -0.3632957094
N   N12       1.0  0.33460  0.91260  0.21453  1.0000 -0.1830982568
N   N13       1.0  0.93760  0.29040  0.26697  1.0000 -0.4143958541
N   N14       1.0  0.09050  0.37330  0.41926  1.0000 -0.3632957094
N   N15       1.0  0.08740  0.42200  0.54787  1.0000 -0.1830982568
N   N16       1.0  0.70960  0.64720  0.60030  1.0000 -0.4143958541
N   N17       1.0  0.62670  0.71720  0.75260  1.0000 -0.3632957094
N   N18       1.0  0.57800  0.66540  0.88120  1.0000 -0.1830982568
O   O1        1.0  0.48040  0.84590  0.66534  1.0000 -0.4898186874
O   O2        1.0  0.29210  0.60860  0.65624  1.0000 -0.5765487405
O   O3        1.0  0.23310  0.80370  0.85364  1.0000 -0.4802498075
O   O4        1.0  0.36550  0.51960  0.33200  1.0000 -0.4898186874
O   O5        1.0  0.31650  0.70790  0.32290  1.0000 -0.5765487405
O   O6        1.0  0.57060  0.76690  0.52030  1.0000 -0.4802498075
O   O7        1.0  0.15410  0.63450  0.99867  1.0000 -0.4898186874
O   O8        1.0  0.39140  0.68350  0.98957  1.0000 -0.5765487405
O   O9        1.0  0.19630  0.42940  0.18697  1.0000 -0.4802498075
O   O10       1.0  0.63450  0.15410  0.00133  1.0000 -0.4898186874
O   O11       1.0  0.68350  0.39140  0.01043  1.0000 -0.5765487405
O   O12       1.0  0.42940  0.19630  0.81303  1.0000 -0.4802498075
O   O13       1.0  0.84590  0.48040  0.33466  1.0000 -0.4898186874
O   O14       1.0  0.60860  0.29210  0.34376  1.0000 -0.5765487405
O   O15       1.0  0.80370  0.23310  0.14636  1.0000 -0.4802498075
O   O16       1.0  0.51960  0.36550  0.66800  1.0000 -0.4898186874
O   O17       1.0  0.70790  0.31650  0.67710  1.0000 -0.5765487405
O   O18       1.0  0.76690  0.57060  0.47970  1.0000 -0.4802498075
