# DDEC6 charges by PACMAN v1.1 (https://github.com/mtap-research/PACMAN-charge/)
data_2019[Er][nan]3[ASR]3
_chemical_formula_sum              "Er6 H144 C252 N18 O36"
_cell_length_a       23.4807
_cell_length_b       23.4807
_cell_length_c       20.1715
_cell_angle_alpha    90
_cell_angle_beta     90
_cell_angle_gamma    119.023

_symmetry_space_group_name_H-M    "P 1"
_symmetry_Int_Tables_number       1

loop_
  _symmetry_equiv_pos_as_xyz
  'x, y, z'

loop_
  _atom_site_type_symbol
  _atom_site_label
  _atom_site_symmetry_multiplicity
  _atom_site_fract_x
  _atom_site_fract_y
  _atom_site_fract_z
  _atom_site_occupancy
  _atom_site_charge
Er  Er1       1.0  0.58922  0.47626  0.66242  1.0000 2.0901328455
Er  Er2       1.0  0.41078  0.52374  0.16242  1.0000 2.0901328455
Er  Er3       1.0  0.52374  0.41078  0.83758  1.0000 2.0901328455
Er  Er4       1.0  0.47626  0.58922  0.33758  1.0000 2.0901328455
Er  Er5       1.0  0.58475  0.58475  0.50000  1.0000 2.0492170584
Er  Er6       1.0  0.41525  0.41525  0.00000  1.0000 2.0492170584
H   H1        1.0  0.78550  0.60330  0.63810  1.0000 0.1189143585
H   H2        1.0  0.89740  0.67060  0.63610  1.0000 0.1189143585
H   H3        1.0  0.87040  0.81520  0.57060  1.0000 0.1189143585
H   H4        1.0  0.76220  0.74420  0.55840  1.0000 0.1295711252
H   H5        1.0  0.99130  0.72670  0.63130  1.0000 0.1119765461
H   H6        1.0  0.09950  0.78070  0.60560  1.0000 0.1189143585
H   H7        1.0  0.08160  0.93320  0.55670  1.0000 0.1189143585
H   H8        1.0  0.97140  0.87340  0.57180  1.0000 0.1119765461
H   H9        1.0  0.35190  0.36710  0.38790  1.0000 0.1295711252
H   H10       1.0  0.30530  0.26010  0.42340  1.0000 0.1119765461
H   H11       1.0  0.47030  0.29370  0.51060  1.0000 0.1189143585
H   H12       1.0  0.51880  0.40180  0.47590  1.0000 0.1295711252
H   H13       1.0  0.26310  0.18370  0.51070  1.0000 0.1189143585
H   H14       1.0  0.21490  0.07610  0.53820  1.0000 0.1189143585
H   H15       1.0  0.38540  0.07860  0.51150  1.0000 0.1189143585
H   H16       1.0  0.43160  0.18600  0.47850  1.0000 0.1189143585
H   H17       1.0  0.54900  0.76520  0.55510  1.0000 0.1295711252
H   H18       1.0  0.49590  0.82530  0.56920  1.0000 0.1189143585
H   H19       1.0  0.33250  0.67670  0.49290  1.0000 0.1189143585
H   H20       1.0  0.39050  0.62290  0.46620  1.0000 0.1295711252
H   H21       1.0  0.45040  0.88600  0.52430  1.0000 0.1119765461
H   H22       1.0  0.39430  0.94270  0.53460  1.0000 0.1295711252
H   H23       1.0  0.23050  0.77770  0.57450  1.0000 0.1189143585
H   H24       1.0  0.28480  0.71980  0.55930  1.0000 0.1119765461
H   H25       1.0  0.40840  0.51140  0.83740  1.0000 0.1354801934
H   H26       1.0  0.35270  0.57010  0.83810  1.0000 0.1119765461
H   H27       1.0  0.26710  0.58410  0.79300  1.0000 0.1189143585
H   H28       1.0  0.21010  0.64010  0.79500  1.0000 0.1189143585
H   H29       1.0  0.39560  0.26940  0.72920  1.0000 0.1295711252
H   H30       1.0  0.32700  0.15820  0.72880  1.0000 0.1119765461
H   H31       1.0  0.46730  0.13250  0.64640  1.0000 0.1189143585
H   H32       1.0  0.53120  0.24320  0.63640  1.0000 0.1189143585
H   H33       1.0  0.26210  0.05270  0.70160  1.0000 0.1189143585
H   H34       1.0  0.20180  0.94260  0.72310  1.0000 0.1189143585
H   H35       1.0  0.36270  0.92790  0.71980  1.0000 0.1189143585
H   H36       1.0  0.42380  0.03900  0.70510  1.0000 0.1119765461
H   H37       1.0  0.21450  0.39670  0.13810  1.0000 0.1189143585
H   H38       1.0  0.10260  0.32940  0.13610  1.0000 0.1189143585
H   H39       1.0  0.12960  0.18480  0.07060  1.0000 0.1189143585
H   H40       1.0  0.23780  0.25580  0.05840  1.0000 0.1295711252
H   H41       1.0  0.00870  0.27330  0.13130  1.0000 0.1119765461
H   H42       1.0  0.90050  0.21930  0.10560  1.0000 0.1189143585
H   H43       1.0  0.91840  0.06680  0.05670  1.0000 0.1189143585
H   H44       1.0  0.02860  0.12660  0.07180  1.0000 0.1189143585
H   H45       1.0  0.64810  0.63290  0.88790  1.0000 0.1295711252
H   H46       1.0  0.69470  0.73990  0.92340  1.0000 0.1119765461
H   H47       1.0  0.52970  0.70630  0.01060  1.0000 0.1189143585
H   H48       1.0  0.48120  0.59820  0.97590  1.0000 0.1295711252
H   H49       1.0  0.73690  0.81630  0.01070  1.0000 0.1189143585
H   H50       1.0  0.78510  0.92390  0.03820  1.0000 0.1189143585
H   H51       1.0  0.61460  0.92140  0.01150  1.0000 0.1189143585
H   H52       1.0  0.56840  0.81400  0.97850  1.0000 0.1189143585
H   H53       1.0  0.45100  0.23480  0.05510  1.0000 0.1295711252
H   H54       1.0  0.50410  0.17470  0.06920  1.0000 0.1189143585
H   H55       1.0  0.66750  0.32330  0.99290  1.0000 0.1189143585
H   H56       1.0  0.60950  0.37710  0.96620  1.0000 0.1295711252
H   H57       1.0  0.54960  0.11400  0.02430  1.0000 0.1119765461
H   H58       1.0  0.60570  0.05730  0.03460  1.0000 0.1295711252
H   H59       1.0  0.76950  0.22230  0.07450  1.0000 0.1189143585
H   H60       1.0  0.71520  0.28020  0.05930  1.0000 0.1119765461
H   H61       1.0  0.59160  0.48860  0.33740  1.0000 0.1354801934
H   H62       1.0  0.64730  0.42990  0.33810  1.0000 0.1119765461
H   H63       1.0  0.73290  0.41590  0.29300  1.0000 0.1189143585
H   H64       1.0  0.78990  0.35990  0.29500  1.0000 0.1189143585
H   H65       1.0  0.60440  0.73060  0.22920  1.0000 0.1295711252
H   H66       1.0  0.67300  0.84180  0.22880  1.0000 0.1119765461
H   H67       1.0  0.53270  0.86750  0.14640  1.0000 0.1189143585
H   H68       1.0  0.46880  0.75680  0.13640  1.0000 0.1189143585
H   H69       1.0  0.73790  0.94730  0.20160  1.0000 0.1189143585
H   H70       1.0  0.79820  0.05740  0.22310  1.0000 0.1189143585
H   H71       1.0  0.63730  0.07210  0.21980  1.0000 0.1189143585
H   H72       1.0  0.57620  0.96100  0.20510  1.0000 0.1119765461
H   H73       1.0  0.39670  0.21450  0.86190  1.0000 0.1189143585
H   H74       1.0  0.32940  0.10260  0.86390  1.0000 0.1189143585
H   H75       1.0  0.18480  0.12960  0.92940  1.0000 0.1189143585
H   H76       1.0  0.25580  0.23780  0.94160  1.0000 0.1295711252
H   H77       1.0  0.27330  0.00870  0.86870  1.0000 0.1119765461
H   H78       1.0  0.21930  0.90050  0.89440  1.0000 0.1189143585
H   H79       1.0  0.06680  0.91840  0.94330  1.0000 0.1189143585
H   H80       1.0  0.12660  0.02860  0.92820  1.0000 0.1189143585
H   H81       1.0  0.63290  0.64810  0.11210  1.0000 0.1295711252
H   H82       1.0  0.73990  0.69470  0.07660  1.0000 0.1119765461
H   H83       1.0  0.70630  0.52970  0.98940  1.0000 0.1189143585
H   H84       1.0  0.59820  0.48120  0.02410  1.0000 0.1295711252
H   H85       1.0  0.81630  0.73690  0.98930  1.0000 0.1189143585
H   H86       1.0  0.92390  0.78510  0.96180  1.0000 0.1189143585
H   H87       1.0  0.92140  0.61460  0.98850  1.0000 0.1189143585
H   H88       1.0  0.81400  0.56840  0.02150  1.0000 0.1189143585
H   H89       1.0  0.23480  0.45100  0.94490  1.0000 0.1295711252
H   H90       1.0  0.17470  0.50410  0.93080  1.0000 0.1189143585
H   H91       1.0  0.32330  0.66750  0.00710  1.0000 0.1189143585
H   H92       1.0  0.37710  0.60950  0.03380  1.0000 0.1295711252
H   H93       1.0  0.11400  0.54960  0.97570  1.0000 0.1119765461
H   H94       1.0  0.05730  0.60570  0.96540  1.0000 0.1295711252
H   H95       1.0  0.22230  0.76950  0.92550  1.0000 0.1189143585
H   H96       1.0  0.28020  0.71520  0.94070  1.0000 0.1119765461
H   H97       1.0  0.48860  0.59160  0.66260  1.0000 0.1354801934
H   H98       1.0  0.42990  0.64730  0.66190  1.0000 0.1119765461
H   H99       1.0  0.41590  0.73290  0.70700  1.0000 0.1189143585
H   H100      1.0  0.35990  0.78990  0.70500  1.0000 0.1189143585
H   H101      1.0  0.73060  0.60440  0.77080  1.0000 0.1295711252
H   H102      1.0  0.84180  0.67300  0.77120  1.0000 0.1119765461
H   H103      1.0  0.86750  0.53270  0.85360  1.0000 0.1189143585
H   H104      1.0  0.75680  0.46880  0.86360  1.0000 0.1189143585
H   H105      1.0  0.94730  0.73790  0.79840  1.0000 0.1189143585
H   H106      1.0  0.05740  0.79820  0.77690  1.0000 0.1189143585
H   H107      1.0  0.07210  0.63730  0.78020  1.0000 0.1189143585
H   H108      1.0  0.96100  0.57620  0.79490  1.0000 0.1119765461
H   H109      1.0  0.60330  0.78550  0.36190  1.0000 0.1189143585
H   H110      1.0  0.67060  0.89740  0.36390  1.0000 0.1189143585
H   H111      1.0  0.81520  0.87040  0.42940  1.0000 0.1189143585
H   H112      1.0  0.74420  0.76220  0.44160  1.0000 0.1295711252
H   H113      1.0  0.72670  0.99130  0.36870  1.0000 0.1119765461
H   H114      1.0  0.78070  0.09950  0.39440  1.0000 0.1189143585
H   H115      1.0  0.93320  0.08160  0.44330  1.0000 0.1189143585
H   H116      1.0  0.87340  0.97140  0.42820  1.0000 0.1189143585
H   H117      1.0  0.36710  0.35190  0.61210  1.0000 0.1295711252
H   H118      1.0  0.26010  0.30530  0.57660  1.0000 0.1119765461
H   H119      1.0  0.29370  0.47030  0.48940  1.0000 0.1189143585
H   H120      1.0  0.40180  0.51880  0.52410  1.0000 0.1295711252
H   H121      1.0  0.18370  0.26310  0.48930  1.0000 0.1189143585
H   H122      1.0  0.07610  0.21490  0.46180  1.0000 0.1189143585
H   H123      1.0  0.07860  0.38540  0.48850  1.0000 0.1189143585
H   H124      1.0  0.18600  0.43160  0.52150  1.0000 0.1189143585
H   H125      1.0  0.76520  0.54900  0.44490  1.0000 0.1295711252
H   H126      1.0  0.82530  0.49590  0.43080  1.0000 0.1189143585
H   H127      1.0  0.67670  0.33250  0.50710  1.0000 0.1189143585
H   H128      1.0  0.62290  0.39050  0.53380  1.0000 0.1295711252
H   H129      1.0  0.88600  0.45040  0.47570  1.0000 0.1119765461
H   H130      1.0  0.94270  0.39430  0.46540  1.0000 0.1295711252
H   H131      1.0  0.77770  0.23050  0.42550  1.0000 0.1189143585
H   H132      1.0  0.71980  0.28480  0.44070  1.0000 0.1119765461
H   H133      1.0  0.51140  0.40840  0.16260  1.0000 0.1354801934
H   H134      1.0  0.57010  0.35270  0.16190  1.0000 0.1119765461
H   H135      1.0  0.58410  0.26710  0.20700  1.0000 0.1189143585
H   H136      1.0  0.64010  0.21010  0.20500  1.0000 0.1189143585
H   H137      1.0  0.26940  0.39560  0.27080  1.0000 0.1295711252
H   H138      1.0  0.15820  0.32700  0.27120  1.0000 0.1119765461
H   H139      1.0  0.13250  0.46730  0.35360  1.0000 0.1189143585
H   H140      1.0  0.24320  0.53120  0.36360  1.0000 0.1189143585
H   H141      1.0  0.05270  0.26210  0.29840  1.0000 0.1189143585
H   H142      1.0  0.94260  0.20180  0.27690  1.0000 0.1189143585
H   H143      1.0  0.92790  0.36270  0.28020  1.0000 0.1189143585
H   H144      1.0  0.03900  0.42380  0.29490  1.0000 0.1119765461
C   C1        1.0  0.69006  0.62754  0.61710  1.0000 0.6403805148
C   C2        1.0  0.76180  0.67100  0.61280  1.0000 -0.0374999624
C   C3        1.0  0.80260  0.64680  0.62640  1.0000 -0.0921084653
C   C4        1.0  0.87010  0.68690  0.62310  1.0000 -0.1604387853
C   C5        1.0  0.89680  0.75000  0.60080  1.0000 0.0810257816
C   C6        1.0  0.85400  0.77180  0.58230  1.0000 -0.1498132292
C   C7        1.0  0.78900  0.73160  0.58080  1.0000 -0.0921084653
C   C8        1.0  0.96890  0.78870  0.59420  1.0000 0.0695760761
C   C9        1.0  0.00850  0.76710  0.61080  1.0000 -0.1429020446
C   C10       1.0  0.07500  0.80160  0.59960  1.0000 -0.1012006429
C   C11       1.0  0.10460  0.86320  0.58060  1.0000 0.0110883259
C   C12       1.0  0.06350  0.88990  0.56970  1.0000 -0.1158993822
C   C13       1.0  0.99730  0.85390  0.57760  1.0000 -0.1604387853
C   C14       1.0  0.46788  0.46592  0.41290  1.0000 0.6307512653
C   C15       1.0  0.43985  0.39575  0.43090  1.0000 -0.0348258037
C   C16       1.0  0.37590  0.35290  0.41300  1.0000 -0.0921084653
C   C17       1.0  0.34860  0.28860  0.43370  1.0000 -0.1498132292
C   C18       1.0  0.38290  0.26550  0.46840  1.0000 0.0695760761
C   C19       1.0  0.44653  0.30827  0.48560  1.0000 -0.1337927748
C   C20       1.0  0.47550  0.37350  0.46560  1.0000 -0.0773631204
C   C21       1.0  0.35330  0.19750  0.49190  1.0000 0.0695760761
C   C22       1.0  0.28777  0.16243  0.50980  1.0000 -0.1604387853
C   C23       1.0  0.25860  0.09780  0.52610  1.0000 -0.1012006429
C   C24       1.0  0.29384  0.06396  0.52470  1.0000 0.0033150255
C   C25       1.0  0.35985  0.09895  0.50950  1.0000 -0.1012006429
C   C26       1.0  0.38800  0.16420  0.49140  1.0000 -0.1498132292
C   C27       1.0  0.51398  0.65502  0.49500  1.0000 0.5946806353
C   C28       1.0  0.47377  0.68883  0.50720  1.0000 -0.0179314795
C   C29       1.0  0.50650  0.74930  0.54020  1.0000 -0.1012006429
C   C30       1.0  0.47440  0.78420  0.54980  1.0000 -0.1604387853
C   C31       1.0  0.40845  0.75795  0.53010  1.0000 0.0695760761
C   C32       1.0  0.37678  0.69602  0.50230  1.0000 -0.1498132292
C   C33       1.0  0.41082  0.66258  0.48820  1.0000 -0.1012006429
C   C34       1.0  0.37504  0.79676  0.54160  1.0000 0.063161958
C   C35       1.0  0.40610  0.86370  0.53370  1.0000 -0.1498132292
C   C36       1.0  0.37220  0.89760  0.53970  1.0000 -0.1115876959
C   C37       1.0  0.30700  0.86660  0.55290  1.0000 0.0110883259
C   C38       1.0  0.27430  0.79910  0.56280  1.0000 -0.1012006429
C   C39       1.0  0.30730  0.76490  0.55530  1.0000 -0.1498132292
C   C40       1.0  0.17410  0.90110  0.56790  1.0000 0.359002203
C   C41       1.0  0.26450  0.99510  0.54170  1.0000 0.349532215
C   C42       1.0  0.27030  0.90290  0.55680  1.0000 0.359002203
C   C43       1.0  0.41325  0.53915  0.80240  1.0000 -0.0921084653
C   C44       1.0  0.37951  0.57409  0.80240  1.0000 -0.1498132292
C   C45       1.0  0.28626  0.62594  0.77560  1.0000 -0.1498132292
C   C46       1.0  0.25158  0.65922  0.77650  1.0000 -0.1115876959
C   C47       1.0  0.51513  0.33907  0.68100  1.0000 0.6207509619
C   C48       1.0  0.47048  0.26812  0.68350  1.0000 -0.0374999624
C   C49       1.0  0.40990  0.24210  0.71130  1.0000 -0.0921084653
C   C50       1.0  0.36940  0.17460  0.71310  1.0000 -0.1604387853
C   C51       1.0  0.39000  0.13160  0.69230  1.0000 0.0810257816
C   C52       1.0  0.45210  0.15970  0.66280  1.0000 -0.1668513585
C   C53       1.0  0.49100  0.22620  0.65750  1.0000 -0.1012006429
C   C54       1.0  0.34950  0.06010  0.70230  1.0000 0.063161958
C   C55       1.0  0.28378  0.02882  0.70700  1.0000 -0.1498132292
C   C56       1.0  0.24699  0.96201  0.71960  1.0000 -0.1115876959
C   C57       1.0  0.27767  0.92453  0.72700  1.0000 0.0224238085
C   C58       1.0  0.34200  0.95300  0.71870  1.0000 -0.1115876959
C   C59       1.0  0.37880  0.02020  0.70820  1.0000 -0.1498132292
C   C60       1.0  0.23986  0.85194  0.73890  1.0000 0.359002203
C   C61       1.0  0.30994  0.37246  0.11710  1.0000 0.6403805148
C   C62       1.0  0.23820  0.32900  0.11280  1.0000 -0.0374999624
C   C63       1.0  0.19740  0.35320  0.12640  1.0000 -0.0921084653
C   C64       1.0  0.12990  0.31310  0.12310  1.0000 -0.1604387853
C   C65       1.0  0.10320  0.25000  0.10080  1.0000 0.0850955304
C   C66       1.0  0.14600  0.22820  0.08230  1.0000 -0.1498132292
C   C67       1.0  0.21100  0.26840  0.08080  1.0000 -0.0921084653
C   C68       1.0  0.03110  0.21130  0.09420  1.0000 0.0695760761
C   C69       1.0  0.99150  0.23290  0.11080  1.0000 -0.1429020446
C   C70       1.0  0.92500  0.19840  0.09960  1.0000 -0.1012006429
C   C71       1.0  0.89540  0.13680  0.08060  1.0000 0.0110883259
C   C72       1.0  0.93650  0.11010  0.06970  1.0000 -0.1158993822
C   C73       1.0  0.00270  0.14610  0.07760  1.0000 -0.1604387853
C   C74       1.0  0.53212  0.53408  0.91290  1.0000 0.6307512653
C   C75       1.0  0.56015  0.60425  0.93090  1.0000 -0.0348258037
C   C76       1.0  0.62410  0.64710  0.91300  1.0000 -0.0921084653
C   C77       1.0  0.65140  0.71140  0.93370  1.0000 -0.1498132292
C   C78       1.0  0.61710  0.73450  0.96840  1.0000 0.0695760761
C   C79       1.0  0.55347  0.69173  0.98560  1.0000 -0.1337927748
C   C80       1.0  0.52450  0.62650  0.96560  1.0000 -0.0773631204
C   C81       1.0  0.64670  0.80250  0.99190  1.0000 0.0695760761
C   C82       1.0  0.71223  0.83757  0.00980  1.0000 -0.1604387853
C   C83       1.0  0.74140  0.90220  0.02610  1.0000 -0.1012006429
C   C84       1.0  0.70616  0.93604  0.02470  1.0000 0.0033150255
C   C85       1.0  0.64015  0.90105  0.00950  1.0000 -0.1012006429
C   C86       1.0  0.61200  0.83580  0.99140  1.0000 -0.1498132292
C   C87       1.0  0.48602  0.34498  0.99500  1.0000 0.5946806353
C   C88       1.0  0.52623  0.31117  0.00720  1.0000 -0.0179314795
C   C89       1.0  0.49350  0.25070  0.04020  1.0000 -0.1012006429
C   C90       1.0  0.52560  0.21580  0.04980  1.0000 -0.1604387853
C   C91       1.0  0.59155  0.24205  0.03010  1.0000 0.0695760761
C   C92       1.0  0.62322  0.30398  0.00230  1.0000 -0.1498132292
C   C93       1.0  0.58918  0.33742  0.98820  1.0000 -0.1012006429
C   C94       1.0  0.62496  0.20324  0.04160  1.0000 0.063161958
C   C95       1.0  0.59390  0.13630  0.03370  1.0000 -0.1498132292
C   C96       1.0  0.62780  0.10240  0.03970  1.0000 -0.1115876959
C   C97       1.0  0.69300  0.13340  0.05290  1.0000 0.0110883259
C   C98       1.0  0.72570  0.20090  0.06280  1.0000 -0.1012006429
C   C99       1.0  0.69270  0.23510  0.05530  1.0000 -0.1498132292
C   C100      1.0  0.82590  0.09890  0.06790  1.0000 0.359002203
C   C101      1.0  0.73550  0.00490  0.04170  1.0000 0.349532215
C   C102      1.0  0.72970  0.09710  0.05680  1.0000 0.359002203
C   C103      1.0  0.58675  0.46085  0.30240  1.0000 -0.0921084653
C   C104      1.0  0.62049  0.42591  0.30240  1.0000 -0.1498132292
C   C105      1.0  0.71374  0.37406  0.27560  1.0000 -0.1498132292
C   C106      1.0  0.74842  0.34078  0.27650  1.0000 -0.1115876959
C   C107      1.0  0.48487  0.66093  0.18100  1.0000 0.6207509619
C   C108      1.0  0.52952  0.73188  0.18350  1.0000 -0.0374999624
C   C109      1.0  0.59010  0.75790  0.21130  1.0000 -0.0921084653
C   C110      1.0  0.63060  0.82540  0.21310  1.0000 -0.1604387853
C   C111      1.0  0.61000  0.86840  0.19230  1.0000 0.0810257816
C   C112      1.0  0.54790  0.84030  0.16280  1.0000 -0.1668513585
C   C113      1.0  0.50900  0.77380  0.15750  1.0000 -0.1012006429
C   C114      1.0  0.65050  0.93990  0.20230  1.0000 0.063161958
C   C115      1.0  0.71622  0.97118  0.20700  1.0000 -0.1498132292
C   C116      1.0  0.75301  0.03799  0.21960  1.0000 -0.1115876959
C   C117      1.0  0.72233  0.07547  0.22700  1.0000 0.0224238085
C   C118      1.0  0.65800  0.04700  0.21870  1.0000 -0.1115876959
C   C119      1.0  0.62120  0.97980  0.20820  1.0000 -0.1498132292
C   C120      1.0  0.76014  0.14806  0.23890  1.0000 0.359002203
C   C121      1.0  0.37246  0.30994  0.88290  1.0000 0.6403805148
C   C122      1.0  0.32900  0.23820  0.88720  1.0000 -0.0348258037
C   C123      1.0  0.35320  0.19740  0.87360  1.0000 -0.0921084653
C   C124      1.0  0.31310  0.12990  0.87690  1.0000 -0.1604387853
C   C125      1.0  0.25000  0.10320  0.89920  1.0000 0.0810257816
C   C126      1.0  0.22820  0.14600  0.91770  1.0000 -0.1498132292
C   C127      1.0  0.26840  0.21100  0.91920  1.0000 -0.1012006429
C   C128      1.0  0.21130  0.03110  0.90580  1.0000 0.0695760761
C   C129      1.0  0.23290  0.99150  0.88920  1.0000 -0.1429020446
C   C130      1.0  0.19840  0.92500  0.90040  1.0000 -0.1012006429
C   C131      1.0  0.13680  0.89540  0.91940  1.0000 0.0110883259
C   C132      1.0  0.11010  0.93650  0.93030  1.0000 -0.1158993822
C   C133      1.0  0.14610  0.00270  0.92240  1.0000 -0.1604387853
C   C134      1.0  0.53408  0.53212  0.08710  1.0000 0.6307512653
C   C135      1.0  0.60425  0.56015  0.06910  1.0000 -0.0348258037
C   C136      1.0  0.64710  0.62410  0.08700  1.0000 -0.0921084653
C   C137      1.0  0.71140  0.65140  0.06630  1.0000 -0.1498132292
C   C138      1.0  0.73450  0.61710  0.03160  1.0000 0.0695760761
C   C139      1.0  0.69173  0.55347  0.01440  1.0000 -0.1337927748
C   C140      1.0  0.62650  0.52450  0.03440  1.0000 -0.0773631204
C   C141      1.0  0.80250  0.64670  0.00810  1.0000 0.0695760761
C   C142      1.0  0.83757  0.71223  0.99020  1.0000 -0.1604387853
C   C143      1.0  0.90220  0.74140  0.97390  1.0000 -0.1012006429
C   C144      1.0  0.93604  0.70616  0.97530  1.0000 0.0033150255
C   C145      1.0  0.90105  0.64015  0.99050  1.0000 -0.1115876959
C   C146      1.0  0.83580  0.61200  0.00860  1.0000 -0.1498132292
C   C147      1.0  0.34498  0.48602  0.00500  1.0000 0.5946806353
C   C148      1.0  0.31117  0.52623  0.99280  1.0000 -0.0179314795
C   C149      1.0  0.25070  0.49350  0.95980  1.0000 -0.1012006429
C   C150      1.0  0.21580  0.52560  0.95020  1.0000 -0.1604387853
C   C151      1.0  0.24205  0.59155  0.96990  1.0000 0.0695760761
C   C152      1.0  0.30398  0.62322  0.99770  1.0000 -0.1498132292
C   C153      1.0  0.33742  0.58918  0.01180  1.0000 -0.1012006429
C   C154      1.0  0.20324  0.62496  0.95840  1.0000 0.063161958
C   C155      1.0  0.13630  0.59390  0.96630  1.0000 -0.1498132292
C   C156      1.0  0.10240  0.62780  0.96030  1.0000 -0.1115876959
C   C157      1.0  0.13340  0.69300  0.94710  1.0000 0.0110883259
C   C158      1.0  0.20090  0.72570  0.93720  1.0000 -0.1012006429
C   C159      1.0  0.23510  0.69270  0.94470  1.0000 -0.1498132292
C   C160      1.0  0.09890  0.82590  0.93210  1.0000 0.359002203
C   C161      1.0  0.00490  0.73550  0.95830  1.0000 0.349532215
C   C162      1.0  0.09710  0.72970  0.94320  1.0000 0.359002203
C   C163      1.0  0.46085  0.58675  0.69760  1.0000 -0.0921084653
C   C164      1.0  0.42591  0.62049  0.69760  1.0000 -0.1498132292
C   C165      1.0  0.37406  0.71374  0.72440  1.0000 -0.1498132292
C   C166      1.0  0.34078  0.74842  0.72350  1.0000 -0.1115876959
C   C167      1.0  0.66093  0.48487  0.81900  1.0000 0.6207509619
C   C168      1.0  0.73188  0.52952  0.81650  1.0000 -0.0374999624
C   C169      1.0  0.75790  0.59010  0.78870  1.0000 -0.0921084653
C   C170      1.0  0.82540  0.63060  0.78690  1.0000 -0.1604387853
C   C171      1.0  0.86840  0.61000  0.80770  1.0000 0.0810257816
C   C172      1.0  0.84030  0.54790  0.83720  1.0000 -0.1668513585
C   C173      1.0  0.77380  0.50900  0.84250  1.0000 -0.1012006429
C   C174      1.0  0.93990  0.65050  0.79770  1.0000 0.063161958
C   C175      1.0  0.97118  0.71622  0.79300  1.0000 -0.1498132292
C   C176      1.0  0.03799  0.75301  0.78040  1.0000 -0.1115876959
C   C177      1.0  0.07547  0.72233  0.77300  1.0000 0.0224238085
C   C178      1.0  0.04700  0.65800  0.78130  1.0000 -0.1115876959
C   C179      1.0  0.97980  0.62120  0.79180  1.0000 -0.1498132292
C   C180      1.0  0.14806  0.76014  0.76110  1.0000 0.359002203
C   C181      1.0  0.62754  0.69006  0.38290  1.0000 0.6403805148
C   C182      1.0  0.67100  0.76180  0.38720  1.0000 -0.0348258037
C   C183      1.0  0.64680  0.80260  0.37360  1.0000 -0.0921084653
C   C184      1.0  0.68690  0.87010  0.37690  1.0000 -0.1604387853
C   C185      1.0  0.75000  0.89680  0.39920  1.0000 0.0810257816
C   C186      1.0  0.77180  0.85400  0.41770  1.0000 -0.1498132292
C   C187      1.0  0.73160  0.78900  0.41920  1.0000 -0.0921084653
C   C188      1.0  0.78870  0.96890  0.40580  1.0000 0.0695760761
C   C189      1.0  0.76710  0.00850  0.38920  1.0000 -0.1429020446
C   C190      1.0  0.80160  0.07500  0.40040  1.0000 -0.1012006429
C   C191      1.0  0.86320  0.10460  0.41940  1.0000 0.0110883259
C   C192      1.0  0.88990  0.06350  0.43030  1.0000 -0.1158993822
C   C193      1.0  0.85390  0.99730  0.42240  1.0000 -0.1604387853
C   C194      1.0  0.46592  0.46788  0.58710  1.0000 0.6307512653
C   C195      1.0  0.39575  0.43985  0.56910  1.0000 -0.0348258037
C   C196      1.0  0.35290  0.37590  0.58700  1.0000 -0.0921084653
C   C197      1.0  0.28860  0.34860  0.56630  1.0000 -0.1498132292
C   C198      1.0  0.26550  0.38290  0.53160  1.0000 0.0695760761
C   C199      1.0  0.30827  0.44653  0.51440  1.0000 -0.1337927748
C   C200      1.0  0.37350  0.47550  0.53440  1.0000 -0.0773631204
C   C201      1.0  0.19750  0.35330  0.50810  1.0000 0.0695760761
C   C202      1.0  0.16243  0.28777  0.49020  1.0000 -0.1604387853
C   C203      1.0  0.09780  0.25860  0.47390  1.0000 -0.1012006429
C   C204      1.0  0.06396  0.29384  0.47530  1.0000 0.0033150255
C   C205      1.0  0.09895  0.35985  0.49050  1.0000 -0.1012006429
C   C206      1.0  0.16420  0.38800  0.50860  1.0000 -0.1498132292
C   C207      1.0  0.65502  0.51398  0.50500  1.0000 0.5946806353
C   C208      1.0  0.68883  0.47377  0.49280  1.0000 -0.0179314795
C   C209      1.0  0.74930  0.50650  0.45980  1.0000 -0.1012006429
C   C210      1.0  0.78420  0.47440  0.45020  1.0000 -0.1604387853
C   C211      1.0  0.75795  0.40845  0.46990  1.0000 0.0695760761
C   C212      1.0  0.69602  0.37678  0.49770  1.0000 -0.1498132292
C   C213      1.0  0.66258  0.41082  0.51180  1.0000 -0.1012006429
C   C214      1.0  0.79676  0.37504  0.45840  1.0000 0.063161958
C   C215      1.0  0.86370  0.40610  0.46630  1.0000 -0.1498132292
C   C216      1.0  0.89760  0.37220  0.46030  1.0000 -0.1115876959
C   C217      1.0  0.86660  0.30700  0.44710  1.0000 0.0110883259
C   C218      1.0  0.79910  0.27430  0.43720  1.0000 -0.1012006429
C   C219      1.0  0.76490  0.30730  0.44470  1.0000 -0.1498132292
C   C220      1.0  0.90110  0.17410  0.43210  1.0000 0.359002203
C   C221      1.0  0.99510  0.26450  0.45830  1.0000 0.349532215
C   C222      1.0  0.90290  0.27030  0.44320  1.0000 0.359002203
C   C223      1.0  0.53915  0.41325  0.19760  1.0000 -0.0921084653
C   C224      1.0  0.57409  0.37951  0.19760  1.0000 -0.1498132292
C   C225      1.0  0.62594  0.28626  0.22440  1.0000 -0.1498132292
C   C226      1.0  0.65922  0.25158  0.22350  1.0000 -0.1115876959
C   C227      1.0  0.33907  0.51513  0.31900  1.0000 0.6207509619
C   C228      1.0  0.26812  0.47048  0.31650  1.0000 -0.0374999624
C   C229      1.0  0.24210  0.40990  0.28870  1.0000 -0.0921084653
C   C230      1.0  0.17460  0.36940  0.28690  1.0000 -0.1604387853
C   C231      1.0  0.13160  0.39000  0.30770  1.0000 0.0810257816
C   C232      1.0  0.15970  0.45210  0.33720  1.0000 -0.1668513585
C   C233      1.0  0.22620  0.49100  0.34250  1.0000 -0.1012006429
C   C234      1.0  0.06010  0.34950  0.29770  1.0000 0.063161958
C   C235      1.0  0.02882  0.28378  0.29300  1.0000 -0.1498132292
C   C236      1.0  0.96201  0.24699  0.28040  1.0000 -0.1115876959
C   C237      1.0  0.92453  0.27767  0.27300  1.0000 0.0224238085
C   C238      1.0  0.95300  0.34200  0.28130  1.0000 -0.1115876959
C   C239      1.0  0.02020  0.37880  0.29180  1.0000 -0.1498132292
C   C240      1.0  0.85194  0.23986  0.26110  1.0000 0.359002203
C   C241      1.0  0.49140  0.50860  0.75000  1.0000 0.6403805148
C   C242      1.0  0.45400  0.54600  0.75000  1.0000 -0.0179314795
C   C243      1.0  0.38510  0.61490  0.75000  1.0000 0.0695760761
C   C244      1.0  0.34790  0.65210  0.75000  1.0000 0.0695760761
C   C245      1.0  0.27860  0.72140  0.75000  1.0000 0.0224238085
C   C246      1.0  0.24200  0.75800  0.75000  1.0000 0.359002203
C   C247      1.0  0.50860  0.49140  0.25000  1.0000 0.6403805148
C   C248      1.0  0.54600  0.45400  0.25000  1.0000 -0.0179314795
C   C249      1.0  0.61490  0.38510  0.25000  1.0000 0.0695760761
C   C250      1.0  0.65210  0.34790  0.25000  1.0000 0.0695760761
C   C251      1.0  0.72140  0.27860  0.25000  1.0000 0.0224238085
C   C252      1.0  0.75800  0.24200  0.25000  1.0000 0.359002203
N   N1        1.0  0.20028  0.96372  0.55350  1.0000 -0.4100267546
N   N2        1.0  0.30153  0.96607  0.54170  1.0000 -0.4100267546
N   N3        1.0  0.20635  0.86765  0.57020  1.0000 -0.4100267546
N   N4        1.0  0.27531  0.82209  0.73870  1.0000 -0.4100267546
N   N5        1.0  0.79972  0.03628  0.05350  1.0000 -0.4100267546
N   N6        1.0  0.69847  0.03393  0.04170  1.0000 -0.4153060783
N   N7        1.0  0.79365  0.13235  0.07020  1.0000 -0.4100267546
N   N8        1.0  0.72469  0.17791  0.23870  1.0000 -0.4100267546
N   N9        1.0  0.03628  0.79972  0.94650  1.0000 -0.4100267546
N   N10       1.0  0.03393  0.69847  0.95830  1.0000 -0.4100267546
N   N11       1.0  0.13235  0.79365  0.92980  1.0000 -0.4100267546
N   N12       1.0  0.17791  0.72469  0.76130  1.0000 -0.4100267546
N   N13       1.0  0.96372  0.20028  0.44650  1.0000 -0.4100267546
N   N14       1.0  0.96607  0.30153  0.45830  1.0000 -0.4100267546
N   N15       1.0  0.86765  0.20635  0.42980  1.0000 -0.4100267546
N   N16       1.0  0.82209  0.27531  0.26130  1.0000 -0.4100267546
N   N17       1.0  0.17590  0.82410  0.75000  1.0000 -0.4100267546
N   N18       1.0  0.82410  0.17590  0.25000  1.0000 -0.4100267546
O   O1        1.0  0.67149  0.58093  0.65590  1.0000 -0.6486436992
O   O2        1.0  0.65413  0.64027  0.58130  1.0000 -0.6486436992
O   O3        1.0  0.43535  0.48625  0.38320  1.0000 -0.601924466
O   O4        1.0  0.52739  0.50341  0.43060  1.0000 -0.7445618231
O   O5        1.0  0.56264  0.66816  0.52880  1.0000 -0.5705611427
O   O6        1.0  0.49464  0.60956  0.45170  1.0000 -0.7504777629
O   O7        1.0  0.54133  0.52847  0.71480  1.0000 -0.6486436992
O   O8        1.0  0.51488  0.37712  0.72820  1.0000 -0.7859136331
O   O9        1.0  0.55492  0.36388  0.63470  1.0000 -0.6072182525
O   O10       1.0  0.32851  0.41907  0.15590  1.0000 -0.6486436992
O   O11       1.0  0.34587  0.35973  0.08130  1.0000 -0.6486436992
O   O12       1.0  0.56465  0.51375  0.88320  1.0000 -0.601924466
O   O13       1.0  0.47261  0.49659  0.93060  1.0000 -0.7445618231
O   O14       1.0  0.43736  0.33184  0.02880  1.0000 -0.5705611427
O   O15       1.0  0.50536  0.39044  0.95170  1.0000 -0.7504777629
O   O16       1.0  0.45867  0.47153  0.21480  1.0000 -0.6486436992
O   O17       1.0  0.48512  0.62288  0.22820  1.0000 -0.7859136331
O   O18       1.0  0.44508  0.63612  0.13470  1.0000 -0.6072182525
O   O19       1.0  0.41907  0.32851  0.84410  1.0000 -0.6486436992
O   O20       1.0  0.35973  0.34587  0.91870  1.0000 -0.6486436992
O   O21       1.0  0.51375  0.56465  0.11680  1.0000 -0.601924466
O   O22       1.0  0.49659  0.47261  0.06940  1.0000 -0.7445618231
O   O23       1.0  0.33184  0.43736  0.97120  1.0000 -0.5705611427
O   O24       1.0  0.39044  0.50536  0.04830  1.0000 -0.7504777629
O   O25       1.0  0.47153  0.45867  0.78520  1.0000 -0.6486436992
O   O26       1.0  0.62288  0.48512  0.77180  1.0000 -0.7859136331
O   O27       1.0  0.63612  0.44508  0.86530  1.0000 -0.6072182525
O   O28       1.0  0.58093  0.67149  0.34410  1.0000 -0.6486436992
O   O29       1.0  0.64027  0.65413  0.41870  1.0000 -0.6486436992
O   O30       1.0  0.48625  0.43535  0.61680  1.0000 -0.601924466
O   O31       1.0  0.50341  0.52739  0.56940  1.0000 -0.7445618231
O   O32       1.0  0.66816  0.56264  0.47120  1.0000 -0.5705611427
O   O33       1.0  0.60956  0.49464  0.54830  1.0000 -0.7504777629
O   O34       1.0  0.52847  0.54133  0.28520  1.0000 -0.6486436992
O   O35       1.0  0.37712  0.51488  0.27180  1.0000 -0.7859136331
O   O36       1.0  0.36388  0.55492  0.36530  1.0000 -0.6072182525
