# DDEC6 charges by PACMAN v1.1 (https://github.com/mtap-research/PACMAN-charge/)
data_2019[In][fes]2[ASR]1
_chemical_formula_sum              "In4 H36 C64 N4 O32"
_cell_length_a       13.6874
_cell_length_b       13.6874
_cell_length_c       13.6975
_cell_angle_alpha    79.814
_cell_angle_beta     100.186
_cell_angle_gamma    121.451

_symmetry_space_group_name_H-M    "P 1"
_symmetry_Int_Tables_number       1

loop_
  _symmetry_equiv_pos_as_xyz
  'x, y, z'

loop_
  _atom_site_type_symbol
  _atom_site_label
  _atom_site_symmetry_multiplicity
  _atom_site_fract_x
  _atom_site_fract_y
  _atom_site_fract_z
  _atom_site_occupancy
  _atom_site_charge
In  In1       1.0  0.83966  0.60554  0.00881  1.0000 1.2980327174
In  In2       1.0  0.60554  0.83966  0.49119  1.0000 1.2980327174
In  In3       1.0  0.16034  0.39446  0.99119  1.0000 1.2980327174
In  In4       1.0  0.39446  0.16034  0.50881  1.0000 1.2980327174
H   H1        1.0  0.40440  0.81500  0.61000  1.0000 0.1402078497
H   H2        1.0  0.97950  0.55050  0.76360  1.0000 0.1402078497
H   H3        1.0  0.14580  0.89420  0.74540  1.0000 0.1494402751
H   H4        1.0  0.19500  0.63120  0.33190  1.0000 0.1402078497
H   H5        1.0  0.10140  0.64560  0.44840  1.0000 0.127763947
H   H6        1.0  0.08450  0.56190  0.64330  1.0000 0.127763947
H   H7        1.0  0.51950  0.63610  0.88800  1.0000 0.1780855372
H   H8        1.0  0.61680  0.76520  0.89380  1.0000 0.1632717117
H   H9        1.0  0.59810  0.70250  0.80100  1.0000 0.1882957085
H   H10       1.0  0.81500  0.40440  0.89000  1.0000 0.1402078497
H   H11       1.0  0.55050  0.97950  0.73640  1.0000 0.1402078497
H   H12       1.0  0.89420  0.14580  0.75460  1.0000 0.1494402751
H   H13       1.0  0.63120  0.19500  0.16810  1.0000 0.1402078497
H   H14       1.0  0.64560  0.10140  0.05160  1.0000 0.127763947
H   H15       1.0  0.56190  0.08450  0.85670  1.0000 0.127763947
H   H16       1.0  0.63610  0.51950  0.61200  1.0000 0.1780855372
H   H17       1.0  0.76520  0.61680  0.60620  1.0000 0.1632717117
H   H18       1.0  0.70250  0.59810  0.69900  1.0000 0.1882957085
H   H19       1.0  0.59560  0.18500  0.39000  1.0000 0.1402078497
H   H20       1.0  0.02050  0.44950  0.23640  1.0000 0.1402078497
H   H21       1.0  0.85420  0.10580  0.25460  1.0000 0.1494402751
H   H22       1.0  0.80500  0.36880  0.66810  1.0000 0.1402078497
H   H23       1.0  0.89860  0.35440  0.55160  1.0000 0.127763947
H   H24       1.0  0.91550  0.43810  0.35670  1.0000 0.127763947
H   H25       1.0  0.48050  0.36390  0.11200  1.0000 0.1780855372
H   H26       1.0  0.38320  0.23480  0.10620  1.0000 0.1632717117
H   H27       1.0  0.40190  0.29750  0.19900  1.0000 0.1882957085
H   H28       1.0  0.18500  0.59560  0.11000  1.0000 0.1402078497
H   H29       1.0  0.44950  0.02050  0.26360  1.0000 0.1402078497
H   H30       1.0  0.10580  0.85420  0.24540  1.0000 0.1494402751
H   H31       1.0  0.36880  0.80500  0.83190  1.0000 0.1402078497
H   H32       1.0  0.35440  0.89860  0.94840  1.0000 0.127763947
H   H33       1.0  0.43810  0.91550  0.14330  1.0000 0.127763947
H   H34       1.0  0.36390  0.48050  0.38800  1.0000 0.1780855372
H   H35       1.0  0.23480  0.38320  0.39380  1.0000 0.1632717117
H   H36       1.0  0.29750  0.40190  0.30100  1.0000 0.1882957085
C   C1        1.0  0.24230  0.73290  0.54350  1.0000 0.0508124023
C   C2        1.0  0.18113  0.73487  0.62200  1.0000 0.0642948649
C   C3        1.0  0.35389  0.71711  0.40410  1.0000 0.1017074078
C   C4        1.0  0.05171  0.72229  0.76680  1.0000 0.0034011468
C   C5        1.0  0.19983  0.83577  0.65370  1.0000 -0.0454347604
C   C6        1.0  0.36117  0.77843  0.55350  1.0000 0.1071493286
C   C7        1.0  0.28283  0.95457  0.61130  1.0000 0.5495466604
C   C8        1.0  0.03397  0.62203  0.73600  1.0000 -0.0832290151
C   C9        1.0  0.13394  0.82706  0.72520  1.0000 -0.1060452745
C   C10       1.0  0.42180  0.71100  0.33180  1.0000 0.5326003297
C   C11       1.0  0.98405  0.71735  0.84470  1.0000 0.5560046002
C   C12       1.0  0.23620  0.66880  0.38840  1.0000 -0.1189105794
C   C13       1.0  0.18086  0.67734  0.45820  1.0000 -0.0931281284
C   C14       1.0  0.09778  0.62942  0.66410  1.0000 -0.1355926753
C   C15       1.0  0.68020  0.65480  0.92380  1.0000 0.6550029084
C   C16       1.0  0.59580  0.69320  0.87180  1.0000 -0.5658548013
C   C17       1.0  0.73290  0.24230  0.95650  1.0000 0.0508124023
C   C18       1.0  0.73487  0.18113  0.87800  1.0000 0.0642948649
C   C19       1.0  0.71711  0.35389  0.09590  1.0000 0.1017074078
C   C20       1.0  0.72229  0.05171  0.73320  1.0000 0.0034011468
C   C21       1.0  0.83577  0.19983  0.84630  1.0000 -0.0454347604
C   C22       1.0  0.77843  0.36117  0.94650  1.0000 0.1071493286
C   C23       1.0  0.95457  0.28283  0.88870  1.0000 0.5495466604
C   C24       1.0  0.62203  0.03397  0.76400  1.0000 -0.0832290151
C   C25       1.0  0.82706  0.13394  0.77480  1.0000 -0.1060452745
C   C26       1.0  0.71100  0.42180  0.16820  1.0000 0.5326003297
C   C27       1.0  0.71735  0.98405  0.65530  1.0000 0.5560046002
C   C28       1.0  0.66880  0.23620  0.11160  1.0000 -0.1189105794
C   C29       1.0  0.67734  0.18086  0.04180  1.0000 -0.0931281284
C   C30       1.0  0.62942  0.09778  0.83590  1.0000 -0.1355926753
C   C31       1.0  0.65480  0.68020  0.57620  1.0000 0.6543396279
C   C32       1.0  0.69320  0.59580  0.62820  1.0000 -0.5658548013
C   C33       1.0  0.75770  0.26710  0.45650  1.0000 0.0508124023
C   C34       1.0  0.81887  0.26513  0.37800  1.0000 0.0642948649
C   C35       1.0  0.64611  0.28289  0.59590  1.0000 0.1017074078
C   C36       1.0  0.94829  0.27771  0.23320  1.0000 0.0034011468
C   C37       1.0  0.80017  0.16423  0.34630  1.0000 -0.0454347604
C   C38       1.0  0.63883  0.22157  0.44650  1.0000 0.1071493286
C   C39       1.0  0.71717  0.04543  0.38870  1.0000 0.5495466604
C   C40       1.0  0.96603  0.37797  0.26400  1.0000 -0.0832290151
C   C41       1.0  0.86606  0.17294  0.27480  1.0000 -0.1060452745
C   C42       1.0  0.57820  0.28900  0.66820  1.0000 0.5326003297
C   C43       1.0  0.01595  0.28265  0.15530  1.0000 0.5560046002
C   C44       1.0  0.76380  0.33120  0.61160  1.0000 -0.1189105794
C   C45       1.0  0.81914  0.32266  0.54180  1.0000 -0.0931281284
C   C46       1.0  0.90222  0.37058  0.33590  1.0000 -0.1355926753
C   C47       1.0  0.31980  0.34520  0.07620  1.0000 0.6543396279
C   C48       1.0  0.40420  0.30680  0.12820  1.0000 -0.5658548013
C   C49       1.0  0.26710  0.75770  0.04350  1.0000 0.0508124023
C   C50       1.0  0.26513  0.81887  0.12200  1.0000 0.0642948649
C   C51       1.0  0.28289  0.64611  0.90410  1.0000 0.1017074078
C   C52       1.0  0.27771  0.94829  0.26680  1.0000 0.0034011468
C   C53       1.0  0.16423  0.80017  0.15370  1.0000 -0.0454347604
C   C54       1.0  0.22157  0.63883  0.05350  1.0000 0.1071493286
C   C55       1.0  0.04543  0.71717  0.11130  1.0000 0.5495466604
C   C56       1.0  0.37797  0.96603  0.23600  1.0000 -0.0832290151
C   C57       1.0  0.17294  0.86606  0.22520  1.0000 -0.1060452745
C   C58       1.0  0.28900  0.57820  0.83180  1.0000 0.5326003297
C   C59       1.0  0.28265  0.01595  0.34470  1.0000 0.5560046002
C   C60       1.0  0.33120  0.76380  0.88840  1.0000 -0.1189105794
C   C61       1.0  0.32266  0.81914  0.95820  1.0000 -0.0931281284
C   C62       1.0  0.37058  0.90222  0.16410  1.0000 -0.1355926753
C   C63       1.0  0.34520  0.31980  0.42380  1.0000 0.6550029084
C   C64       1.0  0.30680  0.40420  0.37180  1.0000 -0.5658548013
N   N1        1.0  0.41531  0.77169  0.48520  1.0000 -0.2352616326
N   N2        1.0  0.77169  0.41531  0.01480  1.0000 -0.2352616326
N   N3        1.0  0.58469  0.22831  0.51480  1.0000 -0.2352616326
N   N4        1.0  0.22831  0.58469  0.98520  1.0000 -0.2352616326
O   O1        1.0  0.53061  0.75779  0.35440  1.0000 -0.5190736563
O   O2        1.0  0.90954  0.61926  0.87820  1.0000 -0.5190736563
O   O3        1.0  0.36961  0.66139  0.25640  1.0000 -0.4761413396
O   O4        1.0  0.25025  0.02735  0.59490  1.0000 -0.461684166
O   O5        1.0  0.37775  0.98205  0.58820  1.0000 -0.5045815373
O   O6        1.0  0.76763  0.72117  0.97310  1.0000 -0.45232047
O   O7        1.0  0.66394  0.55886  0.91620  1.0000 -0.5045815373
O   O8        1.0  0.00420  0.80520  0.87310  1.0000 -0.45232047
O   O9        1.0  0.75779  0.53061  0.14560  1.0000 -0.5190736563
O   O10       1.0  0.61926  0.90954  0.62180  1.0000 -0.5190736563
O   O11       1.0  0.66139  0.36961  0.24360  1.0000 -0.4761413396
O   O12       1.0  0.02735  0.25025  0.90510  1.0000 -0.461684166
O   O13       1.0  0.98205  0.37775  0.91180  1.0000 -0.5055083469
O   O14       1.0  0.72117  0.76763  0.52690  1.0000 -0.45232047
O   O15       1.0  0.55886  0.66394  0.58380  1.0000 -0.5045815373
O   O16       1.0  0.80520  0.00420  0.62690  1.0000 -0.45232047
O   O17       1.0  0.46939  0.24221  0.64560  1.0000 -0.5190736563
O   O18       1.0  0.09046  0.38074  0.12180  1.0000 -0.5190736563
O   O19       1.0  0.63039  0.33861  0.74360  1.0000 -0.4761413396
O   O20       1.0  0.74975  0.97265  0.40510  1.0000 -0.461684166
O   O21       1.0  0.62225  0.01795  0.41180  1.0000 -0.5045815373
O   O22       1.0  0.23237  0.27883  0.02690  1.0000 -0.45232047
O   O23       1.0  0.33606  0.44114  0.08380  1.0000 -0.5045815373
O   O24       1.0  0.99580  0.19480  0.12690  1.0000 -0.45232047
O   O25       1.0  0.24221  0.46939  0.85440  1.0000 -0.5190736563
O   O26       1.0  0.38074  0.09046  0.37820  1.0000 -0.5190736563
O   O27       1.0  0.33861  0.63039  0.75640  1.0000 -0.4761413396
O   O28       1.0  0.97265  0.74975  0.09490  1.0000 -0.461684166
O   O29       1.0  0.01795  0.62225  0.08820  1.0000 -0.5045815373
O   O30       1.0  0.27883  0.23237  0.47310  1.0000 -0.45232047
O   O31       1.0  0.44114  0.33606  0.41620  1.0000 -0.5045815373
O   O32       1.0  0.19480  0.99580  0.37310  1.0000 -0.45232047
