# DDEC6 charges by PACMAN v1.1 (https://github.com/mtap-research/PACMAN-charge/)
data_2019[Cu][sql]2[ASR]13
_chemical_formula_sum              "Cu4 H128 C200 O24"
_cell_length_a       16.7612
_cell_length_b       19.8555
_cell_length_c       20.8675
_cell_angle_alpha    110.805
_cell_angle_beta     108.166
_cell_angle_gamma    102.025

_symmetry_space_group_name_H-M    "P 1"
_symmetry_Int_Tables_number       1

loop_
  _symmetry_equiv_pos_as_xyz
  'x, y, z'

loop_
  _atom_site_type_symbol
  _atom_site_label
  _atom_site_symmetry_multiplicity
  _atom_site_fract_x
  _atom_site_fract_y
  _atom_site_fract_z
  _atom_site_occupancy
  _atom_site_charge
Cu  Cu1       1.0  0.85999  0.28118  0.79243  1.0000 0.7917670223
Cu  Cu2       1.0  0.72320  0.30138  0.70692  1.0000 0.8250318381
Cu  Cu3       1.0  0.14001  0.71882  0.20757  1.0000 0.7917670223
Cu  Cu4       1.0  0.27680  0.69862  0.29308  1.0000 0.8250318381
H   H1        1.0  0.44260  0.85590  0.98730  1.0000 0.1022870408
H   H2        1.0  0.02570  0.72690  0.43400  1.0000 0.1104015382
H   H3        1.0  0.41680  0.03580  0.09240  1.0000 0.1104015382
H   H4        1.0  0.24590  0.50090  0.54850  1.0000 0.1201956666
H   H5        1.0  0.12100  0.64950  0.69330  1.0000 0.1022870408
H   H6        1.0  0.15050  0.58290  0.65130  1.0000 0.1104015382
H   H7        1.0  0.10570  0.94570  0.67710  1.0000 0.1022870408
H   H8        1.0  0.55570  0.69520  0.93890  1.0000 0.1104015382
H   H9        1.0  0.43360  0.03170  0.98430  1.0000 0.1201956666
H   H10       1.0  0.31270  0.93270  0.08380  1.0000 0.1104015382
H   H11       1.0  0.91310  0.45890  0.01100  1.0000 0.1297324601
H   H12       1.0  0.69910  0.48080  0.87860  1.0000 0.1104015382
H   H13       1.0  0.17390  0.01300  0.25810  1.0000 0.1104015382
H   H14       1.0  0.92530  0.97220  0.39110  1.0000 0.1022870408
H   H15       1.0  0.99970  0.82260  0.51790  1.0000 0.1104015382
H   H16       1.0  0.62020  0.95630  0.76770  1.0000 0.1201956666
H   H17       1.0  0.31730  0.56890  0.69570  1.0000 0.1104015382
H   H18       1.0  0.50900  0.12530  0.69600  1.0000 0.1201956666
H   H19       1.0  0.70450  0.57820  0.98310  1.0000 0.1104015382
H   H20       1.0  0.51690  0.76900  0.70310  1.0000 0.1104015382
H   H21       1.0  0.43520  0.85690  0.66470  1.0000 0.1104015382
H   H22       1.0  0.38140  0.90290  0.70030  1.0000 0.1104015382
H   H23       1.0  0.47470  0.76730  0.90180  1.0000 0.1022870408
H   H24       1.0  0.68050  0.87790  0.35830  1.0000 0.1104015382
H   H25       1.0  0.78420  0.89430  0.39460  1.0000 0.1022870408
H   H26       1.0  0.15790  0.49340  0.72850  1.0000 0.1201956666
H   H27       1.0  0.97600  0.78280  0.22500  1.0000 0.1201956666
H   H28       1.0  0.86900  0.65680  0.17260  1.0000 0.1104015382
H   H29       1.0  0.76330  0.62330  0.13820  1.0000 0.1022870408
H   H30       1.0  0.06150  0.40930  0.74760  1.0000 0.1104015382
H   H31       1.0  0.97690  0.59370  0.68650  1.0000 0.1201956666
H   H32       1.0  0.78040  0.04700  0.61730  1.0000 0.1104015382
H   H33       1.0  0.09180  0.88420  0.21610  1.0000 0.1297324601
H   H34       1.0  0.87740  0.50540  0.69980  1.0000 0.1201956666
H   H35       1.0  0.25880  0.97920  0.74770  1.0000 0.1201956666
H   H36       1.0  0.22280  0.82580  0.96870  1.0000 0.1201956666
H   H37       1.0  0.58140  0.84260  0.21540  1.0000 0.1022870408
H   H38       1.0  0.49480  0.87690  0.11240  1.0000 0.1201956666
H   H39       1.0  0.49680  0.73780  0.24340  1.0000 0.1201956666
H   H40       1.0  0.55400  0.55410  0.06910  1.0000 0.1104015382
H   H41       1.0  0.15810  0.10930  0.35040  1.0000 0.1104015382
H   H42       1.0  0.38380  0.95770  0.83950  1.0000 0.1104015382
H   H43       1.0  0.04620  0.78040  0.74120  1.0000 0.1201956666
H   H44       1.0  0.71810  0.07020  0.78780  1.0000 0.1201956666
H   H45       1.0  0.05370  0.07820  0.39710  1.0000 0.1104015382
H   H46       1.0  0.41200  0.01450  0.68230  1.0000 0.1104015382
H   H47       1.0  0.17720  0.75620  0.82510  1.0000 0.1022870408
H   H48       1.0  0.44780  0.53470  0.76740  1.0000 0.1201956666
H   H49       1.0  0.91880  0.55710  0.11610  1.0000 0.1201956666
H   H50       1.0  0.75370  0.06010  0.39530  1.0000 0.1201956666
H   H51       1.0  0.01650  0.72570  0.31960  1.0000 0.1201956666
H   H52       1.0  0.76320  0.16540  0.49630  1.0000 0.1201956666
H   H53       1.0  0.96180  0.91740  0.48800  1.0000 0.1104015382
H   H54       1.0  0.75690  0.93850  0.51320  1.0000 0.1104015382
H   H55       1.0  0.63650  0.66160  0.04510  1.0000 0.1022870408
H   H56       1.0  0.00070  0.85000  0.67630  1.0000 0.1104015382
H   H57       1.0  0.65070  0.74350  0.77970  1.0000 0.1201956666
H   H58       1.0  0.60140  0.56270  0.82470  1.0000 0.1104015382
H   H59       1.0  0.48150  0.51940  0.13750  1.0000 0.1022870408
H   H60       1.0  0.44810  0.70690  0.55600  1.0000 0.1201956666
H   H61       1.0  0.45230  0.61000  0.22300  1.0000 0.1104015382
H   H62       1.0  0.70240  0.66810  0.83360  1.0000 0.1201956666
H   H63       1.0  0.24290  0.50340  0.43650  1.0000 0.1104015382
H   H64       1.0  0.34200  0.60570  0.44110  1.0000 0.1201956666
H   H65       1.0  0.55740  0.14410  0.01270  1.0000 0.1022870408
H   H66       1.0  0.97430  0.27310  0.56600  1.0000 0.1104015382
H   H67       1.0  0.58320  0.96420  0.90760  1.0000 0.1104015382
H   H68       1.0  0.75410  0.49910  0.45150  1.0000 0.1201956666
H   H69       1.0  0.87900  0.35050  0.30670  1.0000 0.1022870408
H   H70       1.0  0.84950  0.41710  0.34870  1.0000 0.1104015382
H   H71       1.0  0.89430  0.05430  0.32290  1.0000 0.1022870408
H   H72       1.0  0.44430  0.30480  0.06110  1.0000 0.1104015382
H   H73       1.0  0.56640  0.96830  0.01570  1.0000 0.1201956666
H   H74       1.0  0.68730  0.06730  0.91620  1.0000 0.1104015382
H   H75       1.0  0.08690  0.54110  0.98900  1.0000 0.1297324601
H   H76       1.0  0.30090  0.51920  0.12140  1.0000 0.1104015382
H   H77       1.0  0.82610  0.98700  0.74190  1.0000 0.1104015382
H   H78       1.0  0.07470  0.02780  0.60890  1.0000 0.1022870408
H   H79       1.0  0.00030  0.17740  0.48210  1.0000 0.1104015382
H   H80       1.0  0.37980  0.04370  0.23230  1.0000 0.1201956666
H   H81       1.0  0.68270  0.43110  0.30430  1.0000 0.1104015382
H   H82       1.0  0.49100  0.87470  0.30400  1.0000 0.1201956666
H   H83       1.0  0.29550  0.42180  0.01690  1.0000 0.1104015382
H   H84       1.0  0.48310  0.23100  0.29690  1.0000 0.1104015382
H   H85       1.0  0.56480  0.14310  0.33530  1.0000 0.1104015382
H   H86       1.0  0.61860  0.09710  0.29970  1.0000 0.1104015382
H   H87       1.0  0.52530  0.23270  0.09820  1.0000 0.1022870408
H   H88       1.0  0.31950  0.12210  0.64170  1.0000 0.1104015382
H   H89       1.0  0.21580  0.10570  0.60540  1.0000 0.1022870408
H   H90       1.0  0.84210  0.50660  0.27150  1.0000 0.1201956666
H   H91       1.0  0.02400  0.21720  0.77500  1.0000 0.1201956666
H   H92       1.0  0.13100  0.34320  0.82740  1.0000 0.1104015382
H   H93       1.0  0.23670  0.37670  0.86180  1.0000 0.1022870408
H   H94       1.0  0.93850  0.59070  0.25240  1.0000 0.1104015382
H   H95       1.0  0.02310  0.40630  0.31350  1.0000 0.1201956666
H   H96       1.0  0.21960  0.95300  0.38270  1.0000 0.1104015382
H   H97       1.0  0.90820  0.11580  0.78390  1.0000 0.1297324601
H   H98       1.0  0.12260  0.49460  0.30020  1.0000 0.1201956666
H   H99       1.0  0.74120  0.02080  0.25230  1.0000 0.1201956666
H   H100      1.0  0.77720  0.17420  0.03130  1.0000 0.1201956666
H   H101      1.0  0.41860  0.15740  0.78460  1.0000 0.1022870408
H   H102      1.0  0.50520  0.12310  0.88760  1.0000 0.1201956666
H   H103      1.0  0.50320  0.26220  0.75660  1.0000 0.1201956666
H   H104      1.0  0.44600  0.44590  0.93090  1.0000 0.1104015382
H   H105      1.0  0.84190  0.89070  0.64960  1.0000 0.1104015382
H   H106      1.0  0.61620  0.04230  0.16050  1.0000 0.1104015382
H   H107      1.0  0.95380  0.21960  0.25880  1.0000 0.1201956666
H   H108      1.0  0.28190  0.92980  0.21220  1.0000 0.1201956666
H   H109      1.0  0.94630  0.92180  0.60290  1.0000 0.1104015382
H   H110      1.0  0.58800  0.98550  0.31770  1.0000 0.1104015382
H   H111      1.0  0.82280  0.24380  0.17490  1.0000 0.1022870408
H   H112      1.0  0.55220  0.46530  0.23260  1.0000 0.1201956666
H   H113      1.0  0.08120  0.44290  0.88390  1.0000 0.1201956666
H   H114      1.0  0.24630  0.93990  0.60470  1.0000 0.1201956666
H   H115      1.0  0.98350  0.27430  0.68040  1.0000 0.1201956666
H   H116      1.0  0.23680  0.83460  0.50370  1.0000 0.1201956666
H   H117      1.0  0.03820  0.08260  0.51200  1.0000 0.1104015382
H   H118      1.0  0.24310  0.06150  0.48680  1.0000 0.1104015382
H   H119      1.0  0.36350  0.33840  0.95490  1.0000 0.1022870408
H   H120      1.0  0.99930  0.15000  0.32370  1.0000 0.1104015382
H   H121      1.0  0.34930  0.25650  0.22030  1.0000 0.1201956666
H   H122      1.0  0.39860  0.43730  0.17530  1.0000 0.1104015382
H   H123      1.0  0.51850  0.48060  0.86250  1.0000 0.1022870408
H   H124      1.0  0.55190  0.29310  0.44400  1.0000 0.1201956666
H   H125      1.0  0.54770  0.39000  0.77700  1.0000 0.1104015382
H   H126      1.0  0.29760  0.33190  0.16640  1.0000 0.1201956666
H   H127      1.0  0.75710  0.49660  0.56350  1.0000 0.1104015382
H   H128      1.0  0.65800  0.39430  0.55890  1.0000 0.1201956666
C   C1        1.0  0.47593  0.82813  0.00288  1.0000 -0.1005595774
C   C2        1.0  0.01097  0.76486  0.42194  1.0000 -0.1005595774
C   C3        1.0  0.38156  0.99272  0.04592  1.0000 -0.1105195445
C   C4        1.0  0.76474  0.87658  0.26760  1.0000 0.1297324601
C   C5        1.0  0.28620  0.54211  0.55005  1.0000 -0.1609178219
C   C6        1.0  0.14296  0.60885  0.69688  1.0000 -0.0900254224
C   C7        1.0  0.12459  0.91962  0.70458  1.0000 -0.1105195445
C   C8        1.0  0.50578  0.97417  0.72337  1.0000 0.0906082566
C   C9        1.0  0.54329  0.73130  0.97351  1.0000 -0.1503453504
C   C10       1.0  0.39177  0.99026  0.98118  1.0000 -0.1503453504
C   C11       1.0  0.31890  0.93099  0.04056  1.0000 -0.1105195445
C   C12       1.0  0.87093  0.48282  0.00539  1.0000 -0.0900254224
C   C13       1.0  0.74316  0.49581  0.92633  1.0000 -0.1005595774
C   C14       1.0  0.13351  0.00008  0.27764  1.0000 -0.1105195445
C   C15       1.0  0.93612  0.93138  0.35546  1.0000 -0.0900254224
C   C16       1.0  0.55549  0.79849  0.09992  1.0000 0.0486120849
C   C17       1.0  0.99515  0.82202  0.47215  1.0000 -0.1105195445
C   C18       1.0  0.17926  0.83872  0.78276  1.0000 0.0410484468
C   C19       1.0  0.59774  0.99086  0.75450  1.0000 -0.1503453504
C   C20       1.0  0.51907  0.68431  0.74147  1.0000 0.0410484468
C   C21       1.0  0.36011  0.61204  0.69717  1.0000 -0.0900254224
C   C22       1.0  0.53175  0.09236  0.71200  1.0000 -0.1005595774
C   C23       1.0  0.74660  0.55429  0.98894  1.0000 -0.1503453504
C   C24       1.0  0.85176  0.87718  0.28229  1.0000 -0.0483346961
C   C25       1.0  0.47386  0.72595  0.70158  1.0000 -0.0900254224
C   C26       1.0  0.34866  0.60249  0.61822  1.0000 0.0486120849
C   C27       1.0  0.89535  0.39209  0.73564  1.0000 0.5706732286
C   C28       1.0  0.44043  0.89946  0.70903  1.0000 -0.0791228798
C   C29       1.0  0.49467  0.77454  0.95150  1.0000 -0.1105195445
C   C30       1.0  0.73978  0.91593  0.37766  1.0000 -0.0791228798
C   C31       1.0  0.28901  0.70185  0.76543  1.0000 0.1297324601
C   C32       1.0  0.24273  0.89973  0.78633  1.0000 0.0410484468
C   C33       1.0  0.10198  0.49666  0.72369  1.0000 -0.1419211067
C   C34       1.0  0.96504  0.82360  0.26061  1.0000 -0.0900254224
C   C35       1.0  0.57044  0.66667  0.11686  1.0000 0.0486120849
C   C36       1.0  0.41316  0.82517  0.77148  1.0000 0.1297324601
C   C37       1.0  0.28893  0.77617  0.79816  1.0000 -0.0483346961
C   C38       1.0  0.68671  0.18233  0.75386  1.0000 0.5706732286
C   C39       1.0  0.71030  0.76197  0.14955  1.0000 -0.040119602
C   C40       1.0  0.81444  0.64129  0.12824  1.0000 -0.0737652083
C   C41       1.0  0.86755  0.81920  0.23110  1.0000 -0.0483346961
C   C42       1.0  0.04386  0.44563  0.73435  1.0000 -0.1105195445
C   C43       1.0  0.99363  0.55606  0.69785  1.0000 -0.1694887442
C   C44       1.0  0.79701  0.76186  0.16441  1.0000 0.1201956666
C   C45       1.0  0.35158  0.83781  0.80185  1.0000 -0.0613903117
C   C46       1.0  0.78436  0.18585  0.63469  1.0000 0.5604252431
C   C47       1.0  0.77240  0.04906  0.57200  1.0000 -0.0900254224
C   C48       1.0  0.69385  0.81817  0.20160  1.0000 -0.0483346961
C   C49       1.0  0.08395  0.92299  0.25196  1.0000 -0.128997424
C   C50       1.0  0.75239  0.98818  0.44306  1.0000 0.083830985
C   C51       1.0  0.93433  0.50352  0.70661  1.0000 -0.1005595774
C   C52       1.0  0.95899  0.44849  0.72528  1.0000 -0.0192382315
C   C53       1.0  0.79928  0.39536  0.86587  1.0000 0.5706732286
C   C54       1.0  0.21637  0.93969  0.74659  1.0000 -0.1503453504
C   C55       1.0  0.26541  0.86674  0.97195  1.0000 -0.1503453504
C   C56       1.0  0.00901  0.96268  0.33285  1.0000 0.0410484468
C   C57       1.0  0.59325  0.80365  0.17880  1.0000 -0.0791228798
C   C58       1.0  0.62414  0.11026  0.74517  1.0000 -0.0192382315
C   C59       1.0  0.41335  0.75116  0.73904  1.0000 -0.0613903117
C   C60       1.0  0.35119  0.68912  0.73617  1.0000 -0.0613903117
C   C61       1.0  0.45753  0.62217  0.73827  1.0000 0.0486120849
C   C62       1.0  0.50683  0.84056  0.07771  1.0000 -0.1503453504
C   C63       1.0  0.98162  0.81954  0.33521  1.0000 0.0486120849
C   C64       1.0  0.02280  0.90458  0.28041  1.0000 0.0486120849
C   C65       1.0  0.96544  0.87729  0.38621  1.0000 0.0410484468
C   C66       1.0  0.50889  0.70130  0.20894  1.0000 -0.1419211067
C   C67       1.0  0.80487  0.45968  0.93447  1.0000 -0.0192382315
C   C68       1.0  0.54321  0.59098  0.10432  1.0000 -0.1503453504
C   C69       1.0  0.12320  0.05798  0.33232  1.0000 -0.1105195445
C   C70       1.0  0.33935  0.91436  0.83627  1.0000 -0.0791228798
C   C71       1.0  0.08857  0.81992  0.74243  1.0000 -0.1609178219
C   C72       1.0  0.65637  0.05887  0.76595  1.0000 -0.1105195445
C   C73       1.0  0.07783  0.55244  0.70600  1.0000 0.083830985
C   C74       1.0  0.06058  0.03945  0.36043  1.0000 -0.1694887442
C   C75       1.0  0.47367  0.02525  0.70277  1.0000 -0.1609178219
C   C76       1.0  0.22157  0.79955  0.82825  1.0000 -0.0900254224
C   C77       1.0  0.48827  0.57631  0.76964  1.0000 -0.1609178219
C   C78       1.0  0.77296  0.11703  0.56722  1.0000 -0.0192382315
C   C79       1.0  0.55370  0.72235  0.16951  1.0000 0.0486120849
C   C80       1.0  0.57265  0.74308  0.04763  1.0000 0.0486120849
C   C81       1.0  0.87441  0.54182  0.06841  1.0000 -0.1503453504
C   C82       1.0  0.81239  0.57787  0.06065  1.0000 0.1022870408
C   C83       1.0  0.75625  0.05664  0.43913  1.0000 -0.1503453504
C   C84       1.0  0.00493  0.76369  0.35299  1.0000 -0.1419211067
C   C85       1.0  0.27609  0.86414  0.90805  1.0000 0.0410484468
C   C86       1.0  0.76400  0.12031  0.50030  1.0000 -0.1005595774
C   C87       1.0  0.41000  0.66461  0.62132  1.0000 0.0410484468
C   C88       1.0  0.97229  0.87880  0.45425  1.0000 -0.1609178219
C   C89       1.0  0.33947  0.92607  0.91289  1.0000 0.0410484468
C   C90       1.0  0.76008  0.98454  0.51015  1.0000 -0.1609178219
C   C91       1.0  0.62466  0.70051  0.08176  1.0000 -0.0791228798
C   C92       1.0  0.06161  0.86157  0.70335  1.0000 -0.1105195445
C   C93       1.0  0.61010  0.70166  0.77700  1.0000 -0.1503453504
C   C94       1.0  0.58020  0.59363  0.80430  1.0000 -0.122460359
C   C95       1.0  0.49930  0.57021  0.14508  1.0000 -0.122460359
C   C96       1.0  0.40770  0.66590  0.55470  1.0000 -0.1609178219
C   C97       1.0  0.48210  0.62452  0.19640  1.0000 -0.1005595774
C   C98       1.0  0.64090  0.65640  0.80900  1.0000 -0.1105195445
C   C99       1.0  0.28450  0.54380  0.48304  1.0000 -0.122460359
C   C100      1.0  0.34410  0.60500  0.48590  1.0000 -0.1105195445
C   C101      1.0  0.52407  0.17187  0.99712  1.0000 -0.1005595774
C   C102      1.0  0.98903  0.23514  0.57806  1.0000 -0.1005595774
C   C103      1.0  0.61844  0.00728  0.95408  1.0000 -0.1105195445
C   C104      1.0  0.23526  0.12342  0.73240  1.0000 0.1297324601
C   C105      1.0  0.71380  0.45789  0.44995  1.0000 -0.1609178219
C   C106      1.0  0.85704  0.39115  0.30312  1.0000 -0.0900254224
C   C107      1.0  0.87541  0.08038  0.29542  1.0000 -0.1105195445
C   C108      1.0  0.49422  0.02583  0.27663  1.0000 0.0906082566
C   C109      1.0  0.45671  0.26870  0.02649  1.0000 -0.1503453504
C   C110      1.0  0.60823  0.00974  0.01882  1.0000 -0.1503453504
C   C111      1.0  0.68110  0.06901  0.95944  1.0000 -0.1105195445
C   C112      1.0  0.12907  0.51718  0.99461  1.0000 -0.0900254224
C   C113      1.0  0.25684  0.50419  0.07367  1.0000 -0.1005595774
C   C114      1.0  0.86649  0.99992  0.72236  1.0000 -0.1105195445
C   C115      1.0  0.06388  0.06862  0.64454  1.0000 -0.0900254224
C   C116      1.0  0.44451  0.20151  0.90008  1.0000 0.0486120849
C   C117      1.0  0.00485  0.17798  0.52785  1.0000 -0.1105195445
C   C118      1.0  0.82074  0.16128  0.21724  1.0000 0.0410484468
C   C119      1.0  0.40226  0.00914  0.24550  1.0000 -0.1503453504
C   C120      1.0  0.48093  0.31569  0.25853  1.0000 0.0410484468
C   C121      1.0  0.63989  0.38796  0.30283  1.0000 -0.0900254224
C   C122      1.0  0.46825  0.90764  0.28800  1.0000 -0.1105195445
C   C123      1.0  0.25340  0.44571  0.01106  1.0000 -0.1503453504
C   C124      1.0  0.14824  0.12282  0.71771  1.0000 -0.0483346961
C   C125      1.0  0.52614  0.27405  0.29842  1.0000 -0.0900254224
C   C126      1.0  0.65134  0.39751  0.38178  1.0000 0.0486120849
C   C127      1.0  0.10465  0.60791  0.26436  1.0000 0.5706732286
C   C128      1.0  0.55957  0.10054  0.29097  1.0000 -0.0791228798
C   C129      1.0  0.50533  0.22546  0.04850  1.0000 -0.1105195445
C   C130      1.0  0.26022  0.08407  0.62234  1.0000 -0.0791228798
C   C131      1.0  0.71099  0.29815  0.23457  1.0000 0.1297324601
C   C132      1.0  0.75727  0.10027  0.21367  1.0000 0.0410484468
C   C133      1.0  0.89802  0.50334  0.27631  1.0000 -0.1419211067
C   C134      1.0  0.03496  0.17640  0.73939  1.0000 -0.0900254224
C   C135      1.0  0.42956  0.33328  0.88314  1.0000 0.0486120849
C   C136      1.0  0.58684  0.17483  0.22852  1.0000 0.1297324601
C   C137      1.0  0.71107  0.22383  0.20184  1.0000 -0.0483346961
C   C138      1.0  0.31329  0.81767  0.24614  1.0000 0.5706732286
C   C139      1.0  0.28970  0.23803  0.85045  1.0000 -0.040119602
C   C140      1.0  0.18556  0.35871  0.87176  1.0000 -0.0737652083
C   C141      1.0  0.13245  0.18080  0.76890  1.0000 -0.0483346961
C   C142      1.0  0.95614  0.55437  0.26565  1.0000 -0.1105195445
C   C143      1.0  0.00637  0.44394  0.30215  1.0000 -0.1694887442
C   C144      1.0  0.20299  0.23814  0.83559  1.0000 0.1201956666
C   C145      1.0  0.64842  0.16219  0.19815  1.0000 -0.0613903117
C   C146      1.0  0.21564  0.81415  0.36531  1.0000 0.5604252431
C   C147      1.0  0.22760  0.95094  0.42800  1.0000 -0.0900254224
C   C148      1.0  0.30615  0.18183  0.79840  1.0000 -0.040119602
C   C149      1.0  0.91605  0.07701  0.74804  1.0000 -0.128997424
C   C150      1.0  0.24761  0.01182  0.55694  1.0000 0.083830985
C   C151      1.0  0.06567  0.49648  0.29339  1.0000 -0.1005595774
C   C152      1.0  0.04101  0.55151  0.27472  1.0000 -0.0192382315
C   C153      1.0  0.20072  0.60464  0.13413  1.0000 0.5706732286
C   C154      1.0  0.78363  0.06031  0.25341  1.0000 -0.1503453504
C   C155      1.0  0.73459  0.13326  0.02805  1.0000 -0.1503453504
C   C156      1.0  0.99099  0.03732  0.66715  1.0000 0.0410484468
C   C157      1.0  0.40675  0.19635  0.82120  1.0000 -0.0791228798
C   C158      1.0  0.37586  0.88974  0.25483  1.0000 -0.0192382315
C   C159      1.0  0.58665  0.24884  0.26096  1.0000 -0.0613903117
C   C160      1.0  0.64881  0.31088  0.26383  1.0000 -0.0613903117
C   C161      1.0  0.54247  0.37783  0.26173  1.0000 0.0486120849
C   C162      1.0  0.49317  0.15944  0.92229  1.0000 -0.1503453504
C   C163      1.0  0.01838  0.18046  0.66479  1.0000 0.0486120849
C   C164      1.0  0.97720  0.09542  0.71959  1.0000 0.0486120849
C   C165      1.0  0.03456  0.12271  0.61379  1.0000 0.0410484468
C   C166      1.0  0.49111  0.29870  0.79106  1.0000 -0.1419211067
C   C167      1.0  0.19513  0.54032  0.06553  1.0000 -0.0192382315
C   C168      1.0  0.45679  0.40902  0.89568  1.0000 -0.1503453504
C   C169      1.0  0.87680  0.94202  0.66768  1.0000 -0.1105195445
C   C170      1.0  0.66065  0.08564  0.16373  1.0000 -0.0791228798
C   C171      1.0  0.91143  0.18008  0.25757  1.0000 -0.1609178219
C   C172      1.0  0.34363  0.94113  0.23405  1.0000 -0.1105195445
C   C173      1.0  0.92217  0.44756  0.29400  1.0000 0.083830985
C   C174      1.0  0.93942  0.96055  0.63957  1.0000 -0.1694887442
C   C175      1.0  0.52633  0.97475  0.29723  1.0000 -0.1609178219
C   C176      1.0  0.77843  0.20045  0.17175  1.0000 -0.0900254224
C   C177      1.0  0.51173  0.42369  0.23036  1.0000 -0.1609178219
C   C178      1.0  0.22704  0.88297  0.43278  1.0000 -0.0192382315
C   C179      1.0  0.44630  0.27765  0.83049  1.0000 0.0486120849
C   C180      1.0  0.42735  0.25692  0.95237  1.0000 0.0486120849
C   C181      1.0  0.12559  0.45818  0.93159  1.0000 -0.1503453504
C   C182      1.0  0.18761  0.42213  0.93935  1.0000 0.1022870408
C   C183      1.0  0.24375  0.94336  0.56087  1.0000 -0.1503453504
C   C184      1.0  0.99507  0.23631  0.64701  1.0000 -0.1419211067
C   C185      1.0  0.72391  0.13586  0.09195  1.0000 0.0410484468
C   C186      1.0  0.23600  0.87969  0.49970  1.0000 -0.1005595774
C   C187      1.0  0.59000  0.33539  0.37868  1.0000 0.0410484468
C   C188      1.0  0.02771  0.12120  0.54575  1.0000 -0.1609178219
C   C189      1.0  0.66053  0.07393  0.08711  1.0000 0.0410484468
C   C190      1.0  0.23992  0.01546  0.48985  1.0000 -0.1609178219
C   C191      1.0  0.37534  0.29949  0.91824  1.0000 -0.0791228798
C   C192      1.0  0.93839  0.13843  0.29665  1.0000 -0.1105195445
C   C193      1.0  0.38990  0.29834  0.22300  1.0000 -0.1503453504
C   C194      1.0  0.41980  0.40637  0.19570  1.0000 -0.122460359
C   C195      1.0  0.50070  0.42979  0.85492  1.0000 -0.122460359
C   C196      1.0  0.59230  0.33410  0.44530  1.0000 -0.1609178219
C   C197      1.0  0.51790  0.37548  0.80360  1.0000 -0.1005595774
C   C198      1.0  0.35910  0.34360  0.19100  1.0000 -0.1105195445
C   C199      1.0  0.71550  0.45620  0.51696  1.0000 -0.122460359
C   C200      1.0  0.65590  0.39500  0.51410  1.0000 -0.1105195445
O   O1        1.0  0.74214  0.22907  0.62354  1.0000 -0.5199520972
O   O2        1.0  0.92770  0.35241  0.76489  1.0000 -0.5376928237
O   O3        1.0  0.65405  0.21158  0.71215  1.0000 -0.5199520972
O   O4        1.0  0.83502  0.19440  0.69827  1.0000 -0.5106184867
O   O5        1.0  0.81453  0.38816  0.71419  1.0000 -0.5106184867
O   O6        1.0  0.86235  0.36933  0.87481  1.0000 -0.5106184867
O   O7        1.0  0.76797  0.20801  0.80096  1.0000 -0.5106184867
O   O8        1.0  0.74940  0.93366  0.31883  1.0000 -0.2372618329
O   O9        1.0  0.81128  0.70517  0.11201  1.0000 -0.1847449777
O   O10       1.0  0.73198  0.37208  0.80452  1.0000 -0.5199520972
O   O11       1.0  0.22720  0.64077  0.76236  1.0000 -0.1866067437
O   O12       1.0  0.47405  0.88680  0.77435  1.0000 -0.2116753471
O   O13       1.0  0.25786  0.77093  0.37646  1.0000 -0.5199520972
O   O14       1.0  0.07230  0.64759  0.23511  1.0000 -0.5376928237
O   O15       1.0  0.34595  0.78842  0.28785  1.0000 -0.5199520972
O   O16       1.0  0.16498  0.80560  0.30173  1.0000 -0.5106184867
O   O17       1.0  0.18547  0.61184  0.28581  1.0000 -0.5106184867
O   O18       1.0  0.13765  0.63067  0.12519  1.0000 -0.5106184867
O   O19       1.0  0.23203  0.79199  0.19904  1.0000 -0.5106184867
O   O20       1.0  0.25060  0.06634  0.68117  1.0000 -0.2372618329
O   O21       1.0  0.18872  0.29483  0.88799  1.0000 -0.1847449777
O   O22       1.0  0.26802  0.62792  0.19548  1.0000 -0.5199520972
O   O23       1.0  0.77280  0.35923  0.23764  1.0000 -0.1866067437
O   O24       1.0  0.52595  0.11320  0.22565  1.0000 -0.2116753471
