# DDEC6 charges by PACMAN v1.1 (https://github.com/mtap-research/PACMAN-charge/)
data_2019[In][stp]3[ASR]1
_chemical_formula_sum              "In12 H168 C318 O52"
_cell_length_a       32.0701
_cell_length_b       32.0701
_cell_length_c       33.4201
_cell_angle_alpha    90
_cell_angle_beta     90
_cell_angle_gamma    120

_symmetry_space_group_name_H-M    "P 1"
_symmetry_Int_Tables_number       1

loop_
  _symmetry_equiv_pos_as_xyz
  'x, y, z'

loop_
  _atom_site_type_symbol
  _atom_site_label
  _atom_site_symmetry_multiplicity
  _atom_site_fract_x
  _atom_site_fract_y
  _atom_site_fract_z
  _atom_site_occupancy
  _atom_site_charge
In  In1       1.0  0.59573  0.31318  0.00000  1.0000 1.4953431543
In  In2       1.0  0.71745  0.40427  0.00000  1.0000 1.4953431543
In  In3       1.0  0.68682  0.28255  0.00000  1.0000 1.4953431543
In  In4       1.0  0.40427  0.68682  0.00000  1.0000 1.4896769381
In  In5       1.0  0.28255  0.59573  0.00000  1.0000 1.4896769381
In  In6       1.0  0.31318  0.71745  0.00000  1.0000 1.4896769381
In  In7       1.0  0.28255  0.68682  0.50000  1.0000 1.4896769381
In  In8       1.0  0.31318  0.59573  0.50000  1.0000 1.4896769381
In  In9       1.0  0.40427  0.71745  0.50000  1.0000 1.4896769381
In  In10      1.0  0.71745  0.31318  0.50000  1.0000 1.4896769381
In  In11      1.0  0.68682  0.40427  0.50000  1.0000 1.4896769381
In  In12      1.0  0.59573  0.28255  0.50000  1.0000 1.4896769381
H   H1        1.0  0.54170  0.07050  0.80940  1.0000 0.1279669001
H   H2        1.0  0.43070  0.09260  0.82790  1.0000 0.1100802351
H   H3        1.0  0.51790  0.21430  0.90090  1.0000 0.1279669001
H   H4        1.0  0.61450  0.17210  0.90720  1.0000 0.1279669001
H   H5        1.0  0.47660  0.15580  0.85270  1.0000 0.1100802351
H   H6        1.0  0.38630  0.03290  0.77980  1.0000 0.1194254123
H   H7        1.0  0.56980  0.11100  0.86320  1.0000 0.1194254123
H   H8        1.0  0.52880  0.45830  0.80940  1.0000 0.1279669001
H   H9        1.0  0.66190  0.56930  0.82790  1.0000 0.1100802351
H   H10       1.0  0.69640  0.48210  0.90090  1.0000 0.1279669001
H   H11       1.0  0.55760  0.38550  0.90720  1.0000 0.1279669001
H   H12       1.0  0.67920  0.52340  0.85270  1.0000 0.1100802351
H   H13       1.0  0.64660  0.61370  0.77980  1.0000 0.1194254123
H   H14       1.0  0.54120  0.43020  0.86320  1.0000 0.1194254123
H   H15       1.0  0.92950  0.47120  0.80940  1.0000 0.1279669001
H   H16       1.0  0.90740  0.33810  0.82790  1.0000 0.1100802351
H   H17       1.0  0.78570  0.30360  0.90090  1.0000 0.1279669001
H   H18       1.0  0.82790  0.44240  0.90720  1.0000 0.1279669001
H   H19       1.0  0.84420  0.32080  0.85270  1.0000 0.1100802351
H   H20       1.0  0.96710  0.35340  0.77980  1.0000 0.1194254123
H   H21       1.0  0.88900  0.45880  0.86320  1.0000 0.1194254123
H   H22       1.0  0.45830  0.92950  0.80940  1.0000 0.1279669001
H   H23       1.0  0.56930  0.90740  0.82790  1.0000 0.1100802351
H   H24       1.0  0.48210  0.78570  0.90090  1.0000 0.1279669001
H   H25       1.0  0.38550  0.82790  0.90720  1.0000 0.1279669001
H   H26       1.0  0.52340  0.84420  0.85270  1.0000 0.1100802351
H   H27       1.0  0.61370  0.96710  0.77980  1.0000 0.1194254123
H   H28       1.0  0.43020  0.88900  0.86320  1.0000 0.1194254123
H   H29       1.0  0.47120  0.54170  0.80940  1.0000 0.1279669001
H   H30       1.0  0.33810  0.43070  0.82790  1.0000 0.1100802351
H   H31       1.0  0.30360  0.51790  0.90090  1.0000 0.1279669001
H   H32       1.0  0.44240  0.61450  0.90720  1.0000 0.1279669001
H   H33       1.0  0.32080  0.47660  0.85270  1.0000 0.1100802351
H   H34       1.0  0.35340  0.38630  0.77980  1.0000 0.1194254123
H   H35       1.0  0.45880  0.56980  0.86320  1.0000 0.1194254123
H   H36       1.0  0.07050  0.52880  0.80940  1.0000 0.1279669001
H   H37       1.0  0.09260  0.66190  0.82790  1.0000 0.1100802351
H   H38       1.0  0.21430  0.69640  0.90090  1.0000 0.1279669001
H   H39       1.0  0.17210  0.55760  0.90720  1.0000 0.1279669001
H   H40       1.0  0.15580  0.67920  0.85270  1.0000 0.1100802351
H   H41       1.0  0.03290  0.64660  0.77980  1.0000 0.1194254123
H   H42       1.0  0.11100  0.54120  0.86320  1.0000 0.1194254123
H   H43       1.0  0.47120  0.92950  0.69060  1.0000 0.1279669001
H   H44       1.0  0.33810  0.90740  0.67210  1.0000 0.1100802351
H   H45       1.0  0.30360  0.78570  0.59910  1.0000 0.1279669001
H   H46       1.0  0.44240  0.82790  0.59280  1.0000 0.1279669001
H   H47       1.0  0.32080  0.84420  0.64730  1.0000 0.1100802351
H   H48       1.0  0.35340  0.96710  0.72020  1.0000 0.1194254123
H   H49       1.0  0.45880  0.88900  0.63680  1.0000 0.1194254123
H   H50       1.0  0.07050  0.54170  0.69060  1.0000 0.1279669001
H   H51       1.0  0.09260  0.43070  0.67210  1.0000 0.1100802351
H   H52       1.0  0.21430  0.51790  0.59910  1.0000 0.1279669001
H   H53       1.0  0.17210  0.61450  0.59280  1.0000 0.1279669001
H   H54       1.0  0.15580  0.47660  0.64730  1.0000 0.1100802351
H   H55       1.0  0.03290  0.38630  0.72020  1.0000 0.1194254123
H   H56       1.0  0.11100  0.56980  0.63680  1.0000 0.1194254123
H   H57       1.0  0.45830  0.52880  0.69060  1.0000 0.1279669001
H   H58       1.0  0.56930  0.66190  0.67210  1.0000 0.1100802351
H   H59       1.0  0.48210  0.69640  0.59910  1.0000 0.1279669001
H   H60       1.0  0.38550  0.55760  0.59280  1.0000 0.1279669001
H   H61       1.0  0.52340  0.67920  0.64730  1.0000 0.1100802351
H   H62       1.0  0.61370  0.64660  0.72020  1.0000 0.1194254123
H   H63       1.0  0.43020  0.54120  0.63680  1.0000 0.1194254123
H   H64       1.0  0.52880  0.07050  0.69060  1.0000 0.1279669001
H   H65       1.0  0.66190  0.09260  0.67210  1.0000 0.1100802351
H   H66       1.0  0.69640  0.21430  0.59910  1.0000 0.1279669001
H   H67       1.0  0.55760  0.17210  0.59280  1.0000 0.1279669001
H   H68       1.0  0.67920  0.15580  0.64730  1.0000 0.1100802351
H   H69       1.0  0.64660  0.03290  0.72020  1.0000 0.1194254123
H   H70       1.0  0.54120  0.11100  0.63680  1.0000 0.1194254123
H   H71       1.0  0.92950  0.45830  0.69060  1.0000 0.1279669001
H   H72       1.0  0.90740  0.56930  0.67210  1.0000 0.1100802351
H   H73       1.0  0.78570  0.48210  0.59910  1.0000 0.1279669001
H   H74       1.0  0.82790  0.38550  0.59280  1.0000 0.1279669001
H   H75       1.0  0.84420  0.52340  0.64730  1.0000 0.1100802351
H   H76       1.0  0.96710  0.61370  0.72020  1.0000 0.1194254123
H   H77       1.0  0.88900  0.43020  0.63680  1.0000 0.1194254123
H   H78       1.0  0.54170  0.47120  0.69060  1.0000 0.1279669001
H   H79       1.0  0.43070  0.33810  0.67210  1.0000 0.1100802351
H   H80       1.0  0.51790  0.30360  0.59910  1.0000 0.1279669001
H   H81       1.0  0.61450  0.44240  0.59280  1.0000 0.1279669001
H   H82       1.0  0.47660  0.32080  0.64730  1.0000 0.1100802351
H   H83       1.0  0.38630  0.35340  0.72020  1.0000 0.1194254123
H   H84       1.0  0.56980  0.45880  0.63680  1.0000 0.1194254123
H   H85       1.0  0.45830  0.92950  0.19060  1.0000 0.1279669001
H   H86       1.0  0.56930  0.90740  0.17210  1.0000 0.1100802351
H   H87       1.0  0.48210  0.78570  0.09910  1.0000 0.1279669001
H   H88       1.0  0.38550  0.82790  0.09280  1.0000 0.1279669001
H   H89       1.0  0.52340  0.84420  0.14730  1.0000 0.1100802351
H   H90       1.0  0.61370  0.96710  0.22020  1.0000 0.1194254123
H   H91       1.0  0.43020  0.88900  0.13680  1.0000 0.1194254123
H   H92       1.0  0.47120  0.54170  0.19060  1.0000 0.1279669001
H   H93       1.0  0.33810  0.43070  0.17210  1.0000 0.1100802351
H   H94       1.0  0.30360  0.51790  0.09910  1.0000 0.1279669001
H   H95       1.0  0.44240  0.61450  0.09280  1.0000 0.1279669001
H   H96       1.0  0.32080  0.47660  0.14730  1.0000 0.1100802351
H   H97       1.0  0.35340  0.38630  0.22020  1.0000 0.1194254123
H   H98       1.0  0.45880  0.56980  0.13680  1.0000 0.1194254123
H   H99       1.0  0.07050  0.52880  0.19060  1.0000 0.1279669001
H   H100      1.0  0.09260  0.66190  0.17210  1.0000 0.1100802351
H   H101      1.0  0.21430  0.69640  0.09910  1.0000 0.1279669001
H   H102      1.0  0.17210  0.55760  0.09280  1.0000 0.1279669001
H   H103      1.0  0.15580  0.67920  0.14730  1.0000 0.1100802351
H   H104      1.0  0.03290  0.64660  0.22020  1.0000 0.1194254123
H   H105      1.0  0.11100  0.54120  0.13680  1.0000 0.1194254123
H   H106      1.0  0.54170  0.07050  0.19060  1.0000 0.1279669001
H   H107      1.0  0.43070  0.09260  0.17210  1.0000 0.1100802351
H   H108      1.0  0.51790  0.21430  0.09910  1.0000 0.1279669001
H   H109      1.0  0.61450  0.17210  0.09280  1.0000 0.1279669001
H   H110      1.0  0.47660  0.15580  0.14730  1.0000 0.1100802351
H   H111      1.0  0.38630  0.03290  0.22020  1.0000 0.1194254123
H   H112      1.0  0.56980  0.11100  0.13680  1.0000 0.1194254123
H   H113      1.0  0.52880  0.45830  0.19060  1.0000 0.1279669001
H   H114      1.0  0.66190  0.56930  0.17210  1.0000 0.1100802351
H   H115      1.0  0.69640  0.48210  0.09910  1.0000 0.1279669001
H   H116      1.0  0.55760  0.38550  0.09280  1.0000 0.1279669001
H   H117      1.0  0.67920  0.52340  0.14730  1.0000 0.1100802351
H   H118      1.0  0.64660  0.61370  0.22020  1.0000 0.1194254123
H   H119      1.0  0.54120  0.43020  0.13680  1.0000 0.1194254123
H   H120      1.0  0.92950  0.47120  0.19060  1.0000 0.1279669001
H   H121      1.0  0.90740  0.33810  0.17210  1.0000 0.1100802351
H   H122      1.0  0.78570  0.30360  0.09910  1.0000 0.1279669001
H   H123      1.0  0.82790  0.44240  0.09280  1.0000 0.1279669001
H   H124      1.0  0.84420  0.32080  0.14730  1.0000 0.1100802351
H   H125      1.0  0.96710  0.35340  0.22020  1.0000 0.1194254123
H   H126      1.0  0.88900  0.45880  0.13680  1.0000 0.1194254123
H   H127      1.0  0.52880  0.07050  0.30940  1.0000 0.1279669001
H   H128      1.0  0.66190  0.09260  0.32790  1.0000 0.1100802351
H   H129      1.0  0.69640  0.21430  0.40090  1.0000 0.1279669001
H   H130      1.0  0.55760  0.17210  0.40720  1.0000 0.1279669001
H   H131      1.0  0.67920  0.15580  0.35270  1.0000 0.1100802351
H   H132      1.0  0.64660  0.03290  0.27980  1.0000 0.1194254123
H   H133      1.0  0.54120  0.11100  0.36320  1.0000 0.1194254123
H   H134      1.0  0.92950  0.45830  0.30940  1.0000 0.1279669001
H   H135      1.0  0.90740  0.56930  0.32790  1.0000 0.1100802351
H   H136      1.0  0.78570  0.48210  0.40090  1.0000 0.1279669001
H   H137      1.0  0.82790  0.38550  0.40720  1.0000 0.1279669001
H   H138      1.0  0.84420  0.52340  0.35270  1.0000 0.1100802351
H   H139      1.0  0.96710  0.61370  0.27980  1.0000 0.1194254123
H   H140      1.0  0.88900  0.43020  0.36320  1.0000 0.1194254123
H   H141      1.0  0.54170  0.47120  0.30940  1.0000 0.1279669001
H   H142      1.0  0.43070  0.33810  0.32790  1.0000 0.1100802351
H   H143      1.0  0.51790  0.30360  0.40090  1.0000 0.1279669001
H   H144      1.0  0.61450  0.44240  0.40720  1.0000 0.1279669001
H   H145      1.0  0.47660  0.32080  0.35270  1.0000 0.1100802351
H   H146      1.0  0.38630  0.35340  0.27980  1.0000 0.1194254123
H   H147      1.0  0.56980  0.45880  0.36320  1.0000 0.1194254123
H   H148      1.0  0.47120  0.92950  0.30940  1.0000 0.1279669001
H   H149      1.0  0.33810  0.90740  0.32790  1.0000 0.1100802351
H   H150      1.0  0.30360  0.78570  0.40090  1.0000 0.1279669001
H   H151      1.0  0.44240  0.82790  0.40720  1.0000 0.1279669001
H   H152      1.0  0.32080  0.84420  0.35270  1.0000 0.1100802351
H   H153      1.0  0.35340  0.96710  0.27980  1.0000 0.1194254123
H   H154      1.0  0.45880  0.88900  0.36320  1.0000 0.1194254123
H   H155      1.0  0.07050  0.54170  0.30940  1.0000 0.1279669001
H   H156      1.0  0.09260  0.43070  0.32790  1.0000 0.1100802351
H   H157      1.0  0.21430  0.51790  0.40090  1.0000 0.1279669001
H   H158      1.0  0.17210  0.61450  0.40720  1.0000 0.1279669001
H   H159      1.0  0.15580  0.47660  0.35270  1.0000 0.1100802351
H   H160      1.0  0.03290  0.38630  0.27980  1.0000 0.1194254123
H   H161      1.0  0.11100  0.56980  0.36320  1.0000 0.1194254123
H   H162      1.0  0.45830  0.52880  0.30940  1.0000 0.1279669001
H   H163      1.0  0.56930  0.66190  0.32790  1.0000 0.1100802351
H   H164      1.0  0.48210  0.69640  0.40090  1.0000 0.1279669001
H   H165      1.0  0.38550  0.55760  0.40720  1.0000 0.1279669001
H   H166      1.0  0.52340  0.67920  0.35270  1.0000 0.1100802351
H   H167      1.0  0.61370  0.64660  0.27980  1.0000 0.1194254123
H   H168      1.0  0.43020  0.54120  0.36320  1.0000 0.1194254123
C   C1        1.0  0.56899  0.19753  0.91087  1.0000 -0.017616844
C   C2        1.0  0.59661  0.23670  0.94331  1.0000 0.6065598335
C   C3        1.0  0.51069  0.06350  0.80281  1.0000 -0.2062495599
C   C4        1.0  0.48518  0.02894  0.77433  1.0000 -0.0014136579
C   C5        1.0  0.51885  0.12761  0.85311  1.0000 0.0729915519
C   C6        1.0  0.44426  0.07688  0.81434  1.0000 -0.1599741042
C   C7        1.0  0.49101  0.08789  0.82170  1.0000 0.0832461222
C   C8        1.0  0.52890  0.19357  0.89349  1.0000 -0.0897924623
C   C9        1.0  0.58545  0.16803  0.89764  1.0000 -0.0897924623
C   C10       1.0  0.50399  0.15812  0.86438  1.0000 -0.1599741042
C   C11       1.0  0.41785  0.04112  0.78559  1.0000 -0.1599741042
C   C12       1.0  0.43890  0.01825  0.76591  1.0000 0.0131672026
C   C13       1.0  0.55937  0.13234  0.87023  1.0000 -0.1599741042
C   C14       1.0  0.62854  0.43101  0.91087  1.0000 -0.017616844
C   C15       1.0  0.64009  0.40339  0.94331  1.0000 0.6065598335
C   C16       1.0  0.55281  0.48931  0.80281  1.0000 -0.2062495599
C   C17       1.0  0.54376  0.51482  0.77433  1.0000 -0.0014136579
C   C18       1.0  0.60876  0.48115  0.85311  1.0000 0.0729915519
C   C19       1.0  0.63262  0.55574  0.81434  1.0000 -0.1599741042
C   C20       1.0  0.59688  0.50899  0.82170  1.0000 0.0832461222
C   C21       1.0  0.66467  0.47110  0.89349  1.0000 -0.0897924623
C   C22       1.0  0.58258  0.41455  0.89764  1.0000 -0.0897924623
C   C23       1.0  0.65413  0.49601  0.86438  1.0000 -0.1599741042
C   C24       1.0  0.62327  0.58215  0.78559  1.0000 -0.1599741042
C   C25       1.0  0.57935  0.56110  0.76591  1.0000 0.0131672026
C   C26       1.0  0.57297  0.44063  0.87023  1.0000 -0.1599741042
C   C27       1.0  0.80247  0.37146  0.91087  1.0000 -0.017616844
C   C28       1.0  0.76330  0.35991  0.94331  1.0000 0.6065598335
C   C29       1.0  0.93650  0.44719  0.80281  1.0000 -0.2062495599
C   C30       1.0  0.97106  0.45624  0.77433  1.0000 -0.0014136579
C   C31       1.0  0.87239  0.39124  0.85311  1.0000 0.0729915519
C   C32       1.0  0.92312  0.36738  0.81434  1.0000 -0.1599741042
C   C33       1.0  0.91211  0.40312  0.82170  1.0000 0.0832461222
C   C34       1.0  0.80643  0.33533  0.89349  1.0000 -0.0897924623
C   C35       1.0  0.83197  0.41742  0.89764  1.0000 -0.0897924623
C   C36       1.0  0.84188  0.34587  0.86438  1.0000 -0.1599741042
C   C37       1.0  0.95888  0.37673  0.78559  1.0000 -0.1599741042
C   C38       1.0  0.98175  0.42065  0.76591  1.0000 0.0131672026
C   C39       1.0  0.86766  0.42703  0.87023  1.0000 -0.1599741042
C   C40       1.0  0.43101  0.80247  0.91087  1.0000 -0.017616844
C   C41       1.0  0.40339  0.76330  0.94331  1.0000 0.6065598335
C   C42       1.0  0.48931  0.93650  0.80281  1.0000 -0.2062495599
C   C43       1.0  0.51482  0.97106  0.77433  1.0000 -0.0014136579
C   C44       1.0  0.48115  0.87239  0.85311  1.0000 0.0729915519
C   C45       1.0  0.55574  0.92312  0.81434  1.0000 -0.1599741042
C   C46       1.0  0.50899  0.91211  0.82170  1.0000 0.0832461222
C   C47       1.0  0.47110  0.80643  0.89349  1.0000 -0.0897924623
C   C48       1.0  0.41455  0.83197  0.89764  1.0000 -0.0897924623
C   C49       1.0  0.49601  0.84188  0.86438  1.0000 -0.1599741042
C   C50       1.0  0.58215  0.95888  0.78559  1.0000 -0.1599741042
C   C51       1.0  0.56110  0.98175  0.76591  1.0000 0.0131672026
C   C52       1.0  0.44063  0.86766  0.87023  1.0000 -0.1599741042
C   C53       1.0  0.37146  0.56899  0.91087  1.0000 -0.017616844
C   C54       1.0  0.35991  0.59661  0.94331  1.0000 0.6065598335
C   C55       1.0  0.44719  0.51069  0.80281  1.0000 -0.2062495599
C   C56       1.0  0.45624  0.48518  0.77433  1.0000 -0.0014136579
C   C57       1.0  0.39124  0.51885  0.85311  1.0000 0.0729915519
C   C58       1.0  0.36738  0.44426  0.81434  1.0000 -0.1599741042
C   C59       1.0  0.40312  0.49101  0.82170  1.0000 0.0832461222
C   C60       1.0  0.33533  0.52890  0.89349  1.0000 -0.0897924623
C   C61       1.0  0.41742  0.58545  0.89764  1.0000 -0.0897924623
C   C62       1.0  0.34587  0.50399  0.86438  1.0000 -0.1599741042
C   C63       1.0  0.37673  0.41785  0.78559  1.0000 -0.1599741042
C   C64       1.0  0.42065  0.43890  0.76591  1.0000 0.0131672026
C   C65       1.0  0.42703  0.55937  0.87023  1.0000 -0.1599741042
C   C66       1.0  0.19753  0.62854  0.91087  1.0000 -0.017616844
C   C67       1.0  0.23670  0.64009  0.94331  1.0000 0.6065598335
C   C68       1.0  0.06350  0.55281  0.80281  1.0000 -0.2062495599
C   C69       1.0  0.02894  0.54376  0.77433  1.0000 -0.0014136579
C   C70       1.0  0.12761  0.60876  0.85311  1.0000 0.0729915519
C   C71       1.0  0.07688  0.63262  0.81434  1.0000 -0.1599741042
C   C72       1.0  0.08789  0.59688  0.82170  1.0000 0.0832461222
C   C73       1.0  0.19357  0.66467  0.89349  1.0000 -0.0897924623
C   C74       1.0  0.16803  0.58258  0.89764  1.0000 -0.0897924623
C   C75       1.0  0.15812  0.65413  0.86438  1.0000 -0.1599741042
C   C76       1.0  0.04112  0.62327  0.78559  1.0000 -0.1599741042
C   C77       1.0  0.01825  0.57935  0.76591  1.0000 0.0131672026
C   C78       1.0  0.13234  0.57297  0.87023  1.0000 -0.1599741042
C   C79       1.0  0.37146  0.80247  0.58913  1.0000 -0.017616844
C   C80       1.0  0.35991  0.76330  0.55669  1.0000 0.6065598335
C   C81       1.0  0.44719  0.93650  0.69719  1.0000 -0.2062495599
C   C82       1.0  0.45624  0.97106  0.72567  1.0000 -0.0014136579
C   C83       1.0  0.39124  0.87239  0.64689  1.0000 0.0729915519
C   C84       1.0  0.36738  0.92312  0.68566  1.0000 -0.1599741042
C   C85       1.0  0.40312  0.91211  0.67830  1.0000 0.0832461222
C   C86       1.0  0.33533  0.80643  0.60651  1.0000 -0.0897924623
C   C87       1.0  0.41742  0.83197  0.60236  1.0000 -0.0897924623
C   C88       1.0  0.34587  0.84188  0.63562  1.0000 -0.1599741042
C   C89       1.0  0.37673  0.95888  0.71441  1.0000 -0.1599741042
C   C90       1.0  0.42065  0.98175  0.73409  1.0000 0.0131672026
C   C91       1.0  0.42703  0.86766  0.62977  1.0000 -0.1599741042
C   C92       1.0  0.19753  0.56899  0.58913  1.0000 -0.017616844
C   C93       1.0  0.23670  0.59661  0.55669  1.0000 0.6065598335
C   C94       1.0  0.06350  0.51069  0.69719  1.0000 -0.2062495599
C   C95       1.0  0.02894  0.48518  0.72567  1.0000 -0.0014136579
C   C96       1.0  0.12761  0.51885  0.64689  1.0000 0.0729915519
C   C97       1.0  0.07688  0.44426  0.68566  1.0000 -0.1599741042
C   C98       1.0  0.08789  0.49101  0.67830  1.0000 0.0832461222
C   C99       1.0  0.19357  0.52890  0.60651  1.0000 -0.0897924623
C   C100      1.0  0.16803  0.58545  0.60236  1.0000 -0.0897924623
C   C101      1.0  0.15812  0.50399  0.63562  1.0000 -0.1599741042
C   C102      1.0  0.04112  0.41785  0.71441  1.0000 -0.1599741042
C   C103      1.0  0.01825  0.43890  0.73409  1.0000 0.0131672026
C   C104      1.0  0.13234  0.55937  0.62977  1.0000 -0.1599741042
C   C105      1.0  0.43101  0.62854  0.58913  1.0000 -0.017616844
C   C106      1.0  0.40339  0.64009  0.55669  1.0000 0.6065598335
C   C107      1.0  0.48931  0.55281  0.69719  1.0000 -0.2062495599
C   C108      1.0  0.51482  0.54376  0.72567  1.0000 -0.0014136579
C   C109      1.0  0.48115  0.60876  0.64689  1.0000 0.0729915519
C   C110      1.0  0.55574  0.63262  0.68566  1.0000 -0.1599741042
C   C111      1.0  0.50899  0.59688  0.67830  1.0000 0.0832461222
C   C112      1.0  0.47110  0.66467  0.60651  1.0000 -0.0897924623
C   C113      1.0  0.41455  0.58258  0.60236  1.0000 -0.0897924623
C   C114      1.0  0.49601  0.65413  0.63562  1.0000 -0.1599741042
C   C115      1.0  0.58215  0.62327  0.71441  1.0000 -0.1599741042
C   C116      1.0  0.56110  0.57935  0.73409  1.0000 0.0131672026
C   C117      1.0  0.44063  0.57297  0.62977  1.0000 -0.1599741042
C   C118      1.0  0.62854  0.19753  0.58913  1.0000 -0.017616844
C   C119      1.0  0.64009  0.23670  0.55669  1.0000 0.6065598335
C   C120      1.0  0.55281  0.06350  0.69719  1.0000 -0.2062495599
C   C121      1.0  0.54376  0.02894  0.72567  1.0000 -0.0014136579
C   C122      1.0  0.60876  0.12761  0.64689  1.0000 0.0729915519
C   C123      1.0  0.63262  0.07688  0.68566  1.0000 -0.1599741042
C   C124      1.0  0.59688  0.08789  0.67830  1.0000 0.0832461222
C   C125      1.0  0.66467  0.19357  0.60651  1.0000 -0.0897924623
C   C126      1.0  0.58258  0.16803  0.60236  1.0000 -0.0897924623
C   C127      1.0  0.65413  0.15812  0.63562  1.0000 -0.1599741042
C   C128      1.0  0.62327  0.04112  0.71441  1.0000 -0.1599741042
C   C129      1.0  0.57935  0.01825  0.73409  1.0000 0.0131672026
C   C130      1.0  0.57297  0.13234  0.62977  1.0000 -0.1599741042
C   C131      1.0  0.80247  0.43101  0.58913  1.0000 -0.017616844
C   C132      1.0  0.76330  0.40339  0.55669  1.0000 0.6065598335
C   C133      1.0  0.93650  0.48931  0.69719  1.0000 -0.2062495599
C   C134      1.0  0.97106  0.51482  0.72567  1.0000 -0.0014136579
C   C135      1.0  0.87239  0.48115  0.64689  1.0000 0.0729915519
C   C136      1.0  0.92312  0.55574  0.68566  1.0000 -0.1599741042
C   C137      1.0  0.91211  0.50899  0.67830  1.0000 0.0832461222
C   C138      1.0  0.80643  0.47110  0.60651  1.0000 -0.0897924623
C   C139      1.0  0.83197  0.41455  0.60236  1.0000 -0.0897924623
C   C140      1.0  0.84188  0.49601  0.63562  1.0000 -0.1599741042
C   C141      1.0  0.95888  0.58215  0.71441  1.0000 -0.1599741042
C   C142      1.0  0.98175  0.56110  0.73409  1.0000 0.0131672026
C   C143      1.0  0.86766  0.44063  0.62977  1.0000 -0.1599741042
C   C144      1.0  0.56899  0.37146  0.58913  1.0000 -0.017616844
C   C145      1.0  0.59661  0.35991  0.55669  1.0000 0.6065598335
C   C146      1.0  0.51069  0.44719  0.69719  1.0000 -0.2062495599
C   C147      1.0  0.48518  0.45624  0.72567  1.0000 -0.0014136579
C   C148      1.0  0.51885  0.39124  0.64689  1.0000 0.0729915519
C   C149      1.0  0.44426  0.36738  0.68566  1.0000 -0.1599741042
C   C150      1.0  0.49101  0.40312  0.67830  1.0000 0.0832461222
C   C151      1.0  0.52890  0.33533  0.60651  1.0000 -0.0897924623
C   C152      1.0  0.58545  0.41742  0.60236  1.0000 -0.0897924623
C   C153      1.0  0.50399  0.34587  0.63562  1.0000 -0.1599741042
C   C154      1.0  0.41785  0.37673  0.71441  1.0000 -0.1599741042
C   C155      1.0  0.43890  0.42065  0.73409  1.0000 0.0131672026
C   C156      1.0  0.55937  0.42703  0.62977  1.0000 -0.1599741042
C   C157      1.0  0.43101  0.80247  0.08913  1.0000 -0.017616844
C   C158      1.0  0.40339  0.76330  0.05669  1.0000 0.6065598335
C   C159      1.0  0.48931  0.93650  0.19719  1.0000 -0.2062495599
C   C160      1.0  0.51482  0.97106  0.22567  1.0000 -0.0014136579
C   C161      1.0  0.48115  0.87239  0.14689  1.0000 0.0729915519
C   C162      1.0  0.55574  0.92312  0.18566  1.0000 -0.1599741042
C   C163      1.0  0.50899  0.91211  0.17830  1.0000 0.0832461222
C   C164      1.0  0.47110  0.80643  0.10651  1.0000 -0.0897924623
C   C165      1.0  0.41455  0.83197  0.10236  1.0000 -0.0897924623
C   C166      1.0  0.49601  0.84188  0.13562  1.0000 -0.1599741042
C   C167      1.0  0.58215  0.95888  0.21441  1.0000 -0.1599741042
C   C168      1.0  0.56110  0.98175  0.23409  1.0000 0.0151321516
C   C169      1.0  0.44063  0.86766  0.12977  1.0000 -0.1599741042
C   C170      1.0  0.37146  0.56899  0.08913  1.0000 -0.017616844
C   C171      1.0  0.35991  0.59661  0.05669  1.0000 0.6065598335
C   C172      1.0  0.44719  0.51069  0.19719  1.0000 -0.2062495599
C   C173      1.0  0.45624  0.48518  0.22567  1.0000 -0.0014136579
C   C174      1.0  0.39124  0.51885  0.14689  1.0000 0.0729915519
C   C175      1.0  0.36738  0.44426  0.18566  1.0000 -0.1599741042
C   C176      1.0  0.40312  0.49101  0.17830  1.0000 0.0832461222
C   C177      1.0  0.33533  0.52890  0.10651  1.0000 -0.0897924623
C   C178      1.0  0.41742  0.58545  0.10236  1.0000 -0.0897924623
C   C179      1.0  0.34587  0.50399  0.13562  1.0000 -0.1599741042
C   C180      1.0  0.37673  0.41785  0.21441  1.0000 -0.1599741042
C   C181      1.0  0.42065  0.43890  0.23409  1.0000 0.0131672026
C   C182      1.0  0.42703  0.55937  0.12977  1.0000 -0.1599741042
C   C183      1.0  0.19753  0.62854  0.08913  1.0000 -0.017616844
C   C184      1.0  0.23670  0.64009  0.05669  1.0000 0.6065598335
C   C185      1.0  0.06350  0.55281  0.19719  1.0000 -0.2062495599
C   C186      1.0  0.02894  0.54376  0.22567  1.0000 -0.0014136579
C   C187      1.0  0.12761  0.60876  0.14689  1.0000 0.0729915519
C   C188      1.0  0.07688  0.63262  0.18566  1.0000 -0.1599741042
C   C189      1.0  0.08789  0.59688  0.17830  1.0000 0.0832461222
C   C190      1.0  0.19357  0.66467  0.10651  1.0000 -0.0897924623
C   C191      1.0  0.16803  0.58258  0.10236  1.0000 -0.0897924623
C   C192      1.0  0.15812  0.65413  0.13562  1.0000 -0.1599741042
C   C193      1.0  0.04112  0.62327  0.21441  1.0000 -0.1599741042
C   C194      1.0  0.01825  0.57935  0.23409  1.0000 0.0131672026
C   C195      1.0  0.13234  0.57297  0.12977  1.0000 -0.1599741042
C   C196      1.0  0.56899  0.19753  0.08913  1.0000 -0.017616844
C   C197      1.0  0.59661  0.23670  0.05669  1.0000 0.6065598335
C   C198      1.0  0.51069  0.06350  0.19719  1.0000 -0.2062495599
C   C199      1.0  0.48518  0.02894  0.22567  1.0000 -0.0014136579
C   C200      1.0  0.51885  0.12761  0.14689  1.0000 0.0729915519
C   C201      1.0  0.44426  0.07688  0.18566  1.0000 -0.1599741042
C   C202      1.0  0.49101  0.08789  0.17830  1.0000 0.0832461222
C   C203      1.0  0.52890  0.19357  0.10651  1.0000 -0.0897924623
C   C204      1.0  0.58545  0.16803  0.10236  1.0000 -0.0897924623
C   C205      1.0  0.50399  0.15812  0.13562  1.0000 -0.1599741042
C   C206      1.0  0.41785  0.04112  0.21441  1.0000 -0.1599741042
C   C207      1.0  0.43890  0.01825  0.23409  1.0000 0.0131672026
C   C208      1.0  0.55937  0.13234  0.12977  1.0000 -0.1599741042
C   C209      1.0  0.62854  0.43101  0.08913  1.0000 -0.017616844
C   C210      1.0  0.64009  0.40339  0.05669  1.0000 0.6065598335
C   C211      1.0  0.55281  0.48931  0.19719  1.0000 -0.2062495599
C   C212      1.0  0.54376  0.51482  0.22567  1.0000 -0.0014136579
C   C213      1.0  0.60876  0.48115  0.14689  1.0000 0.0729915519
C   C214      1.0  0.63262  0.55574  0.18566  1.0000 -0.1599741042
C   C215      1.0  0.59688  0.50899  0.17830  1.0000 0.0832461222
C   C216      1.0  0.66467  0.47110  0.10651  1.0000 -0.0897924623
C   C217      1.0  0.58258  0.41455  0.10236  1.0000 -0.0897924623
C   C218      1.0  0.65413  0.49601  0.13562  1.0000 -0.1599741042
C   C219      1.0  0.62327  0.58215  0.21441  1.0000 -0.1599741042
C   C220      1.0  0.57935  0.56110  0.23409  1.0000 0.0131672026
C   C221      1.0  0.57297  0.44063  0.12977  1.0000 -0.1599741042
C   C222      1.0  0.80247  0.37146  0.08913  1.0000 -0.017616844
C   C223      1.0  0.76330  0.35991  0.05669  1.0000 0.6065598335
C   C224      1.0  0.93650  0.44719  0.19719  1.0000 -0.2062495599
C   C225      1.0  0.97106  0.45624  0.22567  1.0000 -0.0014136579
C   C226      1.0  0.87239  0.39124  0.14689  1.0000 0.0729915519
C   C227      1.0  0.92312  0.36738  0.18566  1.0000 -0.1599741042
C   C228      1.0  0.91211  0.40312  0.17830  1.0000 0.0832461222
C   C229      1.0  0.80643  0.33533  0.10651  1.0000 -0.0897924623
C   C230      1.0  0.83197  0.41742  0.10236  1.0000 -0.0897924623
C   C231      1.0  0.84188  0.34587  0.13562  1.0000 -0.1599741042
C   C232      1.0  0.95888  0.37673  0.21441  1.0000 -0.1599741042
C   C233      1.0  0.98175  0.42065  0.23409  1.0000 0.0151321516
C   C234      1.0  0.86766  0.42703  0.12977  1.0000 -0.1599741042
C   C235      1.0  0.62854  0.19753  0.41087  1.0000 -0.017616844
C   C236      1.0  0.64009  0.23670  0.44331  1.0000 0.6065598335
C   C237      1.0  0.55281  0.06350  0.30281  1.0000 -0.2062495599
C   C238      1.0  0.54376  0.02894  0.27433  1.0000 -0.0014136579
C   C239      1.0  0.60876  0.12761  0.35311  1.0000 0.0729915519
C   C240      1.0  0.63262  0.07688  0.31434  1.0000 -0.1599741042
C   C241      1.0  0.59688  0.08789  0.32170  1.0000 0.0832461222
C   C242      1.0  0.66467  0.19357  0.39349  1.0000 -0.0897924623
C   C243      1.0  0.58258  0.16803  0.39764  1.0000 -0.0897924623
C   C244      1.0  0.65413  0.15812  0.36438  1.0000 -0.1599741042
C   C245      1.0  0.62327  0.04112  0.28559  1.0000 -0.1599741042
C   C246      1.0  0.57935  0.01825  0.26591  1.0000 0.0131672026
C   C247      1.0  0.57297  0.13234  0.37023  1.0000 -0.1599741042
C   C248      1.0  0.80247  0.43101  0.41087  1.0000 -0.017616844
C   C249      1.0  0.76330  0.40339  0.44331  1.0000 0.6065598335
C   C250      1.0  0.93650  0.48931  0.30281  1.0000 -0.2062495599
C   C251      1.0  0.97106  0.51482  0.27433  1.0000 5.75567e-05
C   C252      1.0  0.87239  0.48115  0.35311  1.0000 0.0729915519
C   C253      1.0  0.92312  0.55574  0.31434  1.0000 -0.1599741042
C   C254      1.0  0.91211  0.50899  0.32170  1.0000 0.0832461222
C   C255      1.0  0.80643  0.47110  0.39349  1.0000 -0.0897924623
C   C256      1.0  0.83197  0.41455  0.39764  1.0000 -0.0897924623
C   C257      1.0  0.84188  0.49601  0.36438  1.0000 -0.1599741042
C   C258      1.0  0.95888  0.58215  0.28559  1.0000 -0.1599741042
C   C259      1.0  0.98175  0.56110  0.26591  1.0000 0.0131672026
C   C260      1.0  0.86766  0.44063  0.37023  1.0000 -0.1599741042
C   C261      1.0  0.56899  0.37146  0.41087  1.0000 -0.017616844
C   C262      1.0  0.59661  0.35991  0.44331  1.0000 0.6065598335
C   C263      1.0  0.51069  0.44719  0.30281  1.0000 -0.2062495599
C   C264      1.0  0.48518  0.45624  0.27433  1.0000 -0.0014136579
C   C265      1.0  0.51885  0.39124  0.35311  1.0000 0.0729915519
C   C266      1.0  0.44426  0.36738  0.31434  1.0000 -0.1599741042
C   C267      1.0  0.49101  0.40312  0.32170  1.0000 0.0832461222
C   C268      1.0  0.52890  0.33533  0.39349  1.0000 -0.0897924623
C   C269      1.0  0.58545  0.41742  0.39764  1.0000 -0.0897924623
C   C270      1.0  0.50399  0.34587  0.36438  1.0000 -0.1599741042
C   C271      1.0  0.41785  0.37673  0.28559  1.0000 -0.1599741042
C   C272      1.0  0.43890  0.42065  0.26591  1.0000 0.0131672026
C   C273      1.0  0.55937  0.42703  0.37023  1.0000 -0.1599741042
C   C274      1.0  0.37146  0.80247  0.41087  1.0000 -0.017616844
C   C275      1.0  0.35991  0.76330  0.44331  1.0000 0.6065598335
C   C276      1.0  0.44719  0.93650  0.30281  1.0000 -0.2062495599
C   C277      1.0  0.45624  0.97106  0.27433  1.0000 -0.0014136579
C   C278      1.0  0.39124  0.87239  0.35311  1.0000 0.0729915519
C   C279      1.0  0.36738  0.92312  0.31434  1.0000 -0.1599741042
C   C280      1.0  0.40312  0.91211  0.32170  1.0000 0.0832461222
C   C281      1.0  0.33533  0.80643  0.39349  1.0000 -0.0897924623
C   C282      1.0  0.41742  0.83197  0.39764  1.0000 -0.0897924623
C   C283      1.0  0.34587  0.84188  0.36438  1.0000 -0.1599741042
C   C284      1.0  0.37673  0.95888  0.28559  1.0000 -0.1599741042
C   C285      1.0  0.42065  0.98175  0.26591  1.0000 0.0131672026
C   C286      1.0  0.42703  0.86766  0.37023  1.0000 -0.1599741042
C   C287      1.0  0.19753  0.56899  0.41087  1.0000 -0.017616844
C   C288      1.0  0.23670  0.59661  0.44331  1.0000 0.6065598335
C   C289      1.0  0.06350  0.51069  0.30281  1.0000 -0.2062495599
C   C290      1.0  0.02894  0.48518  0.27433  1.0000 -0.0014136579
C   C291      1.0  0.12761  0.51885  0.35311  1.0000 0.0729915519
C   C292      1.0  0.07688  0.44426  0.31434  1.0000 -0.1599741042
C   C293      1.0  0.08789  0.49101  0.32170  1.0000 0.0832461222
C   C294      1.0  0.19357  0.52890  0.39349  1.0000 -0.0897924623
C   C295      1.0  0.16803  0.58545  0.39764  1.0000 -0.0897924623
C   C296      1.0  0.15812  0.50399  0.36438  1.0000 -0.1599741042
C   C297      1.0  0.04112  0.41785  0.28559  1.0000 -0.1599741042
C   C298      1.0  0.01825  0.43890  0.26591  1.0000 0.0131672026
C   C299      1.0  0.13234  0.55937  0.37023  1.0000 -0.1599741042
C   C300      1.0  0.43101  0.62854  0.41087  1.0000 -0.017616844
C   C301      1.0  0.40339  0.64009  0.44331  1.0000 0.6065598335
C   C302      1.0  0.48931  0.55281  0.30281  1.0000 -0.2062495599
C   C303      1.0  0.51482  0.54376  0.27433  1.0000 -0.0014136579
C   C304      1.0  0.48115  0.60876  0.35311  1.0000 0.0729915519
C   C305      1.0  0.55574  0.63262  0.31434  1.0000 -0.1599741042
C   C306      1.0  0.50899  0.59688  0.32170  1.0000 0.0832461222
C   C307      1.0  0.47110  0.66467  0.39349  1.0000 -0.0897924623
C   C308      1.0  0.41455  0.58258  0.39764  1.0000 -0.0897924623
C   C309      1.0  0.49601  0.65413  0.36438  1.0000 -0.1599741042
C   C310      1.0  0.58215  0.62327  0.28559  1.0000 -0.1599741042
C   C311      1.0  0.56110  0.57935  0.26591  1.0000 0.0131672026
C   C312      1.0  0.44063  0.57297  0.37023  1.0000 -0.1599741042
C   C313      1.0  0.50000  0.00000  0.75000  1.0000 0.0131672026
C   C314      1.0  0.50000  0.50000  0.75000  1.0000 0.0131672026
C   C315      1.0  0.00000  0.50000  0.75000  1.0000 0.0131672026
C   C316      1.0  0.50000  0.00000  0.25000  1.0000 0.0131672026
C   C317      1.0  0.50000  0.50000  0.25000  1.0000 0.0131672026
C   C318      1.0  0.00000  0.50000  0.25000  1.0000 0.0131672026
O   O1        1.0  0.57670  0.25910  0.95474  1.0000 -0.5563508986
O   O2        1.0  0.63540  0.23849  0.95470  1.0000 -0.5858716164
O   O3        1.0  0.68240  0.42330  0.95474  1.0000 -0.5563508986
O   O4        1.0  0.60309  0.36460  0.95470  1.0000 -0.5858716164
O   O5        1.0  0.74090  0.31760  0.95474  1.0000 -0.5563508986
O   O6        1.0  0.76151  0.39691  0.95470  1.0000 -0.5858716164
O   O7        1.0  0.42330  0.74090  0.95474  1.0000 -0.5563508986
O   O8        1.0  0.36460  0.76151  0.95470  1.0000 -0.5848365966
O   O9        1.0  0.31760  0.57670  0.95474  1.0000 -0.5563508986
O   O10       1.0  0.39691  0.63540  0.95470  1.0000 -0.5848365966
O   O11       1.0  0.25910  0.68240  0.95474  1.0000 -0.5563508986
O   O12       1.0  0.23849  0.60309  0.95470  1.0000 -0.5858716164
O   O13       1.0  0.31760  0.74090  0.54526  1.0000 -0.5563508986
O   O14       1.0  0.39691  0.76151  0.54530  1.0000 -0.5848365966
O   O15       1.0  0.25910  0.57670  0.54526  1.0000 -0.5563508986
O   O16       1.0  0.23849  0.63540  0.54530  1.0000 -0.5848365966
O   O17       1.0  0.42330  0.68240  0.54526  1.0000 -0.5563508986
O   O18       1.0  0.36460  0.60309  0.54530  1.0000 -0.5848365966
O   O19       1.0  0.68240  0.25910  0.54526  1.0000 -0.5563508986
O   O20       1.0  0.60309  0.23849  0.54530  1.0000 -0.5858716164
O   O21       1.0  0.74090  0.42330  0.54526  1.0000 -0.5563508986
O   O22       1.0  0.76151  0.36460  0.54530  1.0000 -0.5858716164
O   O23       1.0  0.57670  0.31760  0.54526  1.0000 -0.5563508986
O   O24       1.0  0.63540  0.39691  0.54530  1.0000 -0.5858716164
O   O25       1.0  0.42330  0.74090  0.04526  1.0000 -0.5563508986
O   O26       1.0  0.36460  0.76151  0.04530  1.0000 -0.5848365966
O   O27       1.0  0.31760  0.57670  0.04526  1.0000 -0.5563508986
O   O28       1.0  0.39691  0.63540  0.04530  1.0000 -0.5848365966
O   O29       1.0  0.25910  0.68240  0.04526  1.0000 -0.5563508986
O   O30       1.0  0.23849  0.60309  0.04530  1.0000 -0.5848365966
O   O31       1.0  0.57670  0.25910  0.04526  1.0000 -0.5563508986
O   O32       1.0  0.63540  0.23849  0.04530  1.0000 -0.5858716164
O   O33       1.0  0.68240  0.42330  0.04526  1.0000 -0.5563508986
O   O34       1.0  0.60309  0.36460  0.04530  1.0000 -0.5858716164
O   O35       1.0  0.74090  0.31760  0.04526  1.0000 -0.5563508986
O   O36       1.0  0.76151  0.39691  0.04530  1.0000 -0.5858716164
O   O37       1.0  0.68240  0.25910  0.45474  1.0000 -0.5563508986
O   O38       1.0  0.60309  0.23849  0.45470  1.0000 -0.5858716164
O   O39       1.0  0.74090  0.42330  0.45474  1.0000 -0.5563508986
O   O40       1.0  0.76151  0.36460  0.45470  1.0000 -0.5858716164
O   O41       1.0  0.57670  0.31760  0.45474  1.0000 -0.5563508986
O   O42       1.0  0.63540  0.39691  0.45470  1.0000 -0.5848365966
O   O43       1.0  0.31760  0.74090  0.45474  1.0000 -0.5563508986
O   O44       1.0  0.39691  0.76151  0.45470  1.0000 -0.5848365966
O   O45       1.0  0.25910  0.57670  0.45474  1.0000 -0.5563508986
O   O46       1.0  0.23849  0.63540  0.45470  1.0000 -0.5848365966
O   O47       1.0  0.42330  0.68240  0.45474  1.0000 -0.5563508986
O   O48       1.0  0.36460  0.60309  0.45470  1.0000 -0.5848365966
O   O49       1.0  0.66667  0.33333  0.00000  1.0000 -1.08884334
O   O50       1.0  0.33333  0.66667  0.00000  1.0000 -1.08884334
O   O51       1.0  0.33333  0.66667  0.50000  1.0000 -1.08884334
O   O52       1.0  0.66667  0.33333  0.50000  1.0000 -1.08884334
