# DDEC6 charges by PACMAN v1.1 (https://github.com/mtap-research/PACMAN-charge/)
data_2019[Fe][stp]3[ASR]1
_chemical_formula_sum              "Fe12 H168 C318 O52"
_cell_length_a       31.473
_cell_length_b       31.473
_cell_length_c       33.1372
_cell_angle_alpha    90
_cell_angle_beta     90
_cell_angle_gamma    120

_symmetry_space_group_name_H-M    "P 1"
_symmetry_Int_Tables_number       1

loop_
  _symmetry_equiv_pos_as_xyz
  'x, y, z'

loop_
  _atom_site_type_symbol
  _atom_site_label
  _atom_site_symmetry_multiplicity
  _atom_site_fract_x
  _atom_site_fract_y
  _atom_site_fract_z
  _atom_site_occupancy
  _atom_site_charge
Fe  Fe1       1.0  0.71574  0.31435  0.00000  1.0000 1.1796011031
Fe  Fe2       1.0  0.59861  0.28426  0.00000  1.0000 1.1796011031
Fe  Fe3       1.0  0.68565  0.40139  0.00000  1.0000 1.1796011031
Fe  Fe4       1.0  0.28426  0.68565  0.00000  1.0000 1.1796011031
Fe  Fe5       1.0  0.40139  0.71574  0.00000  1.0000 1.1796011031
Fe  Fe6       1.0  0.31435  0.59861  0.00000  1.0000 1.1796011031
Fe  Fe7       1.0  0.40139  0.68565  0.50000  1.0000 1.1796011031
Fe  Fe8       1.0  0.31435  0.71574  0.50000  1.0000 1.1796011031
Fe  Fe9       1.0  0.28426  0.59861  0.50000  1.0000 1.1796011031
Fe  Fe10      1.0  0.59861  0.31435  0.50000  1.0000 1.1796011031
Fe  Fe11      1.0  0.68565  0.28426  0.50000  1.0000 1.1796011031
Fe  Fe12      1.0  0.71574  0.40139  0.50000  1.0000 1.1796011031
H   H1        1.0  0.69890  0.21970  0.90310  1.0000 0.1292668859
H   H2        1.0  0.68310  0.15910  0.85480  1.0000 0.1125334298
H   H3        1.0  0.54100  0.11440  0.86210  1.0000 0.1186779232
H   H4        1.0  0.55860  0.17360  0.91090  1.0000 0.1292668859
H   H5        1.0  0.66590  0.09560  0.82700  1.0000 0.1186779232
H   H6        1.0  0.65150  0.03600  0.77860  1.0000 0.1292668859
H   H7        1.0  0.52960  0.07370  0.80940  1.0000 0.1292668859
H   H8        1.0  0.52080  0.30110  0.90310  1.0000 0.1292668859
H   H9        1.0  0.47600  0.31690  0.85480  1.0000 0.1125334298
H   H10       1.0  0.57340  0.45900  0.86210  1.0000 0.1186779232
H   H11       1.0  0.61500  0.44140  0.91090  1.0000 0.1292668859
H   H12       1.0  0.42970  0.33410  0.82700  1.0000 0.1186779232
H   H13       1.0  0.38450  0.34850  0.77860  1.0000 0.1292668859
H   H14       1.0  0.54410  0.47040  0.80940  1.0000 0.1292668859
H   H15       1.0  0.78030  0.47920  0.90310  1.0000 0.1292668859
H   H16       1.0  0.84090  0.52400  0.85480  1.0000 0.1125334298
H   H17       1.0  0.88560  0.42660  0.86210  1.0000 0.1186779232
H   H18       1.0  0.82640  0.38500  0.91090  1.0000 0.1292668859
H   H19       1.0  0.90440  0.57030  0.82700  1.0000 0.1186779232
H   H20       1.0  0.96400  0.61550  0.77860  1.0000 0.1292668859
H   H21       1.0  0.92630  0.45590  0.80940  1.0000 0.1292668859
H   H22       1.0  0.30110  0.78030  0.90310  1.0000 0.1292668859
H   H23       1.0  0.31690  0.84090  0.85480  1.0000 0.1125334298
H   H24       1.0  0.45900  0.88560  0.86210  1.0000 0.1186779232
H   H25       1.0  0.44140  0.82640  0.91090  1.0000 0.1292668859
H   H26       1.0  0.33410  0.90440  0.82700  1.0000 0.1125334298
H   H27       1.0  0.34850  0.96400  0.77860  1.0000 0.1292668859
H   H28       1.0  0.47040  0.92630  0.80940  1.0000 0.1292668859
H   H29       1.0  0.47920  0.69890  0.90310  1.0000 0.1292668859
H   H30       1.0  0.52400  0.68310  0.85480  1.0000 0.1125334298
H   H31       1.0  0.42660  0.54100  0.86210  1.0000 0.1186779232
H   H32       1.0  0.38500  0.55860  0.91090  1.0000 0.1292668859
H   H33       1.0  0.57030  0.66590  0.82700  1.0000 0.1125334298
H   H34       1.0  0.61550  0.65150  0.77860  1.0000 0.1292668859
H   H35       1.0  0.45590  0.52960  0.80940  1.0000 0.1292668859
H   H36       1.0  0.21970  0.52080  0.90310  1.0000 0.1292668859
H   H37       1.0  0.15910  0.47600  0.85480  1.0000 0.1125334298
H   H38       1.0  0.11440  0.57340  0.86210  1.0000 0.1186779232
H   H39       1.0  0.17360  0.61500  0.91090  1.0000 0.1292668859
H   H40       1.0  0.09560  0.42970  0.82700  1.0000 0.1186779232
H   H41       1.0  0.03600  0.38450  0.77860  1.0000 0.1292668859
H   H42       1.0  0.07370  0.54410  0.80940  1.0000 0.1292668859
H   H43       1.0  0.47920  0.78030  0.59690  1.0000 0.1292668859
H   H44       1.0  0.52400  0.84090  0.64520  1.0000 0.1125334298
H   H45       1.0  0.42660  0.88560  0.63790  1.0000 0.1186779232
H   H46       1.0  0.38500  0.82640  0.58910  1.0000 0.1292668859
H   H47       1.0  0.57030  0.90440  0.67300  1.0000 0.1125334298
H   H48       1.0  0.61550  0.96400  0.72140  1.0000 0.1292668859
H   H49       1.0  0.45590  0.92630  0.69060  1.0000 0.1292668859
H   H50       1.0  0.21970  0.69890  0.59690  1.0000 0.1292668859
H   H51       1.0  0.15910  0.68310  0.64520  1.0000 0.1125334298
H   H52       1.0  0.11440  0.54100  0.63790  1.0000 0.1186779232
H   H53       1.0  0.17360  0.55860  0.58910  1.0000 0.1292668859
H   H54       1.0  0.09560  0.66590  0.67300  1.0000 0.1186779232
H   H55       1.0  0.03600  0.65150  0.72140  1.0000 0.1292668859
H   H56       1.0  0.07370  0.52960  0.69060  1.0000 0.1292668859
H   H57       1.0  0.30110  0.52080  0.59690  1.0000 0.1292668859
H   H58       1.0  0.31690  0.47600  0.64520  1.0000 0.1125334298
H   H59       1.0  0.45900  0.57340  0.63790  1.0000 0.1186779232
H   H60       1.0  0.44140  0.61500  0.58910  1.0000 0.1292668859
H   H61       1.0  0.33410  0.42970  0.67300  1.0000 0.1186779232
H   H62       1.0  0.34850  0.38450  0.72140  1.0000 0.1292668859
H   H63       1.0  0.47040  0.54410  0.69060  1.0000 0.1292668859
H   H64       1.0  0.52080  0.21970  0.59690  1.0000 0.1292668859
H   H65       1.0  0.47600  0.15910  0.64520  1.0000 0.1125334298
H   H66       1.0  0.57340  0.11440  0.63790  1.0000 0.1186779232
H   H67       1.0  0.61500  0.17360  0.58910  1.0000 0.1292668859
H   H68       1.0  0.42970  0.09560  0.67300  1.0000 0.1186779232
H   H69       1.0  0.38450  0.03600  0.72140  1.0000 0.1292668859
H   H70       1.0  0.54410  0.07370  0.69060  1.0000 0.1292668859
H   H71       1.0  0.78030  0.30110  0.59690  1.0000 0.1292668859
H   H72       1.0  0.84090  0.31690  0.64520  1.0000 0.1125334298
H   H73       1.0  0.88560  0.45900  0.63790  1.0000 0.1186779232
H   H74       1.0  0.82640  0.44140  0.58910  1.0000 0.1292668859
H   H75       1.0  0.90440  0.33410  0.67300  1.0000 0.1186779232
H   H76       1.0  0.96400  0.34850  0.72140  1.0000 0.1292668859
H   H77       1.0  0.92630  0.47040  0.69060  1.0000 0.1292668859
H   H78       1.0  0.69890  0.47920  0.59690  1.0000 0.1292668859
H   H79       1.0  0.68310  0.52400  0.64520  1.0000 0.1125334298
H   H80       1.0  0.54100  0.42660  0.63790  1.0000 0.1186779232
H   H81       1.0  0.55860  0.38500  0.58910  1.0000 0.1292668859
H   H82       1.0  0.66590  0.57030  0.67300  1.0000 0.1186779232
H   H83       1.0  0.65150  0.61550  0.72140  1.0000 0.1292668859
H   H84       1.0  0.52960  0.45590  0.69060  1.0000 0.1292668859
H   H85       1.0  0.30110  0.78030  0.09690  1.0000 0.1292668859
H   H86       1.0  0.31690  0.84090  0.14520  1.0000 0.1125334298
H   H87       1.0  0.45900  0.88560  0.13790  1.0000 0.1186779232
H   H88       1.0  0.44140  0.82640  0.08910  1.0000 0.1292668859
H   H89       1.0  0.33410  0.90440  0.17300  1.0000 0.1125334298
H   H90       1.0  0.34850  0.96400  0.22140  1.0000 0.1292668859
H   H91       1.0  0.47040  0.92630  0.19060  1.0000 0.1292668859
H   H92       1.0  0.47920  0.69890  0.09690  1.0000 0.1292668859
H   H93       1.0  0.52400  0.68310  0.14520  1.0000 0.1125334298
H   H94       1.0  0.42660  0.54100  0.13790  1.0000 0.1186779232
H   H95       1.0  0.38500  0.55860  0.08910  1.0000 0.1292668859
H   H96       1.0  0.57030  0.66590  0.17300  1.0000 0.1125334298
H   H97       1.0  0.61550  0.65150  0.22140  1.0000 0.1292668859
H   H98       1.0  0.45590  0.52960  0.19060  1.0000 0.1292668859
H   H99       1.0  0.21970  0.52080  0.09690  1.0000 0.1292668859
H   H100      1.0  0.15910  0.47600  0.14520  1.0000 0.1125334298
H   H101      1.0  0.11440  0.57340  0.13790  1.0000 0.1186779232
H   H102      1.0  0.17360  0.61500  0.08910  1.0000 0.1292668859
H   H103      1.0  0.09560  0.42970  0.17300  1.0000 0.1186779232
H   H104      1.0  0.03600  0.38450  0.22140  1.0000 0.1292668859
H   H105      1.0  0.07370  0.54410  0.19060  1.0000 0.1292668859
H   H106      1.0  0.69890  0.21970  0.09690  1.0000 0.1292668859
H   H107      1.0  0.68310  0.15910  0.14520  1.0000 0.1125334298
H   H108      1.0  0.54100  0.11440  0.13790  1.0000 0.1186779232
H   H109      1.0  0.55860  0.17360  0.08910  1.0000 0.1292668859
H   H110      1.0  0.66590  0.09560  0.17300  1.0000 0.1186779232
H   H111      1.0  0.65150  0.03600  0.22140  1.0000 0.1292668859
H   H112      1.0  0.52960  0.07370  0.19060  1.0000 0.1292668859
H   H113      1.0  0.52080  0.30110  0.09690  1.0000 0.1292668859
H   H114      1.0  0.47600  0.31690  0.14520  1.0000 0.1125334298
H   H115      1.0  0.57340  0.45900  0.13790  1.0000 0.1186779232
H   H116      1.0  0.61500  0.44140  0.08910  1.0000 0.1292668859
H   H117      1.0  0.42970  0.33410  0.17300  1.0000 0.1186779232
H   H118      1.0  0.38450  0.34850  0.22140  1.0000 0.1292668859
H   H119      1.0  0.54410  0.47040  0.19060  1.0000 0.1292668859
H   H120      1.0  0.78030  0.47920  0.09690  1.0000 0.1292668859
H   H121      1.0  0.84090  0.52400  0.14520  1.0000 0.1125334298
H   H122      1.0  0.88560  0.42660  0.13790  1.0000 0.1186779232
H   H123      1.0  0.82640  0.38500  0.08910  1.0000 0.1292668859
H   H124      1.0  0.90440  0.57030  0.17300  1.0000 0.1186779232
H   H125      1.0  0.96400  0.61550  0.22140  1.0000 0.1292668859
H   H126      1.0  0.92630  0.45590  0.19060  1.0000 0.1292668859
H   H127      1.0  0.52080  0.21970  0.40310  1.0000 0.1292668859
H   H128      1.0  0.47600  0.15910  0.35480  1.0000 0.1125334298
H   H129      1.0  0.57340  0.11440  0.36210  1.0000 0.1186779232
H   H130      1.0  0.61500  0.17360  0.41090  1.0000 0.1292668859
H   H131      1.0  0.42970  0.09560  0.32700  1.0000 0.1186779232
H   H132      1.0  0.38450  0.03600  0.27860  1.0000 0.1292668859
H   H133      1.0  0.54410  0.07370  0.30940  1.0000 0.1292668859
H   H134      1.0  0.78030  0.30110  0.40310  1.0000 0.1292668859
H   H135      1.0  0.84090  0.31690  0.35480  1.0000 0.1125334298
H   H136      1.0  0.88560  0.45900  0.36210  1.0000 0.1186779232
H   H137      1.0  0.82640  0.44140  0.41090  1.0000 0.1292668859
H   H138      1.0  0.90440  0.33410  0.32700  1.0000 0.1186779232
H   H139      1.0  0.96400  0.34850  0.27860  1.0000 0.1292668859
H   H140      1.0  0.92630  0.47040  0.30940  1.0000 0.1292668859
H   H141      1.0  0.69890  0.47920  0.40310  1.0000 0.1292668859
H   H142      1.0  0.68310  0.52400  0.35480  1.0000 0.1125334298
H   H143      1.0  0.54100  0.42660  0.36210  1.0000 0.1186779232
H   H144      1.0  0.55860  0.38500  0.41090  1.0000 0.1292668859
H   H145      1.0  0.66590  0.57030  0.32700  1.0000 0.1186779232
H   H146      1.0  0.65150  0.61550  0.27860  1.0000 0.1292668859
H   H147      1.0  0.52960  0.45590  0.30940  1.0000 0.1292668859
H   H148      1.0  0.47920  0.78030  0.40310  1.0000 0.1292668859
H   H149      1.0  0.52400  0.84090  0.35480  1.0000 0.1125334298
H   H150      1.0  0.42660  0.88560  0.36210  1.0000 0.1186779232
H   H151      1.0  0.38500  0.82640  0.41090  1.0000 0.1292668859
H   H152      1.0  0.57030  0.90440  0.32700  1.0000 0.1125334298
H   H153      1.0  0.61550  0.96400  0.27860  1.0000 0.1292668859
H   H154      1.0  0.45590  0.92630  0.30940  1.0000 0.1292668859
H   H155      1.0  0.21970  0.69890  0.40310  1.0000 0.1292668859
H   H156      1.0  0.15910  0.68310  0.35480  1.0000 0.1125334298
H   H157      1.0  0.11440  0.54100  0.36210  1.0000 0.1186779232
H   H158      1.0  0.17360  0.55860  0.41090  1.0000 0.1292668859
H   H159      1.0  0.09560  0.66590  0.32700  1.0000 0.1186779232
H   H160      1.0  0.03600  0.65150  0.27860  1.0000 0.1292668859
H   H161      1.0  0.07370  0.52960  0.30940  1.0000 0.1292668859
H   H162      1.0  0.30110  0.52080  0.40310  1.0000 0.1292668859
H   H163      1.0  0.31690  0.47600  0.35480  1.0000 0.1125334298
H   H164      1.0  0.45900  0.57340  0.36210  1.0000 0.1186779232
H   H165      1.0  0.44140  0.61500  0.41090  1.0000 0.1292668859
H   H166      1.0  0.33410  0.42970  0.32700  1.0000 0.1186779232
H   H167      1.0  0.34850  0.38450  0.27860  1.0000 0.1292668859
H   H168      1.0  0.47040  0.54410  0.30940  1.0000 0.1292668859
C   C1        1.0  0.64001  0.23845  0.94411  1.0000 0.5987372274
C   C2        1.0  0.62995  0.20244  0.91252  1.0000 -0.0507063249
C   C3        1.0  0.66594  0.19781  0.89537  1.0000 -0.0898457194
C   C4        1.0  0.65649  0.16133  0.86600  1.0000 -0.1590691192
C   C5        1.0  0.60966  0.12919  0.85340  1.0000 0.074015193
C   C6        1.0  0.57414  0.13512  0.87024  1.0000 -0.1590691192
C   C7        1.0  0.58508  0.17130  0.89960  1.0000 -0.0837638148
C   C8        1.0  0.59996  0.09127  0.82264  1.0000 0.0844515668
C   C9        1.0  0.63520  0.07933  0.81349  1.0000 -0.144072923
C   C10       1.0  0.62668  0.04370  0.78487  1.0000 -0.1590691192
C   C11       1.0  0.58071  0.01901  0.76506  1.0000 0.012473899
C   C12       1.0  0.54567  0.03092  0.77454  1.0000 0.0240458531
C   C13       1.0  0.55458  0.06624  0.80302  1.0000 -0.196562371
C   C14       1.0  0.59844  0.35999  0.94411  1.0000 0.5987372274
C   C15       1.0  0.57249  0.37005  0.91252  1.0000 -0.0507063249
C   C16       1.0  0.53187  0.33406  0.89537  1.0000 -0.0898457194
C   C17       1.0  0.50484  0.34351  0.86600  1.0000 -0.1590691192
C   C18       1.0  0.51953  0.39034  0.85340  1.0000 0.074015193
C   C19       1.0  0.56098  0.42586  0.87024  1.0000 -0.1590691192
C   C20       1.0  0.58622  0.41492  0.89960  1.0000 -0.0837638148
C   C21       1.0  0.49131  0.40004  0.82264  1.0000 0.0844515668
C   C22       1.0  0.44413  0.36480  0.81349  1.0000 -0.144072923
C   C23       1.0  0.41702  0.37332  0.78487  1.0000 -0.1590691192
C   C24       1.0  0.43830  0.41929  0.76506  1.0000 0.012473899
C   C25       1.0  0.48525  0.45433  0.77454  1.0000 0.0240458531
C   C26       1.0  0.51166  0.44542  0.80302  1.0000 -0.196562371
C   C27       1.0  0.76155  0.40156  0.94411  1.0000 0.5987372274
C   C28       1.0  0.79756  0.42751  0.91252  1.0000 -0.0507063249
C   C29       1.0  0.80219  0.46813  0.89537  1.0000 -0.0898457194
C   C30       1.0  0.83867  0.49516  0.86600  1.0000 -0.1590691192
C   C31       1.0  0.87081  0.48047  0.85340  1.0000 0.074015193
C   C32       1.0  0.86488  0.43902  0.87024  1.0000 -0.1590691192
C   C33       1.0  0.82870  0.41378  0.89960  1.0000 -0.0837638148
C   C34       1.0  0.90873  0.50869  0.82264  1.0000 0.0844515668
C   C35       1.0  0.92067  0.55587  0.81349  1.0000 -0.144072923
C   C36       1.0  0.95630  0.58298  0.78487  1.0000 -0.1590691192
C   C37       1.0  0.98099  0.56170  0.76506  1.0000 0.012473899
C   C38       1.0  0.96908  0.51475  0.77454  1.0000 0.0240458531
C   C39       1.0  0.93376  0.48834  0.80302  1.0000 -0.196562371
C   C40       1.0  0.35999  0.76155  0.94411  1.0000 0.5987372274
C   C41       1.0  0.37005  0.79756  0.91252  1.0000 -0.0507063249
C   C42       1.0  0.33406  0.80219  0.89537  1.0000 -0.0898457194
C   C43       1.0  0.34351  0.83867  0.86600  1.0000 -0.1590691192
C   C44       1.0  0.39034  0.87081  0.85340  1.0000 0.074015193
C   C45       1.0  0.42586  0.86488  0.87024  1.0000 -0.1590691192
C   C46       1.0  0.41492  0.82870  0.89960  1.0000 -0.0837638148
C   C47       1.0  0.40004  0.90873  0.82264  1.0000 0.0844515668
C   C48       1.0  0.36480  0.92067  0.81349  1.0000 -0.144072923
C   C49       1.0  0.37332  0.95630  0.78487  1.0000 -0.1590691192
C   C50       1.0  0.41929  0.98099  0.76506  1.0000 0.012473899
C   C51       1.0  0.45433  0.96908  0.77454  1.0000 0.0240458531
C   C52       1.0  0.44542  0.93376  0.80302  1.0000 -0.196562371
C   C53       1.0  0.40156  0.64001  0.94411  1.0000 0.5987372274
C   C54       1.0  0.42751  0.62995  0.91252  1.0000 -0.0507063249
C   C55       1.0  0.46813  0.66594  0.89537  1.0000 -0.0898457194
C   C56       1.0  0.49516  0.65649  0.86600  1.0000 -0.1590691192
C   C57       1.0  0.48047  0.60966  0.85340  1.0000 0.074015193
C   C58       1.0  0.43902  0.57414  0.87024  1.0000 -0.1590691192
C   C59       1.0  0.41378  0.58508  0.89960  1.0000 -0.0837638148
C   C60       1.0  0.50869  0.59996  0.82264  1.0000 0.0844515668
C   C61       1.0  0.55587  0.63520  0.81349  1.0000 -0.144072923
C   C62       1.0  0.58298  0.62668  0.78487  1.0000 -0.1590691192
C   C63       1.0  0.56170  0.58071  0.76506  1.0000 0.012473899
C   C64       1.0  0.51475  0.54567  0.77454  1.0000 0.0240458531
C   C65       1.0  0.48834  0.55458  0.80302  1.0000 -0.196562371
C   C66       1.0  0.23845  0.59844  0.94411  1.0000 0.5987372274
C   C67       1.0  0.20244  0.57249  0.91252  1.0000 -0.0507063249
C   C68       1.0  0.19781  0.53187  0.89537  1.0000 -0.0898457194
C   C69       1.0  0.16133  0.50484  0.86600  1.0000 -0.1590691192
C   C70       1.0  0.12919  0.51953  0.85340  1.0000 0.074015193
C   C71       1.0  0.13512  0.56098  0.87024  1.0000 -0.1590691192
C   C72       1.0  0.17130  0.58622  0.89960  1.0000 -0.0837638148
C   C73       1.0  0.09127  0.49131  0.82264  1.0000 0.0844515668
C   C74       1.0  0.07933  0.44413  0.81349  1.0000 -0.1458275964
C   C75       1.0  0.04370  0.41702  0.78487  1.0000 -0.1590691192
C   C76       1.0  0.01901  0.43830  0.76506  1.0000 0.012473899
C   C77       1.0  0.03092  0.48525  0.77454  1.0000 0.0240458531
C   C78       1.0  0.06624  0.51166  0.80302  1.0000 -0.196562371
C   C79       1.0  0.40156  0.76155  0.55589  1.0000 0.5987372274
C   C80       1.0  0.42751  0.79756  0.58748  1.0000 -0.0507063249
C   C81       1.0  0.46813  0.80219  0.60463  1.0000 -0.0898457194
C   C82       1.0  0.49516  0.83867  0.63400  1.0000 -0.1590691192
C   C83       1.0  0.48047  0.87081  0.64660  1.0000 0.074015193
C   C84       1.0  0.43902  0.86488  0.62976  1.0000 -0.1590691192
C   C85       1.0  0.41378  0.82870  0.60040  1.0000 -0.0837638148
C   C86       1.0  0.50869  0.90873  0.67736  1.0000 0.0844515668
C   C87       1.0  0.55587  0.92067  0.68651  1.0000 -0.1458275964
C   C88       1.0  0.58298  0.95630  0.71513  1.0000 -0.1590691192
C   C89       1.0  0.56170  0.98099  0.73494  1.0000 0.012473899
C   C90       1.0  0.51475  0.96908  0.72546  1.0000 0.0240458531
C   C91       1.0  0.48834  0.93376  0.69698  1.0000 -0.196562371
C   C92       1.0  0.23845  0.64001  0.55589  1.0000 0.5987372274
C   C93       1.0  0.20244  0.62995  0.58748  1.0000 -0.0507063249
C   C94       1.0  0.19781  0.66594  0.60463  1.0000 -0.0898457194
C   C95       1.0  0.16133  0.65649  0.63400  1.0000 -0.1590691192
C   C96       1.0  0.12919  0.60966  0.64660  1.0000 0.074015193
C   C97       1.0  0.13512  0.57414  0.62976  1.0000 -0.1590691192
C   C98       1.0  0.17130  0.58508  0.60040  1.0000 -0.0837638148
C   C99       1.0  0.09127  0.59996  0.67736  1.0000 0.0844515668
C   C100      1.0  0.07933  0.63520  0.68651  1.0000 -0.1458275964
C   C101      1.0  0.04370  0.62668  0.71513  1.0000 -0.1590691192
C   C102      1.0  0.01901  0.58071  0.73494  1.0000 0.012473899
C   C103      1.0  0.03092  0.54567  0.72546  1.0000 0.0240458531
C   C104      1.0  0.06624  0.55458  0.69698  1.0000 -0.196562371
C   C105      1.0  0.35999  0.59844  0.55589  1.0000 0.5987372274
C   C106      1.0  0.37005  0.57249  0.58748  1.0000 -0.0507063249
C   C107      1.0  0.33406  0.53187  0.60463  1.0000 -0.0898457194
C   C108      1.0  0.34351  0.50484  0.63400  1.0000 -0.1590691192
C   C109      1.0  0.39034  0.51953  0.64660  1.0000 0.074015193
C   C110      1.0  0.42586  0.56098  0.62976  1.0000 -0.1590691192
C   C111      1.0  0.41492  0.58622  0.60040  1.0000 -0.0837638148
C   C112      1.0  0.40004  0.49131  0.67736  1.0000 0.0844515668
C   C113      1.0  0.36480  0.44413  0.68651  1.0000 -0.144072923
C   C114      1.0  0.37332  0.41702  0.71513  1.0000 -0.1590691192
C   C115      1.0  0.41929  0.43830  0.73494  1.0000 0.012473899
C   C116      1.0  0.45433  0.48525  0.72546  1.0000 0.0240458531
C   C117      1.0  0.44542  0.51166  0.69698  1.0000 -0.196562371
C   C118      1.0  0.59844  0.23845  0.55589  1.0000 0.5987372274
C   C119      1.0  0.57249  0.20244  0.58748  1.0000 -0.0507063249
C   C120      1.0  0.53187  0.19781  0.60463  1.0000 -0.0898457194
C   C121      1.0  0.50484  0.16133  0.63400  1.0000 -0.1590691192
C   C122      1.0  0.51953  0.12919  0.64660  1.0000 0.074015193
C   C123      1.0  0.56098  0.13512  0.62976  1.0000 -0.1590691192
C   C124      1.0  0.58622  0.17130  0.60040  1.0000 -0.0837638148
C   C125      1.0  0.49131  0.09127  0.67736  1.0000 0.0844515668
C   C126      1.0  0.44413  0.07933  0.68651  1.0000 -0.1458275964
C   C127      1.0  0.41702  0.04370  0.71513  1.0000 -0.1590691192
C   C128      1.0  0.43830  0.01901  0.73494  1.0000 0.012473899
C   C129      1.0  0.48525  0.03092  0.72546  1.0000 0.0240458531
C   C130      1.0  0.51166  0.06624  0.69698  1.0000 -0.196562371
C   C131      1.0  0.76155  0.35999  0.55589  1.0000 0.5987372274
C   C132      1.0  0.79756  0.37005  0.58748  1.0000 -0.0507063249
C   C133      1.0  0.80219  0.33406  0.60463  1.0000 -0.0898457194
C   C134      1.0  0.83867  0.34351  0.63400  1.0000 -0.1590691192
C   C135      1.0  0.87081  0.39034  0.64660  1.0000 0.074015193
C   C136      1.0  0.86488  0.42586  0.62976  1.0000 -0.1590691192
C   C137      1.0  0.82870  0.41492  0.60040  1.0000 -0.0837638148
C   C138      1.0  0.90873  0.40004  0.67736  1.0000 0.0844515668
C   C139      1.0  0.92067  0.36480  0.68651  1.0000 -0.1458275964
C   C140      1.0  0.95630  0.37332  0.71513  1.0000 -0.1590691192
C   C141      1.0  0.98099  0.41929  0.73494  1.0000 0.012473899
C   C142      1.0  0.96908  0.45433  0.72546  1.0000 0.0240458531
C   C143      1.0  0.93376  0.44542  0.69698  1.0000 -0.196562371
C   C144      1.0  0.64001  0.40156  0.55589  1.0000 0.5987372274
C   C145      1.0  0.62995  0.42751  0.58748  1.0000 -0.0507063249
C   C146      1.0  0.66594  0.46813  0.60463  1.0000 -0.0898457194
C   C147      1.0  0.65649  0.49516  0.63400  1.0000 -0.1590691192
C   C148      1.0  0.60966  0.48047  0.64660  1.0000 0.074015193
C   C149      1.0  0.57414  0.43902  0.62976  1.0000 -0.1590691192
C   C150      1.0  0.58508  0.41378  0.60040  1.0000 -0.0837638148
C   C151      1.0  0.59996  0.50869  0.67736  1.0000 0.0844515668
C   C152      1.0  0.63520  0.55587  0.68651  1.0000 -0.1458275964
C   C153      1.0  0.62668  0.58298  0.71513  1.0000 -0.1590691192
C   C154      1.0  0.58071  0.56170  0.73494  1.0000 0.012473899
C   C155      1.0  0.54567  0.51475  0.72546  1.0000 0.0240458531
C   C156      1.0  0.55458  0.48834  0.69698  1.0000 -0.196562371
C   C157      1.0  0.35999  0.76155  0.05589  1.0000 0.5987372274
C   C158      1.0  0.37005  0.79756  0.08748  1.0000 -0.0507063249
C   C159      1.0  0.33406  0.80219  0.10463  1.0000 -0.0898457194
C   C160      1.0  0.34351  0.83867  0.13400  1.0000 -0.1590691192
C   C161      1.0  0.39034  0.87081  0.14660  1.0000 0.074015193
C   C162      1.0  0.42586  0.86488  0.12976  1.0000 -0.1590691192
C   C163      1.0  0.41492  0.82870  0.10040  1.0000 -0.0837638148
C   C164      1.0  0.40004  0.90873  0.17736  1.0000 0.0844515668
C   C165      1.0  0.36480  0.92067  0.18651  1.0000 -0.144072923
C   C166      1.0  0.37332  0.95630  0.21513  1.0000 -0.1590691192
C   C167      1.0  0.41929  0.98099  0.23494  1.0000 0.012473899
C   C168      1.0  0.45433  0.96908  0.22546  1.0000 0.0240458531
C   C169      1.0  0.44542  0.93376  0.19698  1.0000 -0.196562371
C   C170      1.0  0.40156  0.64001  0.05589  1.0000 0.5987372274
C   C171      1.0  0.42751  0.62995  0.08748  1.0000 -0.0507063249
C   C172      1.0  0.46813  0.66594  0.10463  1.0000 -0.0898457194
C   C173      1.0  0.49516  0.65649  0.13400  1.0000 -0.1590691192
C   C174      1.0  0.48047  0.60966  0.14660  1.0000 0.074015193
C   C175      1.0  0.43902  0.57414  0.12976  1.0000 -0.1590691192
C   C176      1.0  0.41378  0.58508  0.10040  1.0000 -0.0837638148
C   C177      1.0  0.50869  0.59996  0.17736  1.0000 0.0844515668
C   C178      1.0  0.55587  0.63520  0.18651  1.0000 -0.144072923
C   C179      1.0  0.58298  0.62668  0.21513  1.0000 -0.1590691192
C   C180      1.0  0.56170  0.58071  0.23494  1.0000 0.012473899
C   C181      1.0  0.51475  0.54567  0.22546  1.0000 0.0240458531
C   C182      1.0  0.48834  0.55458  0.19698  1.0000 -0.196562371
C   C183      1.0  0.23845  0.59844  0.05589  1.0000 0.5987372274
C   C184      1.0  0.20244  0.57249  0.08748  1.0000 -0.0507063249
C   C185      1.0  0.19781  0.53187  0.10463  1.0000 -0.0898457194
C   C186      1.0  0.16133  0.50484  0.13400  1.0000 -0.1590691192
C   C187      1.0  0.12919  0.51953  0.14660  1.0000 0.074015193
C   C188      1.0  0.13512  0.56098  0.12976  1.0000 -0.1590691192
C   C189      1.0  0.17130  0.58622  0.10040  1.0000 -0.0837638148
C   C190      1.0  0.09127  0.49131  0.17736  1.0000 0.0844515668
C   C191      1.0  0.07933  0.44413  0.18651  1.0000 -0.1458275964
C   C192      1.0  0.04370  0.41702  0.21513  1.0000 -0.1590691192
C   C193      1.0  0.01901  0.43830  0.23494  1.0000 0.012473899
C   C194      1.0  0.03092  0.48525  0.22546  1.0000 0.0240458531
C   C195      1.0  0.06624  0.51166  0.19698  1.0000 -0.1943387588
C   C196      1.0  0.64001  0.23845  0.05589  1.0000 0.5987372274
C   C197      1.0  0.62995  0.20244  0.08748  1.0000 -0.0507063249
C   C198      1.0  0.66594  0.19781  0.10463  1.0000 -0.0898457194
C   C199      1.0  0.65649  0.16133  0.13400  1.0000 -0.1590691192
C   C200      1.0  0.60966  0.12919  0.14660  1.0000 0.074015193
C   C201      1.0  0.57414  0.13512  0.12976  1.0000 -0.1590691192
C   C202      1.0  0.58508  0.17130  0.10040  1.0000 -0.0837638148
C   C203      1.0  0.59996  0.09127  0.17736  1.0000 0.0844515668
C   C204      1.0  0.63520  0.07933  0.18651  1.0000 -0.144072923
C   C205      1.0  0.62668  0.04370  0.21513  1.0000 -0.1590691192
C   C206      1.0  0.58071  0.01901  0.23494  1.0000 0.012473899
C   C207      1.0  0.54567  0.03092  0.22546  1.0000 0.0240458531
C   C208      1.0  0.55458  0.06624  0.19698  1.0000 -0.196562371
C   C209      1.0  0.59844  0.35999  0.05589  1.0000 0.5987372274
C   C210      1.0  0.57249  0.37005  0.08748  1.0000 -0.0507063249
C   C211      1.0  0.53187  0.33406  0.10463  1.0000 -0.0898457194
C   C212      1.0  0.50484  0.34351  0.13400  1.0000 -0.1590691192
C   C213      1.0  0.51953  0.39034  0.14660  1.0000 0.074015193
C   C214      1.0  0.56098  0.42586  0.12976  1.0000 -0.1590691192
C   C215      1.0  0.58622  0.41492  0.10040  1.0000 -0.0837638148
C   C216      1.0  0.49131  0.40004  0.17736  1.0000 0.0844515668
C   C217      1.0  0.44413  0.36480  0.18651  1.0000 -0.144072923
C   C218      1.0  0.41702  0.37332  0.21513  1.0000 -0.1590691192
C   C219      1.0  0.43830  0.41929  0.23494  1.0000 0.012473899
C   C220      1.0  0.48525  0.45433  0.22546  1.0000 0.0240458531
C   C221      1.0  0.51166  0.44542  0.19698  1.0000 -0.1943387588
C   C222      1.0  0.76155  0.40156  0.05589  1.0000 0.5987372274
C   C223      1.0  0.79756  0.42751  0.08748  1.0000 -0.0507063249
C   C224      1.0  0.80219  0.46813  0.10463  1.0000 -0.0898457194
C   C225      1.0  0.83867  0.49516  0.13400  1.0000 -0.1590691192
C   C226      1.0  0.87081  0.48047  0.14660  1.0000 0.074015193
C   C227      1.0  0.86488  0.43902  0.12976  1.0000 -0.1590691192
C   C228      1.0  0.82870  0.41378  0.10040  1.0000 -0.0837638148
C   C229      1.0  0.90873  0.50869  0.17736  1.0000 0.0844515668
C   C230      1.0  0.92067  0.55587  0.18651  1.0000 -0.144072923
C   C231      1.0  0.95630  0.58298  0.21513  1.0000 -0.1590691192
C   C232      1.0  0.98099  0.56170  0.23494  1.0000 0.012473899
C   C233      1.0  0.96908  0.51475  0.22546  1.0000 0.0240458531
C   C234      1.0  0.93376  0.48834  0.19698  1.0000 -0.196562371
C   C235      1.0  0.59844  0.23845  0.44411  1.0000 0.5987372274
C   C236      1.0  0.57249  0.20244  0.41252  1.0000 -0.0507063249
C   C237      1.0  0.53187  0.19781  0.39537  1.0000 -0.0898457194
C   C238      1.0  0.50484  0.16133  0.36600  1.0000 -0.1590691192
C   C239      1.0  0.51953  0.12919  0.35340  1.0000 0.074015193
C   C240      1.0  0.56098  0.13512  0.37024  1.0000 -0.1590691192
C   C241      1.0  0.58622  0.17130  0.39960  1.0000 -0.0837638148
C   C242      1.0  0.49131  0.09127  0.32264  1.0000 0.0844515668
C   C243      1.0  0.44413  0.07933  0.31349  1.0000 -0.144072923
C   C244      1.0  0.41702  0.04370  0.28487  1.0000 -0.1590691192
C   C245      1.0  0.43830  0.01901  0.26506  1.0000 0.012473899
C   C246      1.0  0.48525  0.03092  0.27454  1.0000 0.0240458531
C   C247      1.0  0.51166  0.06624  0.30302  1.0000 -0.196562371
C   C248      1.0  0.76155  0.35999  0.44411  1.0000 0.5987372274
C   C249      1.0  0.79756  0.37005  0.41252  1.0000 -0.0507063249
C   C250      1.0  0.80219  0.33406  0.39537  1.0000 -0.0898457194
C   C251      1.0  0.83867  0.34351  0.36600  1.0000 -0.1590691192
C   C252      1.0  0.87081  0.39034  0.35340  1.0000 0.074015193
C   C253      1.0  0.86488  0.42586  0.37024  1.0000 -0.1590691192
C   C254      1.0  0.82870  0.41492  0.39960  1.0000 -0.0837638148
C   C255      1.0  0.90873  0.40004  0.32264  1.0000 0.0844515668
C   C256      1.0  0.92067  0.36480  0.31349  1.0000 -0.1458275964
C   C257      1.0  0.95630  0.37332  0.28487  1.0000 -0.1590691192
C   C258      1.0  0.98099  0.41929  0.26506  1.0000 0.012473899
C   C259      1.0  0.96908  0.45433  0.27454  1.0000 0.0240458531
C   C260      1.0  0.93376  0.44542  0.30302  1.0000 -0.196562371
C   C261      1.0  0.64001  0.40156  0.44411  1.0000 0.5987372274
C   C262      1.0  0.62995  0.42751  0.41252  1.0000 -0.0507063249
C   C263      1.0  0.66594  0.46813  0.39537  1.0000 -0.0898457194
C   C264      1.0  0.65649  0.49516  0.36600  1.0000 -0.1590691192
C   C265      1.0  0.60966  0.48047  0.35340  1.0000 0.074015193
C   C266      1.0  0.57414  0.43902  0.37024  1.0000 -0.1590691192
C   C267      1.0  0.58508  0.41378  0.39960  1.0000 -0.0837638148
C   C268      1.0  0.59996  0.50869  0.32264  1.0000 0.0844515668
C   C269      1.0  0.63520  0.55587  0.31349  1.0000 -0.144072923
C   C270      1.0  0.62668  0.58298  0.28487  1.0000 -0.1590691192
C   C271      1.0  0.58071  0.56170  0.26506  1.0000 0.012473899
C   C272      1.0  0.54567  0.51475  0.27454  1.0000 0.0240458531
C   C273      1.0  0.55458  0.48834  0.30302  1.0000 -0.196562371
C   C274      1.0  0.40156  0.76155  0.44411  1.0000 0.5987372274
C   C275      1.0  0.42751  0.79756  0.41252  1.0000 -0.0507063249
C   C276      1.0  0.46813  0.80219  0.39537  1.0000 -0.0898457194
C   C277      1.0  0.49516  0.83867  0.36600  1.0000 -0.1590691192
C   C278      1.0  0.48047  0.87081  0.35340  1.0000 0.074015193
C   C279      1.0  0.43902  0.86488  0.37024  1.0000 -0.1590691192
C   C280      1.0  0.41378  0.82870  0.39960  1.0000 -0.0837638148
C   C281      1.0  0.50869  0.90873  0.32264  1.0000 0.0844515668
C   C282      1.0  0.55587  0.92067  0.31349  1.0000 -0.144072923
C   C283      1.0  0.58298  0.95630  0.28487  1.0000 -0.1590691192
C   C284      1.0  0.56170  0.98099  0.26506  1.0000 0.012473899
C   C285      1.0  0.51475  0.96908  0.27454  1.0000 0.0240458531
C   C286      1.0  0.48834  0.93376  0.30302  1.0000 -0.196562371
C   C287      1.0  0.23845  0.64001  0.44411  1.0000 0.5987372274
C   C288      1.0  0.20244  0.62995  0.41252  1.0000 -0.0507063249
C   C289      1.0  0.19781  0.66594  0.39537  1.0000 -0.0898457194
C   C290      1.0  0.16133  0.65649  0.36600  1.0000 -0.1590691192
C   C291      1.0  0.12919  0.60966  0.35340  1.0000 0.074015193
C   C292      1.0  0.13512  0.57414  0.37024  1.0000 -0.1590691192
C   C293      1.0  0.17130  0.58508  0.39960  1.0000 -0.0837638148
C   C294      1.0  0.09127  0.59996  0.32264  1.0000 0.0844515668
C   C295      1.0  0.07933  0.63520  0.31349  1.0000 -0.1458275964
C   C296      1.0  0.04370  0.62668  0.28487  1.0000 -0.1590691192
C   C297      1.0  0.01901  0.58071  0.26506  1.0000 0.012473899
C   C298      1.0  0.03092  0.54567  0.27454  1.0000 0.0240458531
C   C299      1.0  0.06624  0.55458  0.30302  1.0000 -0.196562371
C   C300      1.0  0.35999  0.59844  0.44411  1.0000 0.5987372274
C   C301      1.0  0.37005  0.57249  0.41252  1.0000 -0.0507063249
C   C302      1.0  0.33406  0.53187  0.39537  1.0000 -0.0898457194
C   C303      1.0  0.34351  0.50484  0.36600  1.0000 -0.1590691192
C   C304      1.0  0.39034  0.51953  0.35340  1.0000 0.074015193
C   C305      1.0  0.42586  0.56098  0.37024  1.0000 -0.1590691192
C   C306      1.0  0.41492  0.58622  0.39960  1.0000 -0.0837638148
C   C307      1.0  0.40004  0.49131  0.32264  1.0000 0.0844515668
C   C308      1.0  0.36480  0.44413  0.31349  1.0000 -0.144072923
C   C309      1.0  0.37332  0.41702  0.28487  1.0000 -0.1590691192
C   C310      1.0  0.41929  0.43830  0.26506  1.0000 0.012473899
C   C311      1.0  0.45433  0.48525  0.27454  1.0000 0.0240458531
C   C312      1.0  0.44542  0.51166  0.30302  1.0000 -0.196562371
C   C313      1.0  0.50000  0.00000  0.75000  1.0000 0.0240458531
C   C314      1.0  0.50000  0.50000  0.75000  1.0000 0.0240458531
C   C315      1.0  0.00000  0.50000  0.75000  1.0000 0.0240458531
C   C316      1.0  0.50000  0.00000  0.25000  1.0000 0.0240458531
C   C317      1.0  0.50000  0.50000  0.25000  1.0000 0.0240458531
C   C318      1.0  0.00000  0.50000  0.25000  1.0000 0.0240458531
O   O1        1.0  0.60494  0.24280  0.95687  1.0000 -0.5294217268
O   O2        1.0  0.68334  0.26322  0.95679  1.0000 -0.5294217268
O   O3        1.0  0.63786  0.39506  0.95687  1.0000 -0.5294217268
O   O4        1.0  0.57988  0.31666  0.95679  1.0000 -0.5294217268
O   O5        1.0  0.75720  0.36214  0.95687  1.0000 -0.5294217268
O   O6        1.0  0.73678  0.42012  0.95679  1.0000 -0.5294217268
O   O7        1.0  0.39506  0.75720  0.95687  1.0000 -0.5294217268
O   O8        1.0  0.31666  0.73678  0.95679  1.0000 -0.5294217268
O   O9        1.0  0.36214  0.60494  0.95687  1.0000 -0.5294217268
O   O10       1.0  0.42012  0.68334  0.95679  1.0000 -0.5294217268
O   O11       1.0  0.24280  0.63786  0.95687  1.0000 -0.5294217268
O   O12       1.0  0.26322  0.57988  0.95679  1.0000 -0.5294217268
O   O13       1.0  0.36214  0.75720  0.54313  1.0000 -0.5294217268
O   O14       1.0  0.42012  0.73678  0.54321  1.0000 -0.5294217268
O   O15       1.0  0.24280  0.60494  0.54313  1.0000 -0.5294217268
O   O16       1.0  0.26322  0.68334  0.54321  1.0000 -0.5294217268
O   O17       1.0  0.39506  0.63786  0.54313  1.0000 -0.5294217268
O   O18       1.0  0.31666  0.57988  0.54321  1.0000 -0.5294217268
O   O19       1.0  0.63786  0.24280  0.54313  1.0000 -0.5294217268
O   O20       1.0  0.57988  0.26322  0.54321  1.0000 -0.5294217268
O   O21       1.0  0.75720  0.39506  0.54313  1.0000 -0.5294217268
O   O22       1.0  0.73678  0.31666  0.54321  1.0000 -0.5294217268
O   O23       1.0  0.60494  0.36214  0.54313  1.0000 -0.5294217268
O   O24       1.0  0.68334  0.42012  0.54321  1.0000 -0.5294217268
O   O25       1.0  0.39506  0.75720  0.04313  1.0000 -0.5294217268
O   O26       1.0  0.31666  0.73678  0.04321  1.0000 -0.5294217268
O   O27       1.0  0.36214  0.60494  0.04313  1.0000 -0.5294217268
O   O28       1.0  0.42012  0.68334  0.04321  1.0000 -0.5294217268
O   O29       1.0  0.24280  0.63786  0.04313  1.0000 -0.5294217268
O   O30       1.0  0.26322  0.57988  0.04321  1.0000 -0.5294217268
O   O31       1.0  0.60494  0.24280  0.04313  1.0000 -0.5294217268
O   O32       1.0  0.68334  0.26322  0.04321  1.0000 -0.5294217268
O   O33       1.0  0.63786  0.39506  0.04313  1.0000 -0.5294217268
O   O34       1.0  0.57988  0.31666  0.04321  1.0000 -0.5294217268
O   O35       1.0  0.75720  0.36214  0.04313  1.0000 -0.5294217268
O   O36       1.0  0.73678  0.42012  0.04321  1.0000 -0.5294217268
O   O37       1.0  0.63786  0.24280  0.45687  1.0000 -0.5294217268
O   O38       1.0  0.57988  0.26322  0.45679  1.0000 -0.5294217268
O   O39       1.0  0.75720  0.39506  0.45687  1.0000 -0.5294217268
O   O40       1.0  0.73678  0.31666  0.45679  1.0000 -0.5294217268
O   O41       1.0  0.60494  0.36214  0.45687  1.0000 -0.5294217268
O   O42       1.0  0.68334  0.42012  0.45679  1.0000 -0.5294217268
O   O43       1.0  0.36214  0.75720  0.45687  1.0000 -0.5294217268
O   O44       1.0  0.42012  0.73678  0.45679  1.0000 -0.5294217268
O   O45       1.0  0.24280  0.60494  0.45687  1.0000 -0.5294217268
O   O46       1.0  0.26322  0.68334  0.45679  1.0000 -0.5294217268
O   O47       1.0  0.39506  0.63786  0.45687  1.0000 -0.5294217268
O   O48       1.0  0.31666  0.57988  0.45679  1.0000 -0.5294217268
O   O49       1.0  0.66667  0.33333  0.00000  1.0000 -0.9208907087
O   O50       1.0  0.33333  0.66667  0.00000  1.0000 -0.9208907087
O   O51       1.0  0.33333  0.66667  0.50000  1.0000 -0.9208907087
O   O52       1.0  0.66667  0.33333  0.50000  1.0000 -0.9208907087
