# DDEC6 charges by PACMAN v1.1 (https://github.com/mtap-research/PACMAN-charge/)
data_2019[Zn][dia]3[ASR]6
_chemical_formula_sum              "Zn2 H40 C56 N4 O8"
_cell_length_a       14.1863
_cell_length_b       14.1863
_cell_length_c       8.3985
_cell_angle_alpha    85.794
_cell_angle_beta     94.206
_cell_angle_gamma    56.7489

_symmetry_space_group_name_H-M    "P 1"
_symmetry_Int_Tables_number       1

loop_
  _symmetry_equiv_pos_as_xyz
  'x, y, z'

loop_
  _atom_site_type_symbol
  _atom_site_label
  _atom_site_symmetry_multiplicity
  _atom_site_fract_x
  _atom_site_fract_y
  _atom_site_fract_z
  _atom_site_occupancy
  _atom_site_charge
Zn  Zn1       1.0  0.70874  0.10892  0.69643  1.0000 0.7360888958
Zn  Zn2       1.0  0.89108  0.29126  0.19643  1.0000 0.7360888958
H   H1        1.0  0.05930  0.01910  0.56990  1.0000 0.1103721745
H   H2        1.0  0.23480  0.90420  0.47330  1.0000 0.1186162568
H   H3        1.0  0.19210  0.64470  0.49420  1.0000 0.1103721745
H   H4        1.0  0.01720  0.75860  0.58260  1.0000 0.1186162568
H   H5        1.0  0.38050  0.72850  0.39100  1.0000 0.1103721745
H   H6        1.0  0.36100  0.54560  0.43080  1.0000 0.1186162568
H   H7        1.0  0.52980  0.64140  0.27230  1.0000 0.1307122909
H   H8        1.0  0.70650  0.52630  0.19600  1.0000 0.1020318124
H   H9        1.0  0.70860  0.25280  0.31790  1.0000 0.1103721745
H   H10       1.0  0.52830  0.36090  0.39440  1.0000 0.1307122909
H   H11       1.0  0.35090  0.12910  0.43200  1.0000 0.1186162568
H   H12       1.0  0.23570  0.17010  0.19440  1.0000 0.1186162568
H   H13       1.0  0.44250  0.21950  0.94890  1.0000 0.1103721745
H   H14       1.0  0.55540  0.18500  0.18840  1.0000 0.1020318124
H   H15       1.0  0.28200  0.24500  0.79580  1.0000 0.1103721745
H   H16       1.0  0.13870  0.21090  0.96140  1.0000 0.1307122909
H   H17       1.0  0.00450  0.19050  0.79210  1.0000 0.1465685904
H   H18       1.0  0.89970  0.22530  0.54440  1.0000 0.1103721745
H   H19       1.0  0.05620  0.34540  0.32990  1.0000 0.1186162568
H   H20       1.0  0.16890  0.31070  0.57030  1.0000 0.1356056124
H   H21       1.0  0.98090  0.94070  0.06990  1.0000 0.1103721745
H   H22       1.0  0.09580  0.76520  0.97330  1.0000 0.1186162568
H   H23       1.0  0.35530  0.80790  0.99420  1.0000 0.1103721745
H   H24       1.0  0.24140  0.98280  0.08260  1.0000 0.1186162568
H   H25       1.0  0.27150  0.61950  0.89100  1.0000 0.1103721745
H   H26       1.0  0.45440  0.63900  0.93080  1.0000 0.1186162568
H   H27       1.0  0.35860  0.47020  0.77230  1.0000 0.1307122909
H   H28       1.0  0.47370  0.29350  0.69600  1.0000 0.1020318124
H   H29       1.0  0.74720  0.29140  0.81790  1.0000 0.1103721745
H   H30       1.0  0.63910  0.47170  0.89440  1.0000 0.1307122909
H   H31       1.0  0.87090  0.64910  0.93200  1.0000 0.1186162568
H   H32       1.0  0.82990  0.76430  0.69440  1.0000 0.1186162568
H   H33       1.0  0.78050  0.55750  0.44890  1.0000 0.1103721745
H   H34       1.0  0.81500  0.44460  0.68840  1.0000 0.1020318124
H   H35       1.0  0.75500  0.71800  0.29580  1.0000 0.1103721745
H   H36       1.0  0.78910  0.86130  0.46140  1.0000 0.1307122909
H   H37       1.0  0.80950  0.99550  0.29210  1.0000 0.1465685904
H   H38       1.0  0.77470  0.10030  0.04440  1.0000 0.1103721745
H   H39       1.0  0.65460  0.94380  0.82990  1.0000 0.1186162568
H   H40       1.0  0.68930  0.83110  0.07030  1.0000 0.1356056124
C   C1        1.0  0.90650  0.97110  0.63330  1.0000 0.5450798512
C   C2        1.0  0.02070  0.89970  0.58170  1.0000 -0.039780116
C   C3        1.0  0.08570  0.94350  0.55280  1.0000 -0.0922274314
C   C4        1.0  0.19150  0.87370  0.49770  1.0000 -0.1570116676
C   C5        1.0  0.23340  0.76220  0.47850  1.0000 0.1186162568
C   C6        1.0  0.16560  0.72060  0.50930  1.0000 -0.1570116676
C   C7        1.0  0.06150  0.78850  0.56100  1.0000 -0.1018094182
C   C8        1.0  0.34390  0.69150  0.42020  1.0000 -0.1221539848
C   C9        1.0  0.39790  0.58270  0.40380  1.0000 -0.1570116676
C   C10       1.0  0.50840  0.51360  0.34840  1.0000 0.163173163
C   C11       1.0  0.56500  0.56140  0.28430  1.0000 -0.2003462672
C   C12       1.0  0.67070  0.49190  0.23940  1.0000 0.0699023843
C   C13       1.0  0.67180  0.33300  0.30970  1.0000 0.0799215805
C   C14       1.0  0.56370  0.39730  0.35670  1.0000 -0.1941559374
C   C15       1.0  0.53720  0.13120  0.49180  1.0000 0.5403687001
C   C16       1.0  0.46380  0.15540  0.33670  1.0000 -0.0317441079
C   C17       1.0  0.36890  0.14950  0.33400  1.0000 -0.1079895891
C   C18       1.0  0.30110  0.17270  0.19260  1.0000 -0.1393133163
C   C19       1.0  0.32640  0.20000  0.04650  1.0000 0.1307122909
C   C20       1.0  0.42280  0.20280  0.04780  1.0000 -0.1570116676
C   C21       1.0  0.49030  0.18170  0.19000  1.0000 -0.1079895891
C   C22       1.0  0.25760  0.22660  0.88850  1.0000 -0.1265345201
C   C23       1.0  0.16460  0.22640  0.86810  1.0000 -0.1393133163
C   C24       1.0  0.09740  0.24900  0.70850  1.0000 0.1702469528
C   C25       1.0  0.01690  0.22230  0.69900  1.0000 -0.183881706
C   C26       1.0  0.95520  0.24320  0.55030  1.0000 0.0799215805
C   C27       1.0  0.04640  0.31280  0.42490  1.0000 0.1020318124
C   C28       1.0  0.11290  0.29350  0.56820  1.0000 -0.1941559374
C   C29       1.0  0.02890  0.09350  0.13330  1.0000 0.5450798512
C   C30       1.0  0.10030  0.97930  0.08170  1.0000 -0.039780116
C   C31       1.0  0.05650  0.91430  0.05280  1.0000 -0.0922274314
C   C32       1.0  0.12630  0.80850  0.99770  1.0000 -0.1570116676
C   C33       1.0  0.23780  0.76660  0.97850  1.0000 0.1186162568
C   C34       1.0  0.27940  0.83440  0.00930  1.0000 -0.1570116676
C   C35       1.0  0.21150  0.93850  0.06100  1.0000 -0.1018094182
C   C36       1.0  0.30850  0.65610  0.92020  1.0000 -0.1221539848
C   C37       1.0  0.41730  0.60210  0.90380  1.0000 -0.1570116676
C   C38       1.0  0.48640  0.49160  0.84840  1.0000 0.163173163
C   C39       1.0  0.43860  0.43500  0.78430  1.0000 -0.2003462672
C   C40       1.0  0.50810  0.32930  0.73940  1.0000 0.0699023843
C   C41       1.0  0.66700  0.32820  0.80970  1.0000 0.0799215805
C   C42       1.0  0.60270  0.43630  0.85670  1.0000 -0.1941559374
C   C43       1.0  0.86880  0.46280  0.99180  1.0000 0.5403687001
C   C44       1.0  0.84460  0.53620  0.83670  1.0000 -0.0317441079
C   C45       1.0  0.85050  0.63110  0.83400  1.0000 -0.1079895891
C   C46       1.0  0.82730  0.69890  0.69260  1.0000 -0.1393133163
C   C47       1.0  0.80000  0.67360  0.54650  1.0000 0.1307122909
C   C48       1.0  0.79720  0.57720  0.54780  1.0000 -0.1570116676
C   C49       1.0  0.81830  0.50970  0.69000  1.0000 -0.1079895891
C   C50       1.0  0.77340  0.74240  0.38850  1.0000 -0.1265345201
C   C51       1.0  0.77360  0.83540  0.36810  1.0000 -0.1393133163
C   C52       1.0  0.75100  0.90260  0.20850  1.0000 0.1702469528
C   C53       1.0  0.77770  0.98310  0.19900  1.0000 -0.183881706
C   C54       1.0  0.75680  0.04480  0.05030  1.0000 0.0799215805
C   C55       1.0  0.68720  0.95360  0.92490  1.0000 0.1020318124
C   C56       1.0  0.70650  0.88710  0.06820  1.0000 -0.1941559374
N   N1        1.0  0.72640  0.37860  0.25330  1.0000 -0.2430211067
N   N2        1.0  0.96850  0.28670  0.41610  1.0000 -0.2293715834
N   N3        1.0  0.62140  0.27360  0.75330  1.0000 -0.2430211067
N   N4        1.0  0.71330  0.03150  0.91610  1.0000 -0.2293715834
O   O1        1.0  0.86470  0.07570  0.65280  1.0000 -0.5524292946
O   O2        1.0  0.84830  0.93090  0.65720  1.0000 -0.5441347718
O   O3        1.0  0.61920  0.14260  0.48540  1.0000 -0.5441347718
O   O4        1.0  0.51310  0.10470  0.62120  1.0000 -0.5762074947
O   O5        1.0  0.92430  0.13530  0.15280  1.0000 -0.5524292946
O   O6        1.0  0.06910  0.15170  0.15720  1.0000 -0.5441347718
O   O7        1.0  0.85740  0.38080  0.98540  1.0000 -0.5441347718
O   O8        1.0  0.89530  0.48690  0.12120  1.0000 -0.5762074947
