# DDEC6 charges by PACMAN v1.1 (https://github.com/mtap-research/PACMAN-charge/)
data_2019[Ni][nan]3[ASR]9
_chemical_formula_sum              "Ni16 H240 C288 S4 N64 O32"
_cell_length_a       23.87
_cell_length_b       23.87
_cell_length_c       16.268
_cell_angle_alpha    90
_cell_angle_beta     90
_cell_angle_gamma    90

_symmetry_space_group_name_H-M    "P 1"
_symmetry_Int_Tables_number       1

loop_
  _symmetry_equiv_pos_as_xyz
  'x, y, z'

loop_
  _atom_site_type_symbol
  _atom_site_label
  _atom_site_symmetry_multiplicity
  _atom_site_fract_x
  _atom_site_fract_y
  _atom_site_fract_z
  _atom_site_occupancy
  _atom_site_charge
Ni  Ni1       1.0  0.94622  0.46606  0.17841  1.0000 0.8606794092
Ni  Ni2       1.0  0.05378  0.53394  0.17841  1.0000 0.8606794092
Ni  Ni3       1.0  0.46606  0.05378  0.17841  1.0000 0.8606794092
Ni  Ni4       1.0  0.53394  0.94622  0.17841  1.0000 0.8606794092
Ni  Ni5       1.0  0.94622  0.53394  0.82159  1.0000 0.8606794092
Ni  Ni6       1.0  0.05378  0.46606  0.82159  1.0000 0.8606794092
Ni  Ni7       1.0  0.46606  0.94622  0.82159  1.0000 0.8606794092
Ni  Ni8       1.0  0.53394  0.05378  0.82159  1.0000 0.8606794092
Ni  Ni9       1.0  0.55378  0.03394  0.32159  1.0000 0.8606794092
Ni  Ni10      1.0  0.44622  0.96606  0.32159  1.0000 0.8606794092
Ni  Ni11      1.0  0.03394  0.44622  0.32159  1.0000 0.8606794092
Ni  Ni12      1.0  0.96606  0.55378  0.32159  1.0000 0.8606794092
Ni  Ni13      1.0  0.55378  0.96606  0.67841  1.0000 0.8606794092
Ni  Ni14      1.0  0.44622  0.03394  0.67841  1.0000 0.8606794092
Ni  Ni15      1.0  0.03394  0.55378  0.67841  1.0000 0.8606794092
Ni  Ni16      1.0  0.96606  0.44622  0.67841  1.0000 0.8606794092
H   H1        1.0  0.80950  0.45610  0.23860  1.0000 0.1109298013
H   H2        1.0  0.73410  0.51010  0.16950  1.0000 0.1199435445
H   H3        1.0  0.88120  0.53940  0.05740  1.0000 0.1109298013
H   H4        1.0  0.69360  0.54260  0.04360  1.0000 0.1109298013
H   H5        1.0  0.65340  0.59980  0.94430  1.0000 0.100994156
H   H6        1.0  0.80210  0.67640  0.90680  1.0000 0.100994156
H   H7        1.0  0.84380  0.61740  0.00410  1.0000 0.1199435445
H   H8        1.0  0.64250  0.62900  0.80500  1.0000 0.1109298013
H   H9        1.0  0.59720  0.69350  0.71950  1.0000 0.1199435445
H   H10       1.0  0.69720  0.81660  0.80550  1.0000 0.1199435445
H   H11       1.0  0.74170  0.75300  0.89110  1.0000 0.1109298013
H   H12       1.0  0.61850  0.87200  0.77700  1.0000 0.100994156
H   H13       1.0  0.54510  0.85100  0.56160  1.0000 0.1199435445
H   H14       1.0  0.58500  0.75920  0.60180  1.0000 0.1199435445
H   H15       1.0  0.95920  0.57470  0.16350  1.0000 0.3551142799
H   H16       1.0  0.19050  0.54390  0.23860  1.0000 0.1109298013
H   H17       1.0  0.26590  0.48990  0.16950  1.0000 0.1199435445
H   H18       1.0  0.11880  0.46060  0.05740  1.0000 0.1109298013
H   H19       1.0  0.30640  0.45740  0.04360  1.0000 0.1109298013
H   H20       1.0  0.34660  0.40020  0.94430  1.0000 0.100994156
H   H21       1.0  0.19790  0.32360  0.90680  1.0000 0.100994156
H   H22       1.0  0.15620  0.38260  0.00410  1.0000 0.1199435445
H   H23       1.0  0.35750  0.37100  0.80500  1.0000 0.1109298013
H   H24       1.0  0.40280  0.30650  0.71950  1.0000 0.1199435445
H   H25       1.0  0.30280  0.18340  0.80550  1.0000 0.1199435445
H   H26       1.0  0.25830  0.24700  0.89110  1.0000 0.1109298013
H   H27       1.0  0.38150  0.12800  0.77700  1.0000 0.100994156
H   H28       1.0  0.45490  0.14900  0.56160  1.0000 0.1199435445
H   H29       1.0  0.41500  0.24080  0.60180  1.0000 0.1199435445
H   H30       1.0  0.04080  0.42530  0.16350  1.0000 0.3551142799
H   H31       1.0  0.45610  0.19050  0.23860  1.0000 0.1109298013
H   H32       1.0  0.51010  0.26590  0.16950  1.0000 0.1199435445
H   H33       1.0  0.53940  0.11880  0.05740  1.0000 0.1109298013
H   H34       1.0  0.54260  0.30640  0.04360  1.0000 0.1109298013
H   H35       1.0  0.59980  0.34660  0.94430  1.0000 0.100994156
H   H36       1.0  0.67640  0.19790  0.90680  1.0000 0.100994156
H   H37       1.0  0.61740  0.15620  0.00410  1.0000 0.1199435445
H   H38       1.0  0.62900  0.35750  0.80500  1.0000 0.1109298013
H   H39       1.0  0.69350  0.40280  0.71950  1.0000 0.1199435445
H   H40       1.0  0.81660  0.30280  0.80550  1.0000 0.1199435445
H   H41       1.0  0.75300  0.25830  0.89110  1.0000 0.1109298013
H   H42       1.0  0.87200  0.38150  0.77700  1.0000 0.100994156
H   H43       1.0  0.85100  0.45490  0.56160  1.0000 0.1199435445
H   H44       1.0  0.75920  0.41500  0.60180  1.0000 0.1199435445
H   H45       1.0  0.57470  0.04080  0.16350  1.0000 0.3551142799
H   H46       1.0  0.54390  0.80950  0.23860  1.0000 0.1109298013
H   H47       1.0  0.48990  0.73410  0.16950  1.0000 0.1199435445
H   H48       1.0  0.46060  0.88120  0.05740  1.0000 0.1109298013
H   H49       1.0  0.45740  0.69360  0.04360  1.0000 0.1109298013
H   H50       1.0  0.40020  0.65340  0.94430  1.0000 0.100994156
H   H51       1.0  0.32360  0.80210  0.90680  1.0000 0.100994156
H   H52       1.0  0.38260  0.84380  0.00410  1.0000 0.1199435445
H   H53       1.0  0.37100  0.64250  0.80500  1.0000 0.1109298013
H   H54       1.0  0.30650  0.59720  0.71950  1.0000 0.1199435445
H   H55       1.0  0.18340  0.69720  0.80550  1.0000 0.1199435445
H   H56       1.0  0.24700  0.74170  0.89110  1.0000 0.1109298013
H   H57       1.0  0.12800  0.61850  0.77700  1.0000 0.100994156
H   H58       1.0  0.14900  0.54510  0.56160  1.0000 0.1199435445
H   H59       1.0  0.24080  0.58500  0.60180  1.0000 0.1199435445
H   H60       1.0  0.42530  0.95920  0.16350  1.0000 0.3551142799
H   H61       1.0  0.80950  0.54390  0.76140  1.0000 0.1109298013
H   H62       1.0  0.73410  0.48990  0.83050  1.0000 0.1199435445
H   H63       1.0  0.88120  0.46060  0.94260  1.0000 0.1109298013
H   H64       1.0  0.69360  0.45740  0.95640  1.0000 0.1109298013
H   H65       1.0  0.65340  0.40020  0.05570  1.0000 0.100994156
H   H66       1.0  0.80210  0.32360  0.09320  1.0000 0.100994156
H   H67       1.0  0.84380  0.38260  0.99590  1.0000 0.1199435445
H   H68       1.0  0.64250  0.37100  0.19500  1.0000 0.1109298013
H   H69       1.0  0.59720  0.30650  0.28050  1.0000 0.1199435445
H   H70       1.0  0.69720  0.18340  0.19450  1.0000 0.1199435445
H   H71       1.0  0.74170  0.24700  0.10890  1.0000 0.1109298013
H   H72       1.0  0.61850  0.12800  0.22300  1.0000 0.100994156
H   H73       1.0  0.54510  0.14900  0.43840  1.0000 0.1199435445
H   H74       1.0  0.58500  0.24080  0.39820  1.0000 0.1199435445
H   H75       1.0  0.95920  0.42530  0.83650  1.0000 0.3551142799
H   H76       1.0  0.19050  0.45610  0.76140  1.0000 0.1109298013
H   H77       1.0  0.26590  0.51010  0.83050  1.0000 0.1199435445
H   H78       1.0  0.11880  0.53940  0.94260  1.0000 0.1109298013
H   H79       1.0  0.30640  0.54260  0.95640  1.0000 0.1109298013
H   H80       1.0  0.34660  0.59980  0.05570  1.0000 0.100994156
H   H81       1.0  0.19790  0.67640  0.09320  1.0000 0.100994156
H   H82       1.0  0.15620  0.61740  0.99590  1.0000 0.1199435445
H   H83       1.0  0.35750  0.62900  0.19500  1.0000 0.1109298013
H   H84       1.0  0.40280  0.69350  0.28050  1.0000 0.1199435445
H   H85       1.0  0.30280  0.81660  0.19450  1.0000 0.1199435445
H   H86       1.0  0.25830  0.75300  0.10890  1.0000 0.1109298013
H   H87       1.0  0.38150  0.87200  0.22300  1.0000 0.100994156
H   H88       1.0  0.45490  0.85100  0.43840  1.0000 0.1199435445
H   H89       1.0  0.41500  0.75920  0.39820  1.0000 0.1199435445
H   H90       1.0  0.04080  0.57470  0.83650  1.0000 0.3551142799
H   H91       1.0  0.45610  0.80950  0.76140  1.0000 0.1109298013
H   H92       1.0  0.51010  0.73410  0.83050  1.0000 0.1199435445
H   H93       1.0  0.53940  0.88120  0.94260  1.0000 0.1109298013
H   H94       1.0  0.54260  0.69360  0.95640  1.0000 0.1109298013
H   H95       1.0  0.59980  0.65340  0.05570  1.0000 0.100994156
H   H96       1.0  0.67640  0.80210  0.09320  1.0000 0.100994156
H   H97       1.0  0.61740  0.84380  0.99590  1.0000 0.1199435445
H   H98       1.0  0.62900  0.64250  0.19500  1.0000 0.1109298013
H   H99       1.0  0.69350  0.59720  0.28050  1.0000 0.1199435445
H   H100      1.0  0.81660  0.69720  0.19450  1.0000 0.1199435445
H   H101      1.0  0.75300  0.74170  0.10890  1.0000 0.1109298013
H   H102      1.0  0.87200  0.61850  0.22300  1.0000 0.100994156
H   H103      1.0  0.85100  0.54510  0.43840  1.0000 0.1199435445
H   H104      1.0  0.75920  0.58500  0.39820  1.0000 0.1199435445
H   H105      1.0  0.57470  0.95920  0.83650  1.0000 0.3551142799
H   H106      1.0  0.54390  0.19050  0.76140  1.0000 0.1109298013
H   H107      1.0  0.48990  0.26590  0.83050  1.0000 0.1199435445
H   H108      1.0  0.46060  0.11880  0.94260  1.0000 0.1109298013
H   H109      1.0  0.45740  0.30640  0.95640  1.0000 0.1109298013
H   H110      1.0  0.40020  0.34660  0.05570  1.0000 0.100994156
H   H111      1.0  0.32360  0.19790  0.09320  1.0000 0.100994156
H   H112      1.0  0.38260  0.15620  0.99590  1.0000 0.1199435445
H   H113      1.0  0.37100  0.35750  0.19500  1.0000 0.1109298013
H   H114      1.0  0.30650  0.40280  0.28050  1.0000 0.1199435445
H   H115      1.0  0.18340  0.30280  0.19450  1.0000 0.1199435445
H   H116      1.0  0.24700  0.25830  0.10890  1.0000 0.1109298013
H   H117      1.0  0.12800  0.38150  0.22300  1.0000 0.100994156
H   H118      1.0  0.14900  0.45490  0.43840  1.0000 0.1199435445
H   H119      1.0  0.24080  0.41500  0.39820  1.0000 0.1199435445
H   H120      1.0  0.42530  0.04080  0.83650  1.0000 0.3551142799
H   H121      1.0  0.69050  0.04390  0.26140  1.0000 0.1109298013
H   H122      1.0  0.76590  0.98990  0.33050  1.0000 0.1199435445
H   H123      1.0  0.61880  0.96060  0.44260  1.0000 0.1109298013
H   H124      1.0  0.80640  0.95740  0.45640  1.0000 0.1109298013
H   H125      1.0  0.84660  0.90020  0.55570  1.0000 0.100994156
H   H126      1.0  0.69790  0.82360  0.59320  1.0000 0.100994156
H   H127      1.0  0.65620  0.88260  0.49590  1.0000 0.1199435445
H   H128      1.0  0.85750  0.87100  0.69500  1.0000 0.1109298013
H   H129      1.0  0.90280  0.80650  0.78050  1.0000 0.1199435445
H   H130      1.0  0.80280  0.68340  0.69450  1.0000 0.1199435445
H   H131      1.0  0.75830  0.74700  0.60890  1.0000 0.1109298013
H   H132      1.0  0.88150  0.62800  0.72300  1.0000 0.100994156
H   H133      1.0  0.95490  0.64900  0.93840  1.0000 0.1199435445
H   H134      1.0  0.91500  0.74080  0.89820  1.0000 0.1199435445
H   H135      1.0  0.54080  0.92530  0.33650  1.0000 0.3551142799
H   H136      1.0  0.30950  0.95610  0.26140  1.0000 0.1109298013
H   H137      1.0  0.23410  0.01010  0.33050  1.0000 0.1199435445
H   H138      1.0  0.38120  0.03940  0.44260  1.0000 0.1109298013
H   H139      1.0  0.19360  0.04260  0.45640  1.0000 0.1109298013
H   H140      1.0  0.15340  0.09980  0.55570  1.0000 0.100994156
H   H141      1.0  0.30210  0.17640  0.59320  1.0000 0.100994156
H   H142      1.0  0.34380  0.11740  0.49590  1.0000 0.1199435445
H   H143      1.0  0.14250  0.12900  0.69500  1.0000 0.1109298013
H   H144      1.0  0.09720  0.19350  0.78050  1.0000 0.1199435445
H   H145      1.0  0.19720  0.31660  0.69450  1.0000 0.1199435445
H   H146      1.0  0.24170  0.25300  0.60890  1.0000 0.1109298013
H   H147      1.0  0.11850  0.37200  0.72300  1.0000 0.100994156
H   H148      1.0  0.04510  0.35100  0.93840  1.0000 0.1199435445
H   H149      1.0  0.08500  0.25920  0.89820  1.0000 0.1199435445
H   H150      1.0  0.45920  0.07470  0.33650  1.0000 0.3551142799
H   H151      1.0  0.04390  0.30950  0.26140  1.0000 0.1109298013
H   H152      1.0  0.98990  0.23410  0.33050  1.0000 0.1199435445
H   H153      1.0  0.96060  0.38120  0.44260  1.0000 0.1109298013
H   H154      1.0  0.95740  0.19360  0.45640  1.0000 0.1109298013
H   H155      1.0  0.90020  0.15340  0.55570  1.0000 0.100994156
H   H156      1.0  0.82360  0.30210  0.59320  1.0000 0.100994156
H   H157      1.0  0.88260  0.34380  0.49590  1.0000 0.1199435445
H   H158      1.0  0.87100  0.14250  0.69500  1.0000 0.1109298013
H   H159      1.0  0.80650  0.09720  0.78050  1.0000 0.1199435445
H   H160      1.0  0.68340  0.19720  0.69450  1.0000 0.1199435445
H   H161      1.0  0.74700  0.24170  0.60890  1.0000 0.1109298013
H   H162      1.0  0.62800  0.11850  0.72300  1.0000 0.100994156
H   H163      1.0  0.64900  0.04510  0.93840  1.0000 0.1199435445
H   H164      1.0  0.74080  0.08500  0.89820  1.0000 0.1199435445
H   H165      1.0  0.92530  0.45920  0.33650  1.0000 0.3551142799
H   H166      1.0  0.95610  0.69050  0.26140  1.0000 0.1109298013
H   H167      1.0  0.01010  0.76590  0.33050  1.0000 0.1199435445
H   H168      1.0  0.03940  0.61880  0.44260  1.0000 0.1109298013
H   H169      1.0  0.04260  0.80640  0.45640  1.0000 0.1109298013
H   H170      1.0  0.09980  0.84660  0.55570  1.0000 0.100994156
H   H171      1.0  0.17640  0.69790  0.59320  1.0000 0.100994156
H   H172      1.0  0.11740  0.65620  0.49590  1.0000 0.1199435445
H   H173      1.0  0.12900  0.85750  0.69500  1.0000 0.1109298013
H   H174      1.0  0.19350  0.90280  0.78050  1.0000 0.1199435445
H   H175      1.0  0.31660  0.80280  0.69450  1.0000 0.1199435445
H   H176      1.0  0.25300  0.75830  0.60890  1.0000 0.1109298013
H   H177      1.0  0.37200  0.88150  0.72300  1.0000 0.100994156
H   H178      1.0  0.35100  0.95490  0.93840  1.0000 0.1199435445
H   H179      1.0  0.25920  0.91500  0.89820  1.0000 0.1199435445
H   H180      1.0  0.07470  0.54080  0.33650  1.0000 0.3551142799
H   H181      1.0  0.69050  0.95610  0.73860  1.0000 0.1109298013
H   H182      1.0  0.76590  0.01010  0.66950  1.0000 0.1199435445
H   H183      1.0  0.61880  0.03940  0.55740  1.0000 0.1109298013
H   H184      1.0  0.80640  0.04260  0.54360  1.0000 0.1109298013
H   H185      1.0  0.84660  0.09980  0.44430  1.0000 0.100994156
H   H186      1.0  0.69790  0.17640  0.40680  1.0000 0.100994156
H   H187      1.0  0.65620  0.11740  0.50410  1.0000 0.1199435445
H   H188      1.0  0.85750  0.12900  0.30500  1.0000 0.1109298013
H   H189      1.0  0.90280  0.19350  0.21950  1.0000 0.1199435445
H   H190      1.0  0.80280  0.31660  0.30550  1.0000 0.1199435445
H   H191      1.0  0.75830  0.25300  0.39110  1.0000 0.1109298013
H   H192      1.0  0.88150  0.37200  0.27700  1.0000 0.100994156
H   H193      1.0  0.95490  0.35100  0.06160  1.0000 0.1199435445
H   H194      1.0  0.91500  0.25920  0.10180  1.0000 0.1199435445
H   H195      1.0  0.54080  0.07470  0.66350  1.0000 0.3551142799
H   H196      1.0  0.30950  0.04390  0.73860  1.0000 0.1109298013
H   H197      1.0  0.23410  0.98990  0.66950  1.0000 0.1199435445
H   H198      1.0  0.38120  0.96060  0.55740  1.0000 0.1109298013
H   H199      1.0  0.19360  0.95740  0.54360  1.0000 0.1109298013
H   H200      1.0  0.15340  0.90020  0.44430  1.0000 0.100994156
H   H201      1.0  0.30210  0.82360  0.40680  1.0000 0.100994156
H   H202      1.0  0.34380  0.88260  0.50410  1.0000 0.1199435445
H   H203      1.0  0.14250  0.87100  0.30500  1.0000 0.1109298013
H   H204      1.0  0.09720  0.80650  0.21950  1.0000 0.1199435445
H   H205      1.0  0.19720  0.68340  0.30550  1.0000 0.1199435445
H   H206      1.0  0.24170  0.74700  0.39110  1.0000 0.1109298013
H   H207      1.0  0.11850  0.62800  0.27700  1.0000 0.100994156
H   H208      1.0  0.04510  0.64900  0.06160  1.0000 0.1199435445
H   H209      1.0  0.08500  0.74080  0.10180  1.0000 0.1199435445
H   H210      1.0  0.45920  0.92530  0.66350  1.0000 0.3551142799
H   H211      1.0  0.04390  0.69050  0.73860  1.0000 0.1109298013
H   H212      1.0  0.98990  0.76590  0.66950  1.0000 0.1199435445
H   H213      1.0  0.96060  0.61880  0.55740  1.0000 0.1109298013
H   H214      1.0  0.95740  0.80640  0.54360  1.0000 0.1109298013
H   H215      1.0  0.90020  0.84660  0.44430  1.0000 0.100994156
H   H216      1.0  0.82360  0.69790  0.40680  1.0000 0.100994156
H   H217      1.0  0.88260  0.65620  0.50410  1.0000 0.1199435445
H   H218      1.0  0.87100  0.85750  0.30500  1.0000 0.1109298013
H   H219      1.0  0.80650  0.90280  0.21950  1.0000 0.1199435445
H   H220      1.0  0.68340  0.80280  0.30550  1.0000 0.1199435445
H   H221      1.0  0.74700  0.75830  0.39110  1.0000 0.1109298013
H   H222      1.0  0.62800  0.88150  0.27700  1.0000 0.100994156
H   H223      1.0  0.64900  0.95490  0.06160  1.0000 0.1199435445
H   H224      1.0  0.74080  0.91500  0.10180  1.0000 0.1199435445
H   H225      1.0  0.92530  0.54080  0.66350  1.0000 0.3551142799
H   H226      1.0  0.95610  0.30950  0.73860  1.0000 0.1109298013
H   H227      1.0  0.01010  0.23410  0.66950  1.0000 0.1199435445
H   H228      1.0  0.03940  0.38120  0.55740  1.0000 0.1109298013
H   H229      1.0  0.04260  0.19360  0.54360  1.0000 0.1109298013
H   H230      1.0  0.09980  0.15340  0.44430  1.0000 0.100994156
H   H231      1.0  0.17640  0.30210  0.40680  1.0000 0.100994156
H   H232      1.0  0.11740  0.34380  0.50410  1.0000 0.1199435445
H   H233      1.0  0.12900  0.14250  0.30500  1.0000 0.1109298013
H   H234      1.0  0.19350  0.09720  0.21950  1.0000 0.1199435445
H   H235      1.0  0.31660  0.19720  0.30550  1.0000 0.1199435445
H   H236      1.0  0.25300  0.24170  0.39110  1.0000 0.1109298013
H   H237      1.0  0.37200  0.11850  0.27700  1.0000 0.100994156
H   H238      1.0  0.35100  0.04510  0.06160  1.0000 0.1199435445
H   H239      1.0  0.25920  0.08500  0.10180  1.0000 0.1199435445
H   H240      1.0  0.07470  0.45920  0.66350  1.0000 0.3551142799
C   C1        1.0  0.81445  0.48024  0.19270  1.0000 -0.0304197341
C   C2        1.0  0.77271  0.50946  0.15510  1.0000 -0.1140068614
C   C3        1.0  0.85387  0.52523  0.09430  1.0000 0.0773638381
C   C4        1.0  0.77268  0.57444  0.03270  1.0000 0.1618764537
C   C5        1.0  0.71584  0.56944  0.01550  1.0000 -0.1975498175
C   C6        1.0  0.69204  0.60389  0.95710  1.0000 -0.1410855974
C   C7        1.0  0.72344  0.64469  0.91630  1.0000 0.0578522027
C   C8        1.0  0.78003  0.64916  0.93430  1.0000 -0.1410855974
C   C9        1.0  0.80492  0.61410  0.99230  1.0000 -0.1908023417
C   C10       1.0  0.69613  0.68434  0.85820  1.0000 0.0578522027
C   C11       1.0  0.65340  0.66730  0.80590  1.0000 -0.1410855974
C   C12       1.0  0.62647  0.70559  0.75490  1.0000 -0.1975498175
C   C13       1.0  0.64228  0.76082  0.75600  1.0000 0.147146477
C   C14       1.0  0.68567  0.77852  0.80610  1.0000 -0.1975498175
C   C15       1.0  0.71205  0.74065  0.85660  1.0000 -0.1309110239
C   C16       1.0  0.60482  0.85536  0.72790  1.0000 0.0859313744
C   C17       1.0  0.56499  0.84349  0.61100  1.0000 -0.0304197341
C   C18       1.0  0.58704  0.79312  0.63220  1.0000 -0.1309110239
C   C19       1.0  0.18555  0.51976  0.19270  1.0000 -0.0304197341
C   C20       1.0  0.22729  0.49054  0.15510  1.0000 -0.1140068614
C   C21       1.0  0.14613  0.47477  0.09430  1.0000 0.0773638381
C   C22       1.0  0.22732  0.42556  0.03270  1.0000 0.1618764537
C   C23       1.0  0.28416  0.43056  0.01550  1.0000 -0.1975498175
C   C24       1.0  0.30796  0.39611  0.95710  1.0000 -0.1410855974
C   C25       1.0  0.27656  0.35531  0.91630  1.0000 0.0578522027
C   C26       1.0  0.21997  0.35084  0.93430  1.0000 -0.1410855974
C   C27       1.0  0.19508  0.38590  0.99230  1.0000 -0.1908023417
C   C28       1.0  0.30387  0.31566  0.85820  1.0000 0.0578522027
C   C29       1.0  0.34660  0.33270  0.80590  1.0000 -0.1410855974
C   C30       1.0  0.37353  0.29441  0.75490  1.0000 -0.1975498175
C   C31       1.0  0.35772  0.23918  0.75600  1.0000 0.147146477
C   C32       1.0  0.31433  0.22148  0.80610  1.0000 -0.1975498175
C   C33       1.0  0.28795  0.25935  0.85660  1.0000 -0.1309110239
C   C34       1.0  0.39518  0.14464  0.72790  1.0000 0.0859313744
C   C35       1.0  0.43501  0.15651  0.61100  1.0000 -0.0304197341
C   C36       1.0  0.41296  0.20688  0.63220  1.0000 -0.1309110239
C   C37       1.0  0.48024  0.18555  0.19270  1.0000 -0.0304197341
C   C38       1.0  0.50946  0.22729  0.15510  1.0000 -0.1140068614
C   C39       1.0  0.52523  0.14613  0.09430  1.0000 0.0773638381
C   C40       1.0  0.57444  0.22732  0.03270  1.0000 0.1618764537
C   C41       1.0  0.56944  0.28416  0.01550  1.0000 -0.1975498175
C   C42       1.0  0.60389  0.30796  0.95710  1.0000 -0.1410855974
C   C43       1.0  0.64469  0.27656  0.91630  1.0000 0.0578522027
C   C44       1.0  0.64916  0.21997  0.93430  1.0000 -0.1410855974
C   C45       1.0  0.61410  0.19508  0.99230  1.0000 -0.1908023417
C   C46       1.0  0.68434  0.30387  0.85820  1.0000 0.0578522027
C   C47       1.0  0.66730  0.34660  0.80590  1.0000 -0.1410855974
C   C48       1.0  0.70559  0.37353  0.75490  1.0000 -0.1975498175
C   C49       1.0  0.76082  0.35772  0.75600  1.0000 0.147146477
C   C50       1.0  0.77852  0.31433  0.80610  1.0000 -0.1975498175
C   C51       1.0  0.74065  0.28795  0.85660  1.0000 -0.1309110239
C   C52       1.0  0.85536  0.39518  0.72790  1.0000 0.0859313744
C   C53       1.0  0.84349  0.43501  0.61100  1.0000 -0.0304197341
C   C54       1.0  0.79312  0.41296  0.63220  1.0000 -0.1309110239
C   C55       1.0  0.51976  0.81445  0.19270  1.0000 -0.0304197341
C   C56       1.0  0.49054  0.77271  0.15510  1.0000 -0.1140068614
C   C57       1.0  0.47477  0.85387  0.09430  1.0000 0.0773638381
C   C58       1.0  0.42556  0.77268  0.03270  1.0000 0.1618764537
C   C59       1.0  0.43056  0.71584  0.01550  1.0000 -0.1975498175
C   C60       1.0  0.39611  0.69204  0.95710  1.0000 -0.1410855974
C   C61       1.0  0.35531  0.72344  0.91630  1.0000 0.0578522027
C   C62       1.0  0.35084  0.78003  0.93430  1.0000 -0.1410855974
C   C63       1.0  0.38590  0.80492  0.99230  1.0000 -0.1908023417
C   C64       1.0  0.31566  0.69613  0.85820  1.0000 0.0578522027
C   C65       1.0  0.33270  0.65340  0.80590  1.0000 -0.1410855974
C   C66       1.0  0.29441  0.62647  0.75490  1.0000 -0.1975498175
C   C67       1.0  0.23918  0.64228  0.75600  1.0000 0.147146477
C   C68       1.0  0.22148  0.68567  0.80610  1.0000 -0.1975498175
C   C69       1.0  0.25935  0.71205  0.85660  1.0000 -0.1309110239
C   C70       1.0  0.14464  0.60482  0.72790  1.0000 0.0859313744
C   C71       1.0  0.15651  0.56499  0.61100  1.0000 -0.0304197341
C   C72       1.0  0.20688  0.58704  0.63220  1.0000 -0.1309110239
C   C73       1.0  0.81445  0.51976  0.80730  1.0000 -0.0304197341
C   C74       1.0  0.77271  0.49054  0.84490  1.0000 -0.1140068614
C   C75       1.0  0.85387  0.47477  0.90570  1.0000 0.0773638381
C   C76       1.0  0.77268  0.42556  0.96730  1.0000 0.1618764537
C   C77       1.0  0.71584  0.43056  0.98450  1.0000 -0.1975498175
C   C78       1.0  0.69204  0.39611  0.04290  1.0000 -0.1410855974
C   C79       1.0  0.72344  0.35531  0.08370  1.0000 0.0578522027
C   C80       1.0  0.78003  0.35084  0.06570  1.0000 -0.1410855974
C   C81       1.0  0.80492  0.38590  0.00770  1.0000 -0.1908023417
C   C82       1.0  0.69613  0.31566  0.14180  1.0000 0.0578522027
C   C83       1.0  0.65340  0.33270  0.19410  1.0000 -0.1410855974
C   C84       1.0  0.62647  0.29441  0.24510  1.0000 -0.1975498175
C   C85       1.0  0.64228  0.23918  0.24400  1.0000 0.147146477
C   C86       1.0  0.68567  0.22148  0.19390  1.0000 -0.1975498175
C   C87       1.0  0.71205  0.25935  0.14340  1.0000 -0.1309110239
C   C88       1.0  0.60482  0.14464  0.27210  1.0000 0.0859313744
C   C89       1.0  0.56499  0.15651  0.38900  1.0000 -0.0304197341
C   C90       1.0  0.58704  0.20688  0.36780  1.0000 -0.1309110239
C   C91       1.0  0.18555  0.48024  0.80730  1.0000 -0.0304197341
C   C92       1.0  0.22729  0.50946  0.84490  1.0000 -0.1140068614
C   C93       1.0  0.14613  0.52523  0.90570  1.0000 0.0773638381
C   C94       1.0  0.22732  0.57444  0.96730  1.0000 0.1618764537
C   C95       1.0  0.28416  0.56944  0.98450  1.0000 -0.1975498175
C   C96       1.0  0.30796  0.60389  0.04290  1.0000 -0.1410855974
C   C97       1.0  0.27656  0.64469  0.08370  1.0000 0.0578522027
C   C98       1.0  0.21997  0.64916  0.06570  1.0000 -0.1410855974
C   C99       1.0  0.19508  0.61410  0.00770  1.0000 -0.1908023417
C   C100      1.0  0.30387  0.68434  0.14180  1.0000 0.0578522027
C   C101      1.0  0.34660  0.66730  0.19410  1.0000 -0.1410855974
C   C102      1.0  0.37353  0.70559  0.24510  1.0000 -0.1975498175
C   C103      1.0  0.35772  0.76082  0.24400  1.0000 0.147146477
C   C104      1.0  0.31433  0.77852  0.19390  1.0000 -0.1975498175
C   C105      1.0  0.28795  0.74065  0.14340  1.0000 -0.1309110239
C   C106      1.0  0.39518  0.85536  0.27210  1.0000 0.0859313744
C   C107      1.0  0.43501  0.84349  0.38900  1.0000 -0.0304197341
C   C108      1.0  0.41296  0.79312  0.36780  1.0000 -0.1309110239
C   C109      1.0  0.48024  0.81445  0.80730  1.0000 -0.0304197341
C   C110      1.0  0.50946  0.77271  0.84490  1.0000 -0.1140068614
C   C111      1.0  0.52523  0.85387  0.90570  1.0000 0.0773638381
C   C112      1.0  0.57444  0.77268  0.96730  1.0000 0.1618764537
C   C113      1.0  0.56944  0.71584  0.98450  1.0000 -0.1975498175
C   C114      1.0  0.60389  0.69204  0.04290  1.0000 -0.1410855974
C   C115      1.0  0.64469  0.72344  0.08370  1.0000 0.0578522027
C   C116      1.0  0.64916  0.78003  0.06570  1.0000 -0.1410855974
C   C117      1.0  0.61410  0.80492  0.00770  1.0000 -0.1908023417
C   C118      1.0  0.68434  0.69613  0.14180  1.0000 0.0578522027
C   C119      1.0  0.66730  0.65340  0.19410  1.0000 -0.1410855974
C   C120      1.0  0.70559  0.62647  0.24510  1.0000 -0.1975498175
C   C121      1.0  0.76082  0.64228  0.24400  1.0000 0.147146477
C   C122      1.0  0.77852  0.68567  0.19390  1.0000 -0.1975498175
C   C123      1.0  0.74065  0.71205  0.14340  1.0000 -0.1309110239
C   C124      1.0  0.85536  0.60482  0.27210  1.0000 0.0859313744
C   C125      1.0  0.84349  0.56499  0.38900  1.0000 -0.0304197341
C   C126      1.0  0.79312  0.58704  0.36780  1.0000 -0.1309110239
C   C127      1.0  0.51976  0.18555  0.80730  1.0000 -0.0304197341
C   C128      1.0  0.49054  0.22729  0.84490  1.0000 -0.1140068614
C   C129      1.0  0.47477  0.14613  0.90570  1.0000 0.0773638381
C   C130      1.0  0.42556  0.22732  0.96730  1.0000 0.1618764537
C   C131      1.0  0.43056  0.28416  0.98450  1.0000 -0.1975498175
C   C132      1.0  0.39611  0.30796  0.04290  1.0000 -0.1410855974
C   C133      1.0  0.35531  0.27656  0.08370  1.0000 0.0578522027
C   C134      1.0  0.35084  0.21997  0.06570  1.0000 -0.1410855974
C   C135      1.0  0.38590  0.19508  0.00770  1.0000 -0.1908023417
C   C136      1.0  0.31566  0.30387  0.14180  1.0000 0.0578522027
C   C137      1.0  0.33270  0.34660  0.19410  1.0000 -0.1410855974
C   C138      1.0  0.29441  0.37353  0.24510  1.0000 -0.1975498175
C   C139      1.0  0.23918  0.35772  0.24400  1.0000 0.147146477
C   C140      1.0  0.22148  0.31433  0.19390  1.0000 -0.1975498175
C   C141      1.0  0.25935  0.28795  0.14340  1.0000 -0.1309110239
C   C142      1.0  0.14464  0.39518  0.27210  1.0000 0.0859313744
C   C143      1.0  0.15651  0.43501  0.38900  1.0000 -0.0304197341
C   C144      1.0  0.20688  0.41296  0.36780  1.0000 -0.1309110239
C   C145      1.0  0.68555  0.01976  0.30730  1.0000 -0.0304197341
C   C146      1.0  0.72729  0.99054  0.34490  1.0000 -0.1140068614
C   C147      1.0  0.64613  0.97477  0.40570  1.0000 0.0773638381
C   C148      1.0  0.72732  0.92556  0.46730  1.0000 0.1618764537
C   C149      1.0  0.78416  0.93056  0.48450  1.0000 -0.1975498175
C   C150      1.0  0.80796  0.89611  0.54290  1.0000 -0.1410855974
C   C151      1.0  0.77656  0.85531  0.58370  1.0000 0.0578522027
C   C152      1.0  0.71997  0.85084  0.56570  1.0000 -0.1410855974
C   C153      1.0  0.69508  0.88590  0.50770  1.0000 -0.1908023417
C   C154      1.0  0.80387  0.81566  0.64180  1.0000 0.0578522027
C   C155      1.0  0.84660  0.83270  0.69410  1.0000 -0.1410855974
C   C156      1.0  0.87353  0.79441  0.74510  1.0000 -0.1975498175
C   C157      1.0  0.85772  0.73918  0.74400  1.0000 0.147146477
C   C158      1.0  0.81433  0.72148  0.69390  1.0000 -0.1975498175
C   C159      1.0  0.78795  0.75935  0.64340  1.0000 -0.1309110239
C   C160      1.0  0.89518  0.64464  0.77210  1.0000 0.0859313744
C   C161      1.0  0.93501  0.65651  0.88900  1.0000 -0.0304197341
C   C162      1.0  0.91296  0.70688  0.86780  1.0000 -0.1309110239
C   C163      1.0  0.31445  0.98024  0.30730  1.0000 -0.0304197341
C   C164      1.0  0.27271  0.00946  0.34490  1.0000 -0.1140068614
C   C165      1.0  0.35387  0.02523  0.40570  1.0000 0.0773638381
C   C166      1.0  0.27268  0.07444  0.46730  1.0000 0.1618764537
C   C167      1.0  0.21584  0.06944  0.48450  1.0000 -0.1975498175
C   C168      1.0  0.19204  0.10389  0.54290  1.0000 -0.1410855974
C   C169      1.0  0.22344  0.14469  0.58370  1.0000 0.0578522027
C   C170      1.0  0.28003  0.14916  0.56570  1.0000 -0.1410855974
C   C171      1.0  0.30492  0.11410  0.50770  1.0000 -0.1908023417
C   C172      1.0  0.19613  0.18434  0.64180  1.0000 0.0578522027
C   C173      1.0  0.15340  0.16730  0.69410  1.0000 -0.1410855974
C   C174      1.0  0.12647  0.20559  0.74510  1.0000 -0.1975498175
C   C175      1.0  0.14228  0.26082  0.74400  1.0000 0.147146477
C   C176      1.0  0.18567  0.27852  0.69390  1.0000 -0.1975498175
C   C177      1.0  0.21205  0.24065  0.64340  1.0000 -0.1309110239
C   C178      1.0  0.10482  0.35536  0.77210  1.0000 0.0859313744
C   C179      1.0  0.06499  0.34349  0.88900  1.0000 -0.0304197341
C   C180      1.0  0.08704  0.29312  0.86780  1.0000 -0.1309110239
C   C181      1.0  0.01976  0.31445  0.30730  1.0000 -0.0304197341
C   C182      1.0  0.99054  0.27271  0.34490  1.0000 -0.1140068614
C   C183      1.0  0.97477  0.35387  0.40570  1.0000 0.0773638381
C   C184      1.0  0.92556  0.27268  0.46730  1.0000 0.1618764537
C   C185      1.0  0.93056  0.21584  0.48450  1.0000 -0.1975498175
C   C186      1.0  0.89611  0.19204  0.54290  1.0000 -0.1410855974
C   C187      1.0  0.85531  0.22344  0.58370  1.0000 0.0578522027
C   C188      1.0  0.85084  0.28003  0.56570  1.0000 -0.1410855974
C   C189      1.0  0.88590  0.30492  0.50770  1.0000 -0.1908023417
C   C190      1.0  0.81566  0.19613  0.64180  1.0000 0.0578522027
C   C191      1.0  0.83270  0.15340  0.69410  1.0000 -0.1410855974
C   C192      1.0  0.79441  0.12647  0.74510  1.0000 -0.1975498175
C   C193      1.0  0.73918  0.14228  0.74400  1.0000 0.147146477
C   C194      1.0  0.72148  0.18567  0.69390  1.0000 -0.1975498175
C   C195      1.0  0.75935  0.21205  0.64340  1.0000 -0.1309110239
C   C196      1.0  0.64464  0.10482  0.77210  1.0000 0.0859313744
C   C197      1.0  0.65651  0.06499  0.88900  1.0000 -0.0304197341
C   C198      1.0  0.70688  0.08704  0.86780  1.0000 -0.1309110239
C   C199      1.0  0.98024  0.68555  0.30730  1.0000 -0.0304197341
C   C200      1.0  0.00946  0.72729  0.34490  1.0000 -0.1140068614
C   C201      1.0  0.02523  0.64613  0.40570  1.0000 0.0773638381
C   C202      1.0  0.07444  0.72732  0.46730  1.0000 0.1618764537
C   C203      1.0  0.06944  0.78416  0.48450  1.0000 -0.1975498175
C   C204      1.0  0.10389  0.80796  0.54290  1.0000 -0.1410855974
C   C205      1.0  0.14469  0.77656  0.58370  1.0000 0.0578522027
C   C206      1.0  0.14916  0.71997  0.56570  1.0000 -0.1410855974
C   C207      1.0  0.11410  0.69508  0.50770  1.0000 -0.1908023417
C   C208      1.0  0.18434  0.80387  0.64180  1.0000 0.0578522027
C   C209      1.0  0.16730  0.84660  0.69410  1.0000 -0.1410855974
C   C210      1.0  0.20559  0.87353  0.74510  1.0000 -0.1975498175
C   C211      1.0  0.26082  0.85772  0.74400  1.0000 0.147146477
C   C212      1.0  0.27852  0.81433  0.69390  1.0000 -0.1975498175
C   C213      1.0  0.24065  0.78795  0.64340  1.0000 -0.1309110239
C   C214      1.0  0.35536  0.89518  0.77210  1.0000 0.0859313744
C   C215      1.0  0.34349  0.93501  0.88900  1.0000 -0.0304197341
C   C216      1.0  0.29312  0.91296  0.86780  1.0000 -0.1309110239
C   C217      1.0  0.68555  0.98024  0.69270  1.0000 -0.0304197341
C   C218      1.0  0.72729  0.00946  0.65510  1.0000 -0.1140068614
C   C219      1.0  0.64613  0.02523  0.59430  1.0000 0.0773638381
C   C220      1.0  0.72732  0.07444  0.53270  1.0000 0.1618764537
C   C221      1.0  0.78416  0.06944  0.51550  1.0000 -0.1975498175
C   C222      1.0  0.80796  0.10389  0.45710  1.0000 -0.1410855974
C   C223      1.0  0.77656  0.14469  0.41630  1.0000 0.0578522027
C   C224      1.0  0.71997  0.14916  0.43430  1.0000 -0.1410855974
C   C225      1.0  0.69508  0.11410  0.49230  1.0000 -0.1908023417
C   C226      1.0  0.80387  0.18434  0.35820  1.0000 0.0578522027
C   C227      1.0  0.84660  0.16730  0.30590  1.0000 -0.1410855974
C   C228      1.0  0.87353  0.20559  0.25490  1.0000 -0.1975498175
C   C229      1.0  0.85772  0.26082  0.25600  1.0000 0.147146477
C   C230      1.0  0.81433  0.27852  0.30610  1.0000 -0.1975498175
C   C231      1.0  0.78795  0.24065  0.35660  1.0000 -0.1309110239
C   C232      1.0  0.89518  0.35536  0.22790  1.0000 0.0859313744
C   C233      1.0  0.93501  0.34349  0.11100  1.0000 -0.0304197341
C   C234      1.0  0.91296  0.29312  0.13220  1.0000 -0.1309110239
C   C235      1.0  0.31445  0.01976  0.69270  1.0000 -0.0304197341
C   C236      1.0  0.27271  0.99054  0.65510  1.0000 -0.1140068614
C   C237      1.0  0.35387  0.97477  0.59430  1.0000 0.0773638381
C   C238      1.0  0.27268  0.92556  0.53270  1.0000 0.1618764537
C   C239      1.0  0.21584  0.93056  0.51550  1.0000 -0.1975498175
C   C240      1.0  0.19204  0.89611  0.45710  1.0000 -0.1410855974
C   C241      1.0  0.22344  0.85531  0.41630  1.0000 0.0578522027
C   C242      1.0  0.28003  0.85084  0.43430  1.0000 -0.1410855974
C   C243      1.0  0.30492  0.88590  0.49230  1.0000 -0.1908023417
C   C244      1.0  0.19613  0.81566  0.35820  1.0000 0.0578522027
C   C245      1.0  0.15340  0.83270  0.30590  1.0000 -0.1410855974
C   C246      1.0  0.12647  0.79441  0.25490  1.0000 -0.1975498175
C   C247      1.0  0.14228  0.73918  0.25600  1.0000 0.147146477
C   C248      1.0  0.18567  0.72148  0.30610  1.0000 -0.1975498175
C   C249      1.0  0.21205  0.75935  0.35660  1.0000 -0.1309110239
C   C250      1.0  0.10482  0.64464  0.22790  1.0000 0.0859313744
C   C251      1.0  0.06499  0.65651  0.11100  1.0000 -0.0304197341
C   C252      1.0  0.08704  0.70688  0.13220  1.0000 -0.1309110239
C   C253      1.0  0.01976  0.68555  0.69270  1.0000 -0.0304197341
C   C254      1.0  0.99054  0.72729  0.65510  1.0000 -0.1140068614
C   C255      1.0  0.97477  0.64613  0.59430  1.0000 0.0773638381
C   C256      1.0  0.92556  0.72732  0.53270  1.0000 0.1618764537
C   C257      1.0  0.93056  0.78416  0.51550  1.0000 -0.1975498175
C   C258      1.0  0.89611  0.80796  0.45710  1.0000 -0.1410855974
C   C259      1.0  0.85531  0.77656  0.41630  1.0000 0.0578522027
C   C260      1.0  0.85084  0.71997  0.43430  1.0000 -0.1410855974
C   C261      1.0  0.88590  0.69508  0.49230  1.0000 -0.1908023417
C   C262      1.0  0.81566  0.80387  0.35820  1.0000 0.0578522027
C   C263      1.0  0.83270  0.84660  0.30590  1.0000 -0.1410855974
C   C264      1.0  0.79441  0.87353  0.25490  1.0000 -0.1975498175
C   C265      1.0  0.73918  0.85772  0.25600  1.0000 0.147146477
C   C266      1.0  0.72148  0.81433  0.30610  1.0000 -0.1975498175
C   C267      1.0  0.75935  0.78795  0.35660  1.0000 -0.1309110239
C   C268      1.0  0.64464  0.89518  0.22790  1.0000 0.0859313744
C   C269      1.0  0.65651  0.93501  0.11100  1.0000 -0.0304197341
C   C270      1.0  0.70688  0.91296  0.13220  1.0000 -0.1309110239
C   C271      1.0  0.98024  0.31445  0.69270  1.0000 -0.0304197341
C   C272      1.0  0.00946  0.27271  0.65510  1.0000 -0.1140068614
C   C273      1.0  0.02523  0.35387  0.59430  1.0000 0.0773638381
C   C274      1.0  0.07444  0.27268  0.53270  1.0000 0.1618764537
C   C275      1.0  0.06944  0.21584  0.51550  1.0000 -0.1975498175
C   C276      1.0  0.10389  0.19204  0.45710  1.0000 -0.1410855974
C   C277      1.0  0.14469  0.22344  0.41630  1.0000 0.0578522027
C   C278      1.0  0.14916  0.28003  0.43430  1.0000 -0.1410855974
C   C279      1.0  0.11410  0.30492  0.49230  1.0000 -0.1908023417
C   C280      1.0  0.18434  0.19613  0.35820  1.0000 0.0578522027
C   C281      1.0  0.16730  0.15340  0.30590  1.0000 -0.1410855974
C   C282      1.0  0.20559  0.12647  0.25490  1.0000 -0.1975498175
C   C283      1.0  0.26082  0.14228  0.25600  1.0000 0.147146477
C   C284      1.0  0.27852  0.18567  0.30610  1.0000 -0.1975498175
C   C285      1.0  0.24065  0.21205  0.35660  1.0000 -0.1309110239
C   C286      1.0  0.35536  0.10482  0.22790  1.0000 0.0859313744
C   C287      1.0  0.34349  0.06499  0.11100  1.0000 -0.0304197341
C   C288      1.0  0.29312  0.08704  0.13220  1.0000 -0.1309110239
S   S1        1.0  0.00000  0.50000  0.00000  1.0000 1.3887345778
S   S2        1.0  0.50000  0.00000  0.00000  1.0000 1.3887345778
S   S3        1.0  0.50000  0.00000  0.50000  1.0000 1.3887345778
S   S4        1.0  0.00000  0.50000  0.50000  1.0000 1.3887345778
N   N1        1.0  0.86473  0.49077  0.15478  1.0000 -0.2956120347
N   N2        1.0  0.79846  0.53810  0.09127  1.0000 -0.0052424139
N   N3        1.0  0.61301  0.80124  0.70722  1.0000 -0.0009671327
N   N4        1.0  0.57571  0.88222  0.67196  1.0000 -0.2851722849
N   N5        1.0  0.13527  0.50923  0.15478  1.0000 -0.2956120347
N   N6        1.0  0.20154  0.46190  0.09127  1.0000 -0.0052424139
N   N7        1.0  0.38699  0.19876  0.70722  1.0000 -0.0009671327
N   N8        1.0  0.42429  0.11778  0.67196  1.0000 -0.2851722849
N   N9        1.0  0.49077  0.13527  0.15478  1.0000 -0.2956120347
N   N10       1.0  0.53810  0.20154  0.09127  1.0000 -0.0052424139
N   N11       1.0  0.80124  0.38699  0.70722  1.0000 -0.0009671327
N   N12       1.0  0.88222  0.42429  0.67196  1.0000 -0.2851722849
N   N13       1.0  0.50923  0.86473  0.15478  1.0000 -0.2956120347
N   N14       1.0  0.46190  0.79846  0.09127  1.0000 -0.0052424139
N   N15       1.0  0.19876  0.61301  0.70722  1.0000 -0.0009671327
N   N16       1.0  0.11778  0.57571  0.67196  1.0000 -0.2851722849
N   N17       1.0  0.86473  0.50923  0.84522  1.0000 -0.2956120347
N   N18       1.0  0.79846  0.46190  0.90873  1.0000 -0.0052424139
N   N19       1.0  0.61301  0.19876  0.29278  1.0000 -0.0009671327
N   N20       1.0  0.57571  0.11778  0.32804  1.0000 -0.2851722849
N   N21       1.0  0.13527  0.49077  0.84522  1.0000 -0.2956120347
N   N22       1.0  0.20154  0.53810  0.90873  1.0000 -0.0052424139
N   N23       1.0  0.38699  0.80124  0.29278  1.0000 -0.0009671327
N   N24       1.0  0.42429  0.88222  0.32804  1.0000 -0.2851722849
N   N25       1.0  0.49077  0.86473  0.84522  1.0000 -0.2956120347
N   N26       1.0  0.53810  0.79846  0.90873  1.0000 -0.0052424139
N   N27       1.0  0.80124  0.61301  0.29278  1.0000 -0.0009671327
N   N28       1.0  0.88222  0.57571  0.32804  1.0000 -0.2851722849
N   N29       1.0  0.50923  0.13527  0.84522  1.0000 -0.2956120347
N   N30       1.0  0.46190  0.20154  0.90873  1.0000 -0.0052424139
N   N31       1.0  0.19876  0.38699  0.29278  1.0000 -0.0009671327
N   N32       1.0  0.11778  0.42429  0.32804  1.0000 -0.2851722849
N   N33       1.0  0.63527  0.00923  0.34522  1.0000 -0.2956120347
N   N34       1.0  0.70154  0.96190  0.40873  1.0000 -0.0052424139
N   N35       1.0  0.88699  0.69876  0.79278  1.0000 -0.0009671327
N   N36       1.0  0.92429  0.61778  0.82804  1.0000 -0.2851722849
N   N37       1.0  0.36473  0.99077  0.34522  1.0000 -0.2956120347
N   N38       1.0  0.29846  0.03810  0.40873  1.0000 -0.0052424139
N   N39       1.0  0.11301  0.30124  0.79278  1.0000 -0.0009671327
N   N40       1.0  0.07571  0.38222  0.82804  1.0000 -0.2851722849
N   N41       1.0  0.00923  0.36473  0.34522  1.0000 -0.2956120347
N   N42       1.0  0.96190  0.29846  0.40873  1.0000 -0.0052424139
N   N43       1.0  0.69876  0.11301  0.79278  1.0000 -0.0009671327
N   N44       1.0  0.61778  0.07571  0.82804  1.0000 -0.2851722849
N   N45       1.0  0.99077  0.63527  0.34522  1.0000 -0.2956120347
N   N46       1.0  0.03810  0.70154  0.40873  1.0000 -0.0052424139
N   N47       1.0  0.30124  0.88699  0.79278  1.0000 -0.0009671327
N   N48       1.0  0.38222  0.92429  0.82804  1.0000 -0.2851722849
N   N49       1.0  0.63527  0.99077  0.65478  1.0000 -0.2956120347
N   N50       1.0  0.70154  0.03810  0.59127  1.0000 -0.0052424139
N   N51       1.0  0.88699  0.30124  0.20722  1.0000 -0.0009671327
N   N52       1.0  0.92429  0.38222  0.17196  1.0000 -0.2851722849
N   N53       1.0  0.36473  0.00923  0.65478  1.0000 -0.2956120347
N   N54       1.0  0.29846  0.96190  0.59127  1.0000 -0.0052424139
N   N55       1.0  0.11301  0.69876  0.20722  1.0000 -0.0009671327
N   N56       1.0  0.07571  0.61778  0.17196  1.0000 -0.2851722849
N   N57       1.0  0.00923  0.63527  0.65478  1.0000 -0.2956120347
N   N58       1.0  0.96190  0.70154  0.59127  1.0000 -0.0052424139
N   N59       1.0  0.69876  0.88699  0.20722  1.0000 -0.0009671327
N   N60       1.0  0.61778  0.92429  0.17196  1.0000 -0.2851722849
N   N61       1.0  0.99077  0.36473  0.65478  1.0000 -0.2956120347
N   N62       1.0  0.03810  0.29846  0.59127  1.0000 -0.0052424139
N   N63       1.0  0.30124  0.11301  0.20722  1.0000 -0.0009671327
N   N64       1.0  0.38222  0.07571  0.17196  1.0000 -0.2851722849
O   O1        1.0  0.97042  0.54945  0.19586  1.0000 -0.821707697
O   O2        1.0  0.96365  0.46390  0.05125  1.0000 -0.6762140965
O   O3        1.0  0.02958  0.45055  0.19586  1.0000 -0.821707697
O   O4        1.0  0.03635  0.53610  0.05125  1.0000 -0.6762140965
O   O5        1.0  0.54945  0.02958  0.19586  1.0000 -0.821707697
O   O6        1.0  0.46390  0.03635  0.05125  1.0000 -0.6762140965
O   O7        1.0  0.45055  0.97042  0.19586  1.0000 -0.821707697
O   O8        1.0  0.53610  0.96365  0.05125  1.0000 -0.6762140965
O   O9        1.0  0.97042  0.45055  0.80414  1.0000 -0.821707697
O   O10       1.0  0.96365  0.53610  0.94875  1.0000 -0.6762140965
O   O11       1.0  0.02958  0.54945  0.80414  1.0000 -0.821707697
O   O12       1.0  0.03635  0.46390  0.94875  1.0000 -0.6762140965
O   O13       1.0  0.54945  0.97042  0.80414  1.0000 -0.821707697
O   O14       1.0  0.46390  0.96365  0.94875  1.0000 -0.6762140965
O   O15       1.0  0.45055  0.02958  0.80414  1.0000 -0.821707697
O   O16       1.0  0.53610  0.03635  0.94875  1.0000 -0.6762140965
O   O17       1.0  0.52958  0.95055  0.30414  1.0000 -0.821707697
O   O18       1.0  0.53635  0.03610  0.44875  1.0000 -0.6762140965
O   O19       1.0  0.47042  0.04945  0.30414  1.0000 -0.821707697
O   O20       1.0  0.46365  0.96390  0.44875  1.0000 -0.6762140965
O   O21       1.0  0.95055  0.47042  0.30414  1.0000 -0.821707697
O   O22       1.0  0.03610  0.46365  0.44875  1.0000 -0.6762140965
O   O23       1.0  0.04945  0.52958  0.30414  1.0000 -0.821707697
O   O24       1.0  0.96390  0.53635  0.44875  1.0000 -0.6762140965
O   O25       1.0  0.52958  0.04945  0.69586  1.0000 -0.821707697
O   O26       1.0  0.53635  0.96390  0.55125  1.0000 -0.6762140965
O   O27       1.0  0.47042  0.95055  0.69586  1.0000 -0.821707697
O   O28       1.0  0.46365  0.03610  0.55125  1.0000 -0.6762140965
O   O29       1.0  0.95055  0.52958  0.69586  1.0000 -0.821707697
O   O30       1.0  0.03610  0.53635  0.55125  1.0000 -0.6762140965
O   O31       1.0  0.04945  0.47042  0.69586  1.0000 -0.821707697
O   O32       1.0  0.96390  0.46365  0.55125  1.0000 -0.6762140965
