# DDEC6 charges by PACMAN v1.1 (https://github.com/mtap-research/PACMAN-charge/)
data_2019[CoMn][nan]3[ASR]1
_chemical_formula_sum              "Mn6 Co6 H96 C204 O48 F72"
_cell_length_a       21.2423
_cell_length_b       21.2423
_cell_length_c       15.1282
_cell_angle_alpha    90
_cell_angle_beta     90
_cell_angle_gamma    120

_symmetry_space_group_name_H-M    "P 1"
_symmetry_Int_Tables_number       1

loop_
  _symmetry_equiv_pos_as_xyz
  'x, y, z'

loop_
  _atom_site_type_symbol
  _atom_site_label
  _atom_site_symmetry_multiplicity
  _atom_site_fract_x
  _atom_site_fract_y
  _atom_site_fract_z
  _atom_site_occupancy
  _atom_site_charge
Mn  Mn1       1.0  0.64982  0.32491  0.91667  1.0000 1.0515611192
Mn  Mn2       1.0  0.67509  0.35018  0.25000  1.0000 1.0515611192
Mn  Mn3       1.0  0.67509  0.32491  0.58333  1.0000 1.0515611192
Mn  Mn4       1.0  0.35018  0.67509  0.41667  1.0000 1.0515611192
Mn  Mn5       1.0  0.32491  0.64982  0.75000  1.0000 1.0515611192
Mn  Mn6       1.0  0.32491  0.67509  0.08333  1.0000 1.0515611192
Co  Co1       1.0  0.71682  0.43364  0.75000  1.0000 0.9156423946
Co  Co2       1.0  0.71682  0.28318  0.08333  1.0000 0.9136571904
Co  Co3       1.0  0.56636  0.28318  0.41667  1.0000 0.9156423946
Co  Co4       1.0  0.28318  0.56636  0.25000  1.0000 0.9156423946
Co  Co5       1.0  0.28318  0.71682  0.58333  1.0000 0.9156423946
Co  Co6       1.0  0.43364  0.71682  0.91667  1.0000 0.9156423946
H   H1        1.0  0.73441  0.62120  0.85723  1.0000 0.1286503722
H   H2        1.0  0.67281  0.77080  0.26073  1.0000 0.1208583397
H   H3        1.0  0.58301  0.66710  0.03403  1.0000 0.1208583397
H   H4        1.0  0.56061  0.74640  0.31003  1.0000 0.1286503722
H   H5        1.0  0.64951  0.59460  0.14303  1.0000 0.1208583397
H   H6        1.0  0.75171  0.72210  0.93643  1.0000 0.1144381856
H   H7        1.0  0.63581  0.49450  0.06773  1.0000 0.1286503722
H   H8        1.0  0.47081  0.64340  0.08283  1.0000 0.1208583397
H   H9        1.0  0.88679  0.26559  0.19057  1.0000 0.1286503722
H   H10       1.0  0.09799  0.32719  0.59407  1.0000 0.1208583397
H   H11       1.0  0.08409  0.41699  0.36737  1.0000 0.1208583397
H   H12       1.0  0.18579  0.43939  0.64337  1.0000 0.1286503722
H   H13       1.0  0.94509  0.35049  0.47637  1.0000 0.1208583397
H   H14       1.0  0.97039  0.24829  0.26977  1.0000 0.1144381856
H   H15       1.0  0.85869  0.36419  0.40107  1.0000 0.1286503722
H   H16       1.0  0.17259  0.52919  0.41617  1.0000 0.1208583397
H   H17       1.0  0.37880  0.11321  0.52390  1.0000 0.1286503722
H   H18       1.0  0.22920  0.90201  0.92740  1.0000 0.1208583397
H   H19       1.0  0.33290  0.91591  0.70070  1.0000 0.1208583397
H   H20       1.0  0.25360  0.81421  0.97670  1.0000 0.1286503722
H   H21       1.0  0.40540  0.05491  0.80970  1.0000 0.1208583397
H   H22       1.0  0.27790  0.02961  0.60310  1.0000 0.1144381856
H   H23       1.0  0.50550  0.14131  0.73440  1.0000 0.1286503722
H   H24       1.0  0.35660  0.82741  0.74950  1.0000 0.1208583397
H   H25       1.0  0.26559  0.37880  0.35723  1.0000 0.1286503722
H   H26       1.0  0.32719  0.22920  0.76073  1.0000 0.1208583397
H   H27       1.0  0.41699  0.33290  0.53403  1.0000 0.1208583397
H   H28       1.0  0.43939  0.25360  0.81003  1.0000 0.1286503722
H   H29       1.0  0.35049  0.40540  0.64303  1.0000 0.1208583397
H   H30       1.0  0.24829  0.27790  0.43643  1.0000 0.1144381856
H   H31       1.0  0.36419  0.50550  0.56773  1.0000 0.1286503722
H   H32       1.0  0.52919  0.35660  0.58283  1.0000 0.1208583397
H   H33       1.0  0.11321  0.73441  0.69057  1.0000 0.1286503722
H   H34       1.0  0.90201  0.67281  0.09407  1.0000 0.1208583397
H   H35       1.0  0.91591  0.58301  0.86737  1.0000 0.1208583397
H   H36       1.0  0.81421  0.56061  0.14337  1.0000 0.1286503722
H   H37       1.0  0.05491  0.64951  0.97637  1.0000 0.1208583397
H   H38       1.0  0.02961  0.75171  0.76977  1.0000 0.1144381856
H   H39       1.0  0.14131  0.63581  0.90107  1.0000 0.1286503722
H   H40       1.0  0.82741  0.47081  0.91617  1.0000 0.1208583397
H   H41       1.0  0.62120  0.88679  0.02390  1.0000 0.1286503722
H   H42       1.0  0.77080  0.09799  0.42740  1.0000 0.1208583397
H   H43       1.0  0.66710  0.08409  0.20070  1.0000 0.1208583397
H   H44       1.0  0.74640  0.18579  0.47670  1.0000 0.1286503722
H   H45       1.0  0.59460  0.94509  0.30970  1.0000 0.1208583397
H   H46       1.0  0.72210  0.97039  0.10310  1.0000 0.1144381856
H   H47       1.0  0.49450  0.85869  0.23440  1.0000 0.1286503722
H   H48       1.0  0.64340  0.17259  0.24950  1.0000 0.1208583397
H   H49       1.0  0.11321  0.37880  0.14277  1.0000 0.1286503722
H   H50       1.0  0.90201  0.22920  0.73927  1.0000 0.1208583397
H   H51       1.0  0.91591  0.33290  0.96597  1.0000 0.1208583397
H   H52       1.0  0.81421  0.25360  0.68997  1.0000 0.1286503722
H   H53       1.0  0.05491  0.40540  0.85697  1.0000 0.1208583397
H   H54       1.0  0.02961  0.27790  0.06357  1.0000 0.1144381856
H   H55       1.0  0.14131  0.50550  0.93227  1.0000 0.1286503722
H   H56       1.0  0.82741  0.35660  0.91717  1.0000 0.1208583397
H   H57       1.0  0.62120  0.73441  0.80943  1.0000 0.1286503722
H   H58       1.0  0.77080  0.67281  0.40593  1.0000 0.1208583397
H   H59       1.0  0.66710  0.58301  0.63263  1.0000 0.1208583397
H   H60       1.0  0.74640  0.56061  0.35663  1.0000 0.1286503722
H   H61       1.0  0.59460  0.64951  0.52363  1.0000 0.1208583397
H   H62       1.0  0.72210  0.75171  0.73023  1.0000 0.1144381856
H   H63       1.0  0.49450  0.63581  0.59893  1.0000 0.1286503722
H   H64       1.0  0.64340  0.47081  0.58383  1.0000 0.1208583397
H   H65       1.0  0.26559  0.88679  0.47610  1.0000 0.1286503722
H   H66       1.0  0.32719  0.09799  0.07260  1.0000 0.1208583397
H   H67       1.0  0.41699  0.08409  0.29930  1.0000 0.1208583397
H   H68       1.0  0.43939  0.18579  0.02330  1.0000 0.1286503722
H   H69       1.0  0.35049  0.94509  0.19030  1.0000 0.1208583397
H   H70       1.0  0.24829  0.97039  0.39690  1.0000 0.1144381856
H   H71       1.0  0.36419  0.85869  0.26560  1.0000 0.1286503722
H   H72       1.0  0.52919  0.17259  0.25050  1.0000 0.1208583397
H   H73       1.0  0.88679  0.62120  0.64277  1.0000 0.1286503722
H   H74       1.0  0.09799  0.77080  0.23927  1.0000 0.1208583397
H   H75       1.0  0.08409  0.66710  0.46597  1.0000 0.1208583397
H   H76       1.0  0.18579  0.74640  0.18997  1.0000 0.1286503722
H   H77       1.0  0.94509  0.59460  0.35697  1.0000 0.1208583397
H   H78       1.0  0.97039  0.72210  0.56357  1.0000 0.1144381856
H   H79       1.0  0.85869  0.49450  0.43227  1.0000 0.1286503722
H   H80       1.0  0.17259  0.64340  0.41717  1.0000 0.1208583397
H   H81       1.0  0.37880  0.26559  0.30943  1.0000 0.1286503722
H   H82       1.0  0.22920  0.32719  0.90593  1.0000 0.1208583397
H   H83       1.0  0.33290  0.41699  0.13263  1.0000 0.1208583397
H   H84       1.0  0.25360  0.43939  0.85663  1.0000 0.1286503722
H   H85       1.0  0.40540  0.35049  0.02363  1.0000 0.1208583397
H   H86       1.0  0.27790  0.24829  0.23023  1.0000 0.1144381856
H   H87       1.0  0.50550  0.36419  0.09893  1.0000 0.1286503722
H   H88       1.0  0.35660  0.52919  0.08383  1.0000 0.1208583397
H   H89       1.0  0.73441  0.11321  0.97610  1.0000 0.1286503722
H   H90       1.0  0.67281  0.90201  0.57260  1.0000 0.1208583397
H   H91       1.0  0.58301  0.91591  0.79930  1.0000 0.1208583397
H   H92       1.0  0.56061  0.81421  0.52330  1.0000 0.1286503722
H   H93       1.0  0.64951  0.05491  0.69030  1.0000 0.1208583397
H   H94       1.0  0.75171  0.02961  0.89690  1.0000 0.1144381856
H   H95       1.0  0.63581  0.14131  0.76560  1.0000 0.1286503722
H   H96       1.0  0.47081  0.82741  0.75050  1.0000 0.1208583397
C   C1        1.0  0.67951  0.48490  0.90453  1.0000 0.5735731046
C   C2        1.0  0.71831  0.61590  0.91533  1.0000 -0.0871140457
C   C3        1.0  0.43001  0.67090  0.23693  1.0000 0.5990416477
C   C4        1.0  0.63211  0.74430  0.22523  1.0000 -0.1497132169
C   C5        1.0  0.57851  0.68260  0.09003  1.0000 -0.1266482229
C   C6        1.0  0.56491  0.72970  0.25473  1.0000 -0.0871140457
C   C7        1.0  0.68501  0.54820  0.95433  1.0000 -0.0252608134
C   C8        1.0  0.66761  0.60020  0.08583  1.0000 -0.1382945508
C   C9        1.0  0.71341  0.73390  0.10493  1.0000 -0.2792467753
C   C10       1.0  0.50331  0.69030  0.20283  1.0000 -0.0228279783
C   C11       1.0  0.76851  0.74420  0.17833  1.0000 0.6628180042
C   C12       1.0  0.72801  0.67640  0.96263  1.0000 -0.1497132169
C   C13       1.0  0.65881  0.54000  0.04093  1.0000 -0.0871140457
C   C14       1.0  0.74501  0.80510  0.05173  1.0000 0.6628180042
C   C15       1.0  0.70271  0.66890  0.04823  1.0000 0.078751106
C   C16       1.0  0.51121  0.66810  0.11923  1.0000 -0.0971789004
C   C17       1.0  0.63991  0.72000  0.14293  1.0000 0.078751106
C   C18       1.0  0.80539  0.32049  0.23787  1.0000 0.5735731046
C   C19       1.0  0.89759  0.28169  0.24867  1.0000 -0.0871140457
C   C20       1.0  0.24089  0.56999  0.57027  1.0000 0.5990416477
C   C21       1.0  0.11219  0.36789  0.55857  1.0000 -0.1497132169
C   C22       1.0  0.10409  0.42149  0.42337  1.0000 -0.1266482229
C   C23       1.0  0.16479  0.43509  0.58807  1.0000 -0.0871140457
C   C24       1.0  0.86319  0.31499  0.28767  1.0000 -0.0228279783
C   C25       1.0  0.93259  0.33239  0.41917  1.0000 -0.1382945508
C   C26       1.0  0.02049  0.28659  0.43827  1.0000 -0.2792467753
C   C27       1.0  0.18699  0.49669  0.53617  1.0000 -0.0228279783
C   C28       1.0  0.97569  0.23149  0.51167  1.0000 0.6628180042
C   C29       1.0  0.94839  0.27199  0.29597  1.0000 -0.1497132169
C   C30       1.0  0.88119  0.34119  0.37427  1.0000 -0.0871140457
C   C31       1.0  0.06009  0.25499  0.38507  1.0000 0.6628180042
C   C32       1.0  0.96619  0.29729  0.38157  1.0000 0.078751106
C   C33       1.0  0.15689  0.48879  0.45257  1.0000 -0.0971789004
C   C34       1.0  0.08009  0.36009  0.47627  1.0000 0.078751106
C   C35       1.0  0.51510  0.19461  0.57120  1.0000 0.5735731046
C   C36       1.0  0.38410  0.10241  0.58200  1.0000 -0.0871140457
C   C37       1.0  0.32910  0.75911  0.90360  1.0000 0.5990416477
C   C38       1.0  0.25570  0.88781  0.89190  1.0000 -0.1497132169
C   C39       1.0  0.31740  0.89591  0.75670  1.0000 -0.1266482229
C   C40       1.0  0.27030  0.83521  0.92140  1.0000 -0.0871140457
C   C41       1.0  0.45180  0.13681  0.62100  1.0000 -0.0228279783
C   C42       1.0  0.39980  0.06741  0.75250  1.0000 -0.1382945508
C   C43       1.0  0.26610  0.97951  0.77160  1.0000 -0.2792467753
C   C44       1.0  0.30970  0.81301  0.86950  1.0000 -0.0228279783
C   C45       1.0  0.25580  0.02431  0.84500  1.0000 0.6628180042
C   C46       1.0  0.32360  0.05161  0.62930  1.0000 -0.1497132169
C   C47       1.0  0.46000  0.11881  0.70760  1.0000 -0.0871140457
C   C48       1.0  0.19490  0.93991  0.71840  1.0000 0.6628180042
C   C49       1.0  0.33110  0.03381  0.71490  1.0000 0.078751106
C   C50       1.0  0.33190  0.84311  0.78590  1.0000 -0.0971789004
C   C51       1.0  0.28000  0.91991  0.80960  1.0000 0.078751106
C   C52       1.0  0.32049  0.51510  0.40453  1.0000 0.5735731046
C   C53       1.0  0.28169  0.38410  0.41533  1.0000 -0.0871140457
C   C54       1.0  0.56999  0.32910  0.73693  1.0000 0.5990416477
C   C55       1.0  0.36789  0.25570  0.72523  1.0000 -0.1497132169
C   C56       1.0  0.42149  0.31740  0.59003  1.0000 -0.1266482229
C   C57       1.0  0.43509  0.27030  0.75473  1.0000 -0.0871140457
C   C58       1.0  0.31499  0.45180  0.45433  1.0000 -0.0228279783
C   C59       1.0  0.33239  0.39980  0.58583  1.0000 -0.1382945508
C   C60       1.0  0.28659  0.26610  0.60493  1.0000 -0.2792467753
C   C61       1.0  0.49669  0.30970  0.70283  1.0000 -0.0228279783
C   C62       1.0  0.23149  0.25580  0.67833  1.0000 0.6628180042
C   C63       1.0  0.27199  0.32360  0.46263  1.0000 -0.1497132169
C   C64       1.0  0.34119  0.46000  0.54093  1.0000 -0.0871140457
C   C65       1.0  0.25499  0.19490  0.55173  1.0000 0.6628180042
C   C66       1.0  0.29729  0.33110  0.54823  1.0000 0.078751106
C   C67       1.0  0.48879  0.33190  0.61923  1.0000 -0.0971789004
C   C68       1.0  0.36009  0.28000  0.64293  1.0000 0.078751106
C   C69       1.0  0.19461  0.67951  0.73787  1.0000 0.5735731046
C   C70       1.0  0.10241  0.71831  0.74867  1.0000 -0.0871140457
C   C71       1.0  0.75911  0.43001  0.07027  1.0000 0.5990416477
C   C72       1.0  0.88781  0.63211  0.05857  1.0000 -0.1497132169
C   C73       1.0  0.89591  0.57851  0.92337  1.0000 -0.1266482229
C   C74       1.0  0.83521  0.56491  0.08807  1.0000 -0.0871140457
C   C75       1.0  0.13681  0.68501  0.78767  1.0000 -0.0252608134
C   C76       1.0  0.06741  0.66761  0.91917  1.0000 -0.1382945508
C   C77       1.0  0.97951  0.71341  0.93827  1.0000 -0.2792467753
C   C78       1.0  0.81301  0.50331  0.03617  1.0000 -0.0228279783
C   C79       1.0  0.02431  0.76851  0.01167  1.0000 0.6628180042
C   C80       1.0  0.05161  0.72801  0.79597  1.0000 -0.1497132169
C   C81       1.0  0.11881  0.65881  0.87427  1.0000 -0.0871140457
C   C82       1.0  0.93991  0.74501  0.88507  1.0000 0.6628180042
C   C83       1.0  0.03381  0.70271  0.88157  1.0000 0.078751106
C   C84       1.0  0.84311  0.51121  0.95257  1.0000 -0.0971789004
C   C85       1.0  0.91991  0.63991  0.97627  1.0000 0.078751106
C   C86       1.0  0.48490  0.80539  0.07120  1.0000 0.5735731046
C   C87       1.0  0.61590  0.89759  0.08200  1.0000 -0.0871140457
C   C88       1.0  0.67090  0.24089  0.40360  1.0000 0.5990416477
C   C89       1.0  0.74430  0.11219  0.39190  1.0000 -0.1497132169
C   C90       1.0  0.68260  0.10409  0.25670  1.0000 -0.1266482229
C   C91       1.0  0.72970  0.16479  0.42140  1.0000 -0.0871140457
C   C92       1.0  0.54820  0.86319  0.12100  1.0000 -0.0228279783
C   C93       1.0  0.60020  0.93259  0.25250  1.0000 -0.1382945508
C   C94       1.0  0.73390  0.02049  0.27160  1.0000 -0.2792467753
C   C95       1.0  0.69030  0.18699  0.36950  1.0000 -0.0228279783
C   C96       1.0  0.74420  0.97569  0.34500  1.0000 0.6628180042
C   C97       1.0  0.67640  0.94839  0.12930  1.0000 -0.1497132169
C   C98       1.0  0.54000  0.88119  0.20760  1.0000 -0.0871140457
C   C99       1.0  0.80510  0.06009  0.21840  1.0000 0.6628180042
C   C100      1.0  0.66890  0.96619  0.21490  1.0000 0.078751106
C   C101      1.0  0.66810  0.15689  0.28590  1.0000 -0.0971789004
C   C102      1.0  0.72000  0.08009  0.30960  1.0000 0.078751106
C   C103      1.0  0.19461  0.51510  0.09547  1.0000 0.5735731046
C   C104      1.0  0.10241  0.38410  0.08467  1.0000 -0.0871140457
C   C105      1.0  0.75911  0.32910  0.76307  1.0000 0.5990416477
C   C106      1.0  0.88781  0.25570  0.77477  1.0000 -0.1497132169
C   C107      1.0  0.89591  0.31740  0.90997  1.0000 -0.1266482229
C   C108      1.0  0.83521  0.27030  0.74527  1.0000 -0.0871140457
C   C109      1.0  0.13681  0.45180  0.04567  1.0000 -0.0228279783
C   C110      1.0  0.06741  0.39980  0.91417  1.0000 -0.1382945508
C   C111      1.0  0.97951  0.26610  0.89507  1.0000 -0.2792467753
C   C112      1.0  0.81301  0.30970  0.79717  1.0000 -0.0228279783
C   C113      1.0  0.02431  0.25580  0.82167  1.0000 0.6628180042
C   C114      1.0  0.05161  0.32360  0.03737  1.0000 -0.1497132169
C   C115      1.0  0.11881  0.46000  0.95907  1.0000 -0.0871140457
C   C116      1.0  0.93991  0.19490  0.94827  1.0000 0.6628180042
C   C117      1.0  0.03381  0.33110  0.95177  1.0000 0.078751106
C   C118      1.0  0.84311  0.33190  0.88077  1.0000 -0.0971789004
C   C119      1.0  0.91991  0.28000  0.85707  1.0000 0.078751106
C   C120      1.0  0.48490  0.67951  0.76213  1.0000 0.5735731046
C   C121      1.0  0.61590  0.71831  0.75133  1.0000 -0.0871140457
C   C122      1.0  0.67090  0.43001  0.42973  1.0000 0.5990416477
C   C123      1.0  0.74430  0.63211  0.44143  1.0000 -0.1497132169
C   C124      1.0  0.68260  0.57851  0.57663  1.0000 -0.1266482229
C   C125      1.0  0.72970  0.56491  0.41193  1.0000 -0.0871140457
C   C126      1.0  0.54820  0.68501  0.71233  1.0000 -0.0228279783
C   C127      1.0  0.60020  0.66761  0.58083  1.0000 -0.1382945508
C   C128      1.0  0.73390  0.71341  0.56173  1.0000 -0.2792467753
C   C129      1.0  0.69030  0.50331  0.46383  1.0000 -0.0228279783
C   C130      1.0  0.74420  0.76851  0.48833  1.0000 0.6628180042
C   C131      1.0  0.67640  0.72801  0.70403  1.0000 -0.1553249339
C   C132      1.0  0.54000  0.65881  0.62573  1.0000 -0.0871140457
C   C133      1.0  0.80510  0.74501  0.61493  1.0000 0.6628180042
C   C134      1.0  0.66890  0.70271  0.61843  1.0000 0.078751106
C   C135      1.0  0.66810  0.51121  0.54743  1.0000 -0.0971789004
C   C136      1.0  0.72000  0.63991  0.52373  1.0000 0.078751106
C   C137      1.0  0.32049  0.80539  0.42880  1.0000 0.5735731046
C   C138      1.0  0.28169  0.89759  0.41800  1.0000 -0.0871140457
C   C139      1.0  0.56999  0.24089  0.09640  1.0000 0.5990416477
C   C140      1.0  0.36789  0.11219  0.10810  1.0000 -0.1497132169
C   C141      1.0  0.42149  0.10409  0.24330  1.0000 -0.1266482229
C   C142      1.0  0.43509  0.16479  0.07860  1.0000 -0.0871140457
C   C143      1.0  0.31499  0.86319  0.37900  1.0000 -0.0228279783
C   C144      1.0  0.33239  0.93259  0.24750  1.0000 -0.1382945508
C   C145      1.0  0.28659  0.02049  0.22840  1.0000 -0.2792467753
C   C146      1.0  0.49669  0.18699  0.13050  1.0000 -0.0228279783
C   C147      1.0  0.23149  0.97569  0.15500  1.0000 0.6628180042
C   C148      1.0  0.27199  0.94839  0.37070  1.0000 -0.1497132169
C   C149      1.0  0.34119  0.88119  0.29240  1.0000 -0.0871140457
C   C150      1.0  0.25499  0.06009  0.28160  1.0000 0.6628180042
C   C151      1.0  0.29729  0.96619  0.28510  1.0000 0.078751106
C   C152      1.0  0.48879  0.15689  0.21410  1.0000 -0.0971789004
C   C153      1.0  0.36009  0.08009  0.19040  1.0000 0.078751106
C   C154      1.0  0.80539  0.48490  0.59547  1.0000 0.5735731046
C   C155      1.0  0.89759  0.61590  0.58467  1.0000 -0.0871140457
C   C156      1.0  0.24089  0.67090  0.26307  1.0000 0.5990416477
C   C157      1.0  0.11219  0.74430  0.27477  1.0000 -0.1497132169
C   C158      1.0  0.10409  0.68260  0.40997  1.0000 -0.1266482229
C   C159      1.0  0.16479  0.72970  0.24527  1.0000 -0.0871140457
C   C160      1.0  0.86319  0.54820  0.54567  1.0000 -0.0252608134
C   C161      1.0  0.93259  0.60020  0.41417  1.0000 -0.1382945508
C   C162      1.0  0.02049  0.73390  0.39507  1.0000 -0.2792467753
C   C163      1.0  0.18699  0.69030  0.29717  1.0000 -0.0228279783
C   C164      1.0  0.97569  0.74420  0.32167  1.0000 0.6628180042
C   C165      1.0  0.94839  0.67640  0.53737  1.0000 -0.1497132169
C   C166      1.0  0.88119  0.54000  0.45907  1.0000 -0.0871140457
C   C167      1.0  0.06009  0.80510  0.44827  1.0000 0.6628180042
C   C168      1.0  0.96619  0.66890  0.45177  1.0000 0.078751106
C   C169      1.0  0.15689  0.66810  0.38077  1.0000 -0.0971789004
C   C170      1.0  0.08009  0.72000  0.35707  1.0000 0.078751106
C   C171      1.0  0.51510  0.32049  0.26213  1.0000 0.5735731046
C   C172      1.0  0.38410  0.28169  0.25133  1.0000 -0.0871140457
C   C173      1.0  0.32910  0.56999  0.92973  1.0000 0.5990416477
C   C174      1.0  0.25570  0.36789  0.94143  1.0000 -0.1497132169
C   C175      1.0  0.31740  0.42149  0.07663  1.0000 -0.1266482229
C   C176      1.0  0.27030  0.43509  0.91193  1.0000 -0.0871140457
C   C177      1.0  0.45180  0.31499  0.21233  1.0000 -0.0228279783
C   C178      1.0  0.39980  0.33239  0.08083  1.0000 -0.1382945508
C   C179      1.0  0.26610  0.28659  0.06173  1.0000 -0.2792467753
C   C180      1.0  0.30970  0.49669  0.96383  1.0000 -0.0228279783
C   C181      1.0  0.25580  0.23149  0.98833  1.0000 0.6628180042
C   C182      1.0  0.32360  0.27199  0.20403  1.0000 -0.1497132169
C   C183      1.0  0.46000  0.34119  0.12573  1.0000 -0.0871140457
C   C184      1.0  0.19490  0.25499  0.11493  1.0000 0.6628180042
C   C185      1.0  0.33110  0.29729  0.11843  1.0000 0.078751106
C   C186      1.0  0.33190  0.48879  0.04743  1.0000 -0.0971789004
C   C187      1.0  0.28000  0.36009  0.02373  1.0000 0.078751106
C   C188      1.0  0.67951  0.19461  0.92880  1.0000 0.5735731046
C   C189      1.0  0.71831  0.10241  0.91800  1.0000 -0.0871140457
C   C190      1.0  0.43001  0.75911  0.59640  1.0000 0.5990416477
C   C191      1.0  0.63211  0.88781  0.60810  1.0000 -0.1497132169
C   C192      1.0  0.57851  0.89591  0.74330  1.0000 -0.1266482229
C   C193      1.0  0.56491  0.83521  0.57860  1.0000 -0.0871140457
C   C194      1.0  0.68501  0.13681  0.87900  1.0000 -0.0252608134
C   C195      1.0  0.66761  0.06741  0.74750  1.0000 -0.1382945508
C   C196      1.0  0.71341  0.97951  0.72840  1.0000 -0.2792467753
C   C197      1.0  0.50331  0.81301  0.63050  1.0000 -0.0228279783
C   C198      1.0  0.76851  0.02431  0.65500  1.0000 0.6628180042
C   C199      1.0  0.72801  0.05161  0.87070  1.0000 -0.1497132169
C   C200      1.0  0.65881  0.11881  0.79240  1.0000 -0.0871140457
C   C201      1.0  0.74501  0.93991  0.78160  1.0000 0.6628180042
C   C202      1.0  0.70271  0.03381  0.78510  1.0000 0.078751106
C   C203      1.0  0.51121  0.84311  0.71410  1.0000 -0.0971789004
C   C204      1.0  0.63991  0.91991  0.69040  1.0000 0.078751106
O   O1        1.0  0.37459  0.63029  0.18673  1.0000 -0.6030708134
O   O2        1.0  0.42414  0.69127  0.31193  1.0000 -0.5300582627
O   O3        1.0  0.65550  0.42491  0.94243  1.0000 -0.5545250157
O   O4        1.0  0.70131  0.49730  0.82513  1.0000 -0.5399306248
O   O5        1.0  0.25570  0.62541  0.52007  1.0000 -0.6030708134
O   O6        1.0  0.26713  0.57586  0.64527  1.0000 -0.5300582627
O   O7        1.0  0.76941  0.34450  0.27577  1.0000 -0.5545250157
O   O8        1.0  0.79599  0.29869  0.15847  1.0000 -0.5399306248
O   O9        1.0  0.36971  0.74430  0.85340  1.0000 -0.6030708134
O   O10       1.0  0.30873  0.73287  0.97860  1.0000 -0.5300582627
O   O11       1.0  0.57509  0.23059  0.60910  1.0000 -0.5545250157
O   O12       1.0  0.50270  0.20401  0.49180  1.0000 -0.5399306248
O   O13       1.0  0.62541  0.36971  0.68673  1.0000 -0.6030708134
O   O14       1.0  0.57586  0.30873  0.81193  1.0000 -0.5300582627
O   O15       1.0  0.34450  0.57509  0.44243  1.0000 -0.5545250157
O   O16       1.0  0.29869  0.50270  0.32513  1.0000 -0.5399306248
O   O17       1.0  0.74430  0.37459  0.02007  1.0000 -0.6030708134
O   O18       1.0  0.73287  0.42414  0.14527  1.0000 -0.5300582627
O   O19       1.0  0.23059  0.65550  0.77577  1.0000 -0.5545250157
O   O20       1.0  0.20401  0.70131  0.65847  1.0000 -0.5399306248
O   O21       1.0  0.63029  0.25570  0.35340  1.0000 -0.6030708134
O   O22       1.0  0.69127  0.26713  0.47860  1.0000 -0.5300582627
O   O23       1.0  0.42491  0.76941  0.10910  1.0000 -0.5545250157
O   O24       1.0  0.49730  0.79599  0.99180  1.0000 -0.5399306248
O   O25       1.0  0.74430  0.36971  0.81327  1.0000 -0.6030708134
O   O26       1.0  0.73287  0.30873  0.68807  1.0000 -0.5300582627
O   O27       1.0  0.23059  0.57509  0.05757  1.0000 -0.5545250157
O   O28       1.0  0.20401  0.50270  0.17487  1.0000 -0.5399306248
O   O29       1.0  0.63029  0.37459  0.47993  1.0000 -0.6030708134
O   O30       1.0  0.69127  0.42414  0.35473  1.0000 -0.5300582627
O   O31       1.0  0.42491  0.65550  0.72423  1.0000 -0.5545250157
O   O32       1.0  0.49730  0.70131  0.84153  1.0000 -0.5399306248
O   O33       1.0  0.62541  0.25570  0.14660  1.0000 -0.6030708134
O   O34       1.0  0.57586  0.26713  0.02140  1.0000 -0.5300582627
O   O35       1.0  0.34450  0.76941  0.39090  1.0000 -0.5545250157
O   O36       1.0  0.29869  0.79599  0.50820  1.0000 -0.5399306248
O   O37       1.0  0.25570  0.63029  0.31327  1.0000 -0.6030708134
O   O38       1.0  0.26713  0.69127  0.18807  1.0000 -0.5300582627
O   O39       1.0  0.76941  0.42491  0.55757  1.0000 -0.5545250157
O   O40       1.0  0.79599  0.49730  0.67487  1.0000 -0.5399306248
O   O41       1.0  0.36971  0.62541  0.97993  1.0000 -0.6030708134
O   O42       1.0  0.30873  0.57586  0.85473  1.0000 -0.5300582627
O   O43       1.0  0.57509  0.34450  0.22423  1.0000 -0.5545250157
O   O44       1.0  0.50270  0.29869  0.34153  1.0000 -0.5399306248
O   O45       1.0  0.37459  0.74430  0.64660  1.0000 -0.6030708134
O   O46       1.0  0.42414  0.73287  0.52140  1.0000 -0.5300582627
O   O47       1.0  0.65550  0.23059  0.89090  1.0000 -0.5545250157
O   O48       1.0  0.70131  0.20401  0.00820  1.0000 -0.5399306248
F   F1        1.0  0.70401  0.79778  0.98223  1.0000 -0.1907597286
F   F2        1.0  0.74871  0.85950  0.10073  1.0000 -0.1907597286
F   F3        1.0  0.73841  0.69150  0.23893  1.0000 -0.1907597286
F   F4        1.0  0.81243  0.82822  0.02213  1.0000 -0.1953236441
F   F5        1.0  0.79470  0.80689  0.22243  1.0000 -0.1907597286
F   F6        1.0  0.82584  0.74233  0.14513  1.0000 -0.1907597286
F   F7        1.0  0.09377  0.29599  0.31557  1.0000 -0.1907597286
F   F8        1.0  0.11079  0.25129  0.43407  1.0000 -0.1907597286
F   F9        1.0  0.95309  0.26159  0.57227  1.0000 -0.1907597286
F   F10       1.0  0.01579  0.18757  0.35547  1.0000 -0.1953236441
F   F11       1.0  0.01219  0.20530  0.55577  1.0000 -0.1907597286
F   F12       1.0  0.91649  0.17416  0.47847  1.0000 -0.1907597286
F   F13       1.0  0.20222  0.90623  0.64890  1.0000 -0.1907597286
F   F14       1.0  0.14050  0.88921  0.76740  1.0000 -0.1907597286
F   F15       1.0  0.30850  0.04691  0.90560  1.0000 -0.1907597286
F   F16       1.0  0.17178  0.98421  0.68880  1.0000 -0.1953236441
F   F17       1.0  0.19311  0.98781  0.88910  1.0000 -0.1907597286
F   F18       1.0  0.25767  0.08351  0.81180  1.0000 -0.1907597286
F   F19       1.0  0.29599  0.20222  0.48223  1.0000 -0.1907597286
F   F20       1.0  0.25129  0.14050  0.60073  1.0000 -0.1907597286
F   F21       1.0  0.26159  0.30850  0.73893  1.0000 -0.1907597286
F   F22       1.0  0.18757  0.17178  0.52213  1.0000 -0.1953236441
F   F23       1.0  0.20530  0.19311  0.72243  1.0000 -0.1907597286
F   F24       1.0  0.17416  0.25767  0.64513  1.0000 -0.1907597286
F   F25       1.0  0.90623  0.70401  0.81557  1.0000 -0.1907597286
F   F26       1.0  0.88921  0.74871  0.93407  1.0000 -0.1907597286
F   F27       1.0  0.04691  0.73841  0.07227  1.0000 -0.1907597286
F   F28       1.0  0.98421  0.81243  0.85547  1.0000 -0.1907597286
F   F29       1.0  0.98781  0.79470  0.05577  1.0000 -0.1907597286
F   F30       1.0  0.08351  0.82584  0.97847  1.0000 -0.1907597286
F   F31       1.0  0.79778  0.09377  0.14890  1.0000 -0.1907597286
F   F32       1.0  0.85950  0.11079  0.26740  1.0000 -0.1907597286
F   F33       1.0  0.69150  0.95309  0.40560  1.0000 -0.1907597286
F   F34       1.0  0.82822  0.01579  0.18880  1.0000 -0.1907597286
F   F35       1.0  0.80689  0.01219  0.38910  1.0000 -0.1907597286
F   F36       1.0  0.74233  0.91649  0.31180  1.0000 -0.1907597286
F   F37       1.0  0.90623  0.20222  0.01777  1.0000 -0.1907597286
F   F38       1.0  0.88921  0.14050  0.89927  1.0000 -0.1907597286
F   F39       1.0  0.04691  0.30850  0.76107  1.0000 -0.1907597286
F   F40       1.0  0.98421  0.17178  0.97787  1.0000 -0.1907597286
F   F41       1.0  0.98781  0.19311  0.77757  1.0000 -0.1907597286
F   F42       1.0  0.08351  0.25767  0.85487  1.0000 -0.1907597286
F   F43       1.0  0.79778  0.70401  0.68443  1.0000 -0.1907597286
F   F44       1.0  0.85950  0.74871  0.56593  1.0000 -0.1907597286
F   F45       1.0  0.69150  0.73841  0.42773  1.0000 -0.1907597286
F   F46       1.0  0.82822  0.81243  0.64453  1.0000 -0.1907597286
F   F47       1.0  0.80689  0.79470  0.44423  1.0000 -0.1907597286
F   F48       1.0  0.74233  0.82584  0.52153  1.0000 -0.1907597286
F   F49       1.0  0.29599  0.09377  0.35110  1.0000 -0.1907597286
F   F50       1.0  0.25129  0.11079  0.23260  1.0000 -0.1907597286
F   F51       1.0  0.26159  0.95309  0.09440  1.0000 -0.1907597286
F   F52       1.0  0.18757  0.01579  0.31120  1.0000 -0.1953236441
F   F53       1.0  0.20530  0.01219  0.11090  1.0000 -0.1907597286
F   F54       1.0  0.17416  0.91649  0.18820  1.0000 -0.1907597286
F   F55       1.0  0.09377  0.79778  0.51777  1.0000 -0.1907597286
F   F56       1.0  0.11079  0.85950  0.39927  1.0000 -0.1907597286
F   F57       1.0  0.95309  0.69150  0.26107  1.0000 -0.1907597286
F   F58       1.0  0.01579  0.82822  0.47787  1.0000 -0.1907597286
F   F59       1.0  0.01219  0.80689  0.27757  1.0000 -0.1907597286
F   F60       1.0  0.91649  0.74233  0.35487  1.0000 -0.1907597286
F   F61       1.0  0.20222  0.29599  0.18443  1.0000 -0.1907597286
F   F62       1.0  0.14050  0.25129  0.06593  1.0000 -0.1907597286
F   F63       1.0  0.30850  0.26159  0.92773  1.0000 -0.1907597286
F   F64       1.0  0.17178  0.18757  0.14453  1.0000 -0.1953236441
F   F65       1.0  0.19311  0.20530  0.94423  1.0000 -0.1907597286
F   F66       1.0  0.25767  0.17416  0.02153  1.0000 -0.1907597286
F   F67       1.0  0.70401  0.90623  0.85110  1.0000 -0.1849438826
F   F68       1.0  0.74871  0.88921  0.73260  1.0000 -0.1907597286
F   F69       1.0  0.73841  0.04691  0.59440  1.0000 -0.1907597286
F   F70       1.0  0.81243  0.98421  0.81120  1.0000 -0.1907597286
F   F71       1.0  0.79470  0.98781  0.61090  1.0000 -0.1907597286
F   F72       1.0  0.82584  0.08351  0.68820  1.0000 -0.1907597286
