# DDEC6 charges by PACMAN v1.1 (https://github.com/mtap-research/PACMAN-charge/)
data_2019[CoMn][nan]3[ASR]2
_chemical_formula_sum              "O48 F72 C204 H96 Co6 Mn6"
_cell_length_a       21.2819
_cell_length_b       21.2819
_cell_length_c       15.1237
_cell_angle_alpha    90
_cell_angle_beta     90
_cell_angle_gamma    120

_symmetry_space_group_name_H-M    "P 1"
_symmetry_Int_Tables_number       1

loop_
  _symmetry_equiv_pos_as_xyz
  'x, y, z'

loop_
  _atom_site_type_symbol
  _atom_site_label
  _atom_site_symmetry_multiplicity
  _atom_site_fract_x
  _atom_site_fract_y
  _atom_site_fract_z
  _atom_site_occupancy
  _atom_site_charge
O   O1        1.0  0.74380  0.37470  0.51970  1.0000 -0.6068828436
O   O2        1.0  0.73300  0.42440  0.64520  1.0000 -0.5319706184
O   O3        1.0  0.23050  0.65510  0.27630  1.0000 -0.5524364593
F   F1        1.0  0.90570  0.70310  0.31480  1.0000 -0.1901801128
O   O4        1.0  0.20430  0.70110  0.15820  1.0000 -0.540042036
F   F2        1.0  0.04750  0.73850  0.57160  1.0000 -0.1901801128
F   F3        1.0  0.08300  0.82520  0.47780  1.0000 -0.1901801128
F   F4        1.0  0.98770  0.79430  0.55500  1.0000 -0.1901801128
F   F5        1.0  0.98430  0.81150  0.35530  1.0000 -0.1901801128
F   F6        1.0  0.88900  0.74740  0.43270  1.0000 -0.1901801128
C   C1        1.0  0.81310  0.50360  0.53610  1.0000 -0.0315576512
C   C2        1.0  0.75950  0.43070  0.57030  1.0000 0.602964105
C   C3        1.0  0.83490  0.56460  0.58740  1.0000 -0.0883184284
H   H1        1.0  0.81320  0.56020  0.64300  1.0000 0.1283608183
C   C4        1.0  0.92020  0.63970  0.47550  1.0000 0.0804806829
C   C5        1.0  0.19480  0.67920  0.23840  1.0000 0.5803205438
C   C6        1.0  0.13640  0.68400  0.28740  1.0000 -0.0315576512
C   C7        1.0  0.89630  0.57870  0.42330  1.0000 -0.1294115951
H   H2        1.0  0.91690  0.58310  0.36710  1.0000 0.1209005105
C   C8        1.0  0.03410  0.70210  0.38130  1.0000 0.0804806829
C   C9        1.0  0.84260  0.51100  0.45210  1.0000 -0.0883184284
H   H3        1.0  0.82620  0.47030  0.41510  1.0000 0.1209005105
C   C10       1.0  0.05210  0.72780  0.29630  1.0000 -0.151086019
H   H4        1.0  0.02970  0.75160  0.26990  1.0000 0.1209005105
C   C11       1.0  0.10290  0.71890  0.24910  1.0000 -0.0832717041
H   H5        1.0  0.11480  0.73660  0.19090  1.0000 0.1209005105
C   C12       1.0  0.06720  0.66710  0.41940  1.0000 -0.1417483943
H   H6        1.0  0.05420  0.64830  0.47690  1.0000 0.1209005105
C   C13       1.0  0.88810  0.63200  0.55860  1.0000 -0.151086019
H   H7        1.0  0.90290  0.67280  0.59490  1.0000 0.113964285
C   C14       1.0  0.11920  0.65930  0.37390  1.0000 -0.0883184284
H   H8        1.0  0.14290  0.63730  0.40150  1.0000 0.1283608183
C   C15       1.0  0.02390  0.76800  0.51170  1.0000 0.6622552268
C   C16       1.0  0.97990  0.71350  0.43810  1.0000 -0.2778929802
C   C17       1.0  0.93970  0.74450  0.38460  1.0000 0.6622552268
O   O5        1.0  0.62530  0.36910  0.18637  1.0000 -0.6068828436
O   O6        1.0  0.57560  0.30860  0.31187  1.0000 -0.5319706184
O   O7        1.0  0.34490  0.57540  0.94297  1.0000 -0.5524364593
F   F7        1.0  0.29690  0.20260  0.98147  1.0000 -0.1901801128
O   O8        1.0  0.29890  0.50320  0.82487  1.0000 -0.540042036
F   F8        1.0  0.26150  0.30900  0.23827  1.0000 -0.1901801128
F   F9        1.0  0.17480  0.25780  0.14447  1.0000 -0.1901801128
F   F10       1.0  0.20570  0.19340  0.22167  1.0000 -0.1901801128
F   F11       1.0  0.18850  0.17280  0.02197  1.0000 -0.1901801128
F   F12       1.0  0.25260  0.14160  0.09937  1.0000 -0.1901801128
C   C18       1.0  0.49640  0.30950  0.20277  1.0000 -0.0315576512
C   C19       1.0  0.56930  0.32880  0.23697  1.0000 0.602964105
C   C20       1.0  0.43540  0.27030  0.25407  1.0000 -0.0883184284
H   H9        1.0  0.43980  0.25300  0.30967  1.0000 0.1283608183
C   C21       1.0  0.36030  0.28050  0.14217  1.0000 0.0804806829
C   C22       1.0  0.32080  0.51560  0.90507  1.0000 0.5803205438
C   C23       1.0  0.31600  0.45240  0.95407  1.0000 -0.0315576512
C   C24       1.0  0.42130  0.31760  0.08997  1.0000 -0.1294115951
H   H10       1.0  0.41690  0.33380  0.03377  1.0000 0.1209005105
C   C25       1.0  0.29790  0.33200  0.04797  1.0000 0.0804806829
C   C26       1.0  0.48900  0.33160  0.11877  1.0000 -0.0883184284
H   H11       1.0  0.52970  0.35590  0.08177  1.0000 0.1209005105
C   C27       1.0  0.27220  0.32430  0.96297  1.0000 -0.151086019
H   H12       1.0  0.24840  0.27810  0.93657  1.0000 0.1209005105
C   C28       1.0  0.28110  0.38400  0.91577  1.0000 -0.0832717041
H   H13       1.0  0.26340  0.37820  0.85757  1.0000 0.1209005105
C   C29       1.0  0.33290  0.40010  0.08607  1.0000 -0.1417483943
H   H14       1.0  0.35170  0.40590  0.14357  1.0000 0.1209005105
C   C30       1.0  0.36800  0.25610  0.22527  1.0000 -0.151086019
H   H15       1.0  0.32720  0.23010  0.26157  1.0000 0.113964285
C   C31       1.0  0.34070  0.45990  0.04057  1.0000 -0.0832717041
H   H16       1.0  0.36270  0.50560  0.06817  1.0000 0.1283608183
C   C32       1.0  0.23200  0.25590  0.17837  1.0000 0.6622552268
C   C33       1.0  0.28650  0.26640  0.10477  1.0000 -0.2778929802
C   C34       1.0  0.25550  0.19520  0.05127  1.0000 0.6622552268
O   O9        1.0  0.63090  0.25620  0.85303  1.0000 -0.6068828436
O   O10       1.0  0.69140  0.26700  0.97853  1.0000 -0.5319706184
O   O11       1.0  0.42460  0.76950  0.60963  1.0000 -0.5524364593
F   F13       1.0  0.79740  0.09430  0.64813  1.0000 -0.1901801128
O   O12       1.0  0.49680  0.79570  0.49153  1.0000 -0.540042036
F   F14       1.0  0.69100  0.95250  0.90493  1.0000 -0.1901801128
F   F15       1.0  0.74220  0.91700  0.81113  1.0000 -0.1901801128
F   F16       1.0  0.80660  0.01230  0.88833  1.0000 -0.1901801128
F   F17       1.0  0.82720  0.01570  0.68863  1.0000 -0.1901801128
F   F18       1.0  0.85840  0.11100  0.76603  1.0000 -0.1901801128
C   C35       1.0  0.69050  0.18690  0.86943  1.0000 -0.0315576512
C   C36       1.0  0.67120  0.24050  0.90363  1.0000 0.602964105
C   C37       1.0  0.72970  0.16510  0.92073  1.0000 -0.0883184284
H   H17       1.0  0.74700  0.18680  0.97633  1.0000 0.1283608183
C   C38       1.0  0.71950  0.07980  0.80883  1.0000 0.0804806829
C   C39       1.0  0.48440  0.80520  0.57173  1.0000 0.5803205438
C   C40       1.0  0.54760  0.86360  0.62073  1.0000 -0.0315576512
C   C41       1.0  0.68240  0.10370  0.75663  1.0000 -0.1294115951
H   H18       1.0  0.66620  0.08310  0.70043  1.0000 0.1209005105
C   C42       1.0  0.66800  0.96590  0.71463  1.0000 0.0804806829
C   C43       1.0  0.66840  0.15740  0.78543  1.0000 -0.0883184284
H   H19       1.0  0.64410  0.17380  0.74843  1.0000 0.1209005105
C   C44       1.0  0.67570  0.94790  0.62963  1.0000 -0.151086019
H   H20       1.0  0.72190  0.97030  0.60323  1.0000 0.1209005105
C   C45       1.0  0.61600  0.89710  0.58243  1.0000 -0.0832717041
H   H21       1.0  0.62180  0.88520  0.52423  1.0000 0.1209005105
C   C46       1.0  0.59990  0.93280  0.75273  1.0000 -0.1417483943
H   H22       1.0  0.59410  0.94580  0.81023  1.0000 0.1209005105
C   C47       1.0  0.74390  0.11190  0.89193  1.0000 -0.1417483943
H   H23       1.0  0.76990  0.09710  0.92823  1.0000 0.113964285
C   C48       1.0  0.54010  0.88080  0.70723  1.0000 -0.0832717041
H   H24       1.0  0.49440  0.85710  0.73483  1.0000 0.1283608183
C   C49       1.0  0.74410  0.97610  0.84503  1.0000 0.6622552268
C   C50       1.0  0.73360  0.02010  0.77143  1.0000 -0.2778929802
C   C51       1.0  0.80480  0.06030  0.71793  1.0000 0.6622552268
O   O13       1.0  0.25620  0.62530  0.01970  1.0000 -0.6068828436
O   O14       1.0  0.26700  0.57560  0.14520  1.0000 -0.5319706184
O   O15       1.0  0.76950  0.34490  0.77630  1.0000 -0.5524364593
F   F19       1.0  0.09430  0.29690  0.81480  1.0000 -0.1901801128
O   O16       1.0  0.79570  0.29890  0.65820  1.0000 -0.540042036
F   F20       1.0  0.95250  0.26150  0.07160  1.0000 -0.1901801128
F   F21       1.0  0.91700  0.17480  0.97780  1.0000 -0.1901801128
F   F22       1.0  0.01230  0.20570  0.05500  1.0000 -0.1901801128
F   F23       1.0  0.01570  0.18850  0.85530  1.0000 -0.1901801128
F   F24       1.0  0.11100  0.25260  0.93270  1.0000 -0.1901801128
C   C52       1.0  0.18690  0.49640  0.03610  1.0000 -0.0315576512
C   C53       1.0  0.24050  0.56930  0.07030  1.0000 0.602964105
C   C54       1.0  0.16510  0.43540  0.08740  1.0000 -0.0883184284
H   H25       1.0  0.18680  0.43980  0.14300  1.0000 0.1283608183
C   C55       1.0  0.07980  0.36030  0.97550  1.0000 0.0804806829
C   C56       1.0  0.80520  0.32080  0.73840  1.0000 0.5803205438
C   C57       1.0  0.86360  0.31600  0.78740  1.0000 -0.0315576512
C   C58       1.0  0.10370  0.42130  0.92330  1.0000 -0.1294115951
H   H26       1.0  0.08310  0.41690  0.86710  1.0000 0.1209005105
C   C59       1.0  0.96590  0.29790  0.88130  1.0000 0.0804806829
C   C60       1.0  0.15740  0.48900  0.95210  1.0000 -0.0883184284
H   H27       1.0  0.17380  0.52970  0.91510  1.0000 0.1209005105
C   C61       1.0  0.94790  0.27220  0.79630  1.0000 -0.151086019
H   H28       1.0  0.97030  0.24840  0.76990  1.0000 0.1209005105
C   C62       1.0  0.89710  0.28110  0.74910  1.0000 -0.0832717041
H   H29       1.0  0.88520  0.26340  0.69090  1.0000 0.1209005105
C   C63       1.0  0.93280  0.33290  0.91940  1.0000 -0.1417483943
H   H30       1.0  0.94580  0.35170  0.97690  1.0000 0.1209005105
C   C64       1.0  0.11190  0.36800  0.05860  1.0000 -0.1417483943
H   H31       1.0  0.09710  0.32720  0.09490  1.0000 0.113964285
C   C65       1.0  0.88080  0.34070  0.87390  1.0000 -0.0883184284
H   H32       1.0  0.85710  0.36270  0.90150  1.0000 0.1283608183
C   C66       1.0  0.97610  0.23200  0.01170  1.0000 0.6622552268
C   C67       1.0  0.02010  0.28650  0.93810  1.0000 -0.2778929802
C   C68       1.0  0.06030  0.25550  0.88460  1.0000 0.6622552268
O   O17       1.0  0.37470  0.63090  0.68637  1.0000 -0.6068828436
O   O18       1.0  0.42440  0.69140  0.81187  1.0000 -0.5319706184
O   O19       1.0  0.65510  0.42460  0.44297  1.0000 -0.5524364593
F   F25       1.0  0.70310  0.79740  0.48147  1.0000 -0.1901801128
O   O20       1.0  0.70110  0.49680  0.32487  1.0000 -0.540042036
F   F26       1.0  0.73850  0.69100  0.73827  1.0000 -0.1901801128
F   F27       1.0  0.82520  0.74220  0.64447  1.0000 -0.1901801128
F   F28       1.0  0.79430  0.80660  0.72167  1.0000 -0.1901801128
F   F29       1.0  0.81150  0.82720  0.52197  1.0000 -0.1901801128
F   F30       1.0  0.74740  0.85840  0.59937  1.0000 -0.1901801128
C   C69       1.0  0.50360  0.69050  0.70277  1.0000 -0.0315576512
C   C70       1.0  0.43070  0.67120  0.73697  1.0000 0.602964105
C   C71       1.0  0.56460  0.72970  0.75407  1.0000 -0.0883184284
H   H33       1.0  0.56020  0.74700  0.80967  1.0000 0.1283608183
C   C72       1.0  0.63970  0.71950  0.64217  1.0000 0.0804806829
C   C73       1.0  0.67920  0.48440  0.40507  1.0000 0.5803205438
C   C74       1.0  0.68400  0.54760  0.45407  1.0000 -0.0315576512
C   C75       1.0  0.57870  0.68240  0.58997  1.0000 -0.1294115951
H   H34       1.0  0.58310  0.66620  0.53377  1.0000 0.1209005105
C   C76       1.0  0.70210  0.66800  0.54797  1.0000 0.0804806829
C   C77       1.0  0.51100  0.66840  0.61877  1.0000 -0.0883184284
H   H35       1.0  0.47030  0.64410  0.58177  1.0000 0.1209005105
C   C78       1.0  0.72780  0.67570  0.46297  1.0000 -0.151086019
H   H36       1.0  0.75160  0.72190  0.43657  1.0000 0.1209005105
C   C79       1.0  0.71890  0.61600  0.41577  1.0000 -0.0832717041
H   H37       1.0  0.73660  0.62180  0.35757  1.0000 0.1209005105
C   C80       1.0  0.66710  0.59990  0.58607  1.0000 -0.1417483943
H   H38       1.0  0.64830  0.59410  0.64357  1.0000 0.1209005105
C   C81       1.0  0.63200  0.74390  0.72527  1.0000 -0.151086019
H   H39       1.0  0.67280  0.76990  0.76157  1.0000 0.113964285
C   C82       1.0  0.65930  0.54010  0.54057  1.0000 -0.0883184284
H   H40       1.0  0.63730  0.49440  0.56817  1.0000 0.1283608183
C   C83       1.0  0.76800  0.74410  0.67837  1.0000 0.6622552268
C   C84       1.0  0.71350  0.73360  0.60477  1.0000 -0.2778929802
C   C85       1.0  0.74450  0.80480  0.55127  1.0000 0.6622552268
O   O21       1.0  0.36910  0.74380  0.35303  1.0000 -0.6068828436
O   O22       1.0  0.30860  0.73300  0.47853  1.0000 -0.5319706184
O   O23       1.0  0.57540  0.23050  0.10963  1.0000 -0.5524364593
F   F31       1.0  0.20260  0.90570  0.14813  1.0000 -0.1901801128
O   O24       1.0  0.50320  0.20430  0.99153  1.0000 -0.540042036
F   F32       1.0  0.30900  0.04750  0.40493  1.0000 -0.1901801128
F   F33       1.0  0.25780  0.08300  0.31113  1.0000 -0.1901801128
F   F34       1.0  0.19340  0.98770  0.38833  1.0000 -0.1901801128
F   F35       1.0  0.17280  0.98430  0.18863  1.0000 -0.1901801128
F   F36       1.0  0.14160  0.88900  0.26603  1.0000 -0.1901801128
C   C86       1.0  0.30950  0.81310  0.36943  1.0000 -0.0315576512
C   C87       1.0  0.32880  0.75950  0.40363  1.0000 0.602964105
C   C88       1.0  0.27030  0.83490  0.42073  1.0000 -0.0883184284
H   H41       1.0  0.25300  0.81320  0.47633  1.0000 0.1283608183
C   C89       1.0  0.28050  0.92020  0.30883  1.0000 0.0804806829
C   C90       1.0  0.51560  0.19480  0.07173  1.0000 0.5803205438
C   C91       1.0  0.45240  0.13640  0.12073  1.0000 -0.0315576512
C   C92       1.0  0.31760  0.89630  0.25663  1.0000 -0.1294115951
H   H42       1.0  0.33380  0.91690  0.20043  1.0000 0.1209005105
C   C93       1.0  0.33200  0.03410  0.21463  1.0000 0.0804806829
C   C94       1.0  0.33160  0.84260  0.28543  1.0000 -0.0883184284
H   H43       1.0  0.35590  0.82620  0.24843  1.0000 0.1209005105
C   C95       1.0  0.32430  0.05210  0.12963  1.0000 -0.151086019
H   H44       1.0  0.27810  0.02970  0.10323  1.0000 0.1209005105
C   C96       1.0  0.38400  0.10290  0.08243  1.0000 -0.0832717041
H   H45       1.0  0.37820  0.11480  0.02423  1.0000 0.1209005105
C   C97       1.0  0.40010  0.06720  0.25273  1.0000 -0.1417483943
H   H46       1.0  0.40590  0.05420  0.31023  1.0000 0.1209005105
C   C98       1.0  0.25610  0.88810  0.39193  1.0000 -0.151086019
H   H47       1.0  0.23010  0.90290  0.42823  1.0000 0.113964285
C   C99       1.0  0.45990  0.11920  0.20723  1.0000 -0.0883184284
H   H48       1.0  0.50560  0.14290  0.23483  1.0000 0.1283608183
C   C100      1.0  0.25590  0.02390  0.34503  1.0000 0.6622552268
C   C101      1.0  0.26640  0.97990  0.27143  1.0000 -0.2778929802
C   C102      1.0  0.19520  0.93970  0.21793  1.0000 0.6622552268
O   O25       1.0  0.37470  0.74380  0.14697  1.0000 -0.6068828436
O   O26       1.0  0.42440  0.73300  0.02147  1.0000 -0.5319706184
O   O27       1.0  0.65510  0.23050  0.39037  1.0000 -0.5524364593
F   F37       1.0  0.70310  0.90570  0.35187  1.0000 -0.1901801128
O   O28       1.0  0.70110  0.20430  0.50847  1.0000 -0.540042036
F   F38       1.0  0.73850  0.04750  0.09507  1.0000 -0.1901801128
F   F39       1.0  0.82520  0.08300  0.18887  1.0000 -0.1901801128
F   F40       1.0  0.79430  0.98770  0.11167  1.0000 -0.1901801128
F   F41       1.0  0.81150  0.98430  0.31137  1.0000 -0.1901801128
F   F42       1.0  0.74740  0.88900  0.23397  1.0000 -0.1901801128
C   C103      1.0  0.50360  0.81310  0.13057  1.0000 -0.0315576512
C   C104      1.0  0.43070  0.75950  0.09637  1.0000 0.602964105
C   C105      1.0  0.56460  0.83490  0.07927  1.0000 -0.0883184284
H   H49       1.0  0.56020  0.81320  0.02367  1.0000 0.1283608183
C   C106      1.0  0.63970  0.92020  0.19117  1.0000 0.0804806829
C   C107      1.0  0.67920  0.19480  0.42827  1.0000 0.5803205438
C   C108      1.0  0.68400  0.13640  0.37927  1.0000 -0.0315576512
C   C109      1.0  0.57870  0.89630  0.24337  1.0000 -0.1294115951
H   H50       1.0  0.58310  0.91690  0.29957  1.0000 0.1209005105
C   C110      1.0  0.70210  0.03410  0.28537  1.0000 0.0804806829
C   C111      1.0  0.51100  0.84260  0.21457  1.0000 -0.0883184284
H   H51       1.0  0.47030  0.82620  0.25157  1.0000 0.1209005105
C   C112      1.0  0.72780  0.05210  0.37037  1.0000 -0.151086019
H   H52       1.0  0.75160  0.02970  0.39677  1.0000 0.1209005105
C   C113      1.0  0.71890  0.10290  0.41757  1.0000 -0.0832717041
H   H53       1.0  0.73660  0.11480  0.47577  1.0000 0.1209005105
C   C114      1.0  0.66710  0.06720  0.24727  1.0000 -0.1417483943
H   H54       1.0  0.64830  0.05420  0.18977  1.0000 0.1209005105
C   C115      1.0  0.63200  0.88810  0.10807  1.0000 -0.1417483943
H   H55       1.0  0.67280  0.90290  0.07177  1.0000 0.113964285
C   C116      1.0  0.65930  0.11920  0.29277  1.0000 -0.0883184284
H   H56       1.0  0.63730  0.14290  0.26517  1.0000 0.1283608183
C   C117      1.0  0.76800  0.02390  0.15497  1.0000 0.6622552268
C   C118      1.0  0.71350  0.97990  0.22857  1.0000 -0.2778929802
C   C119      1.0  0.74450  0.93970  0.28207  1.0000 0.6622552268
O   O29       1.0  0.36910  0.62530  0.48030  1.0000 -0.6068828436
O   O30       1.0  0.30860  0.57560  0.35480  1.0000 -0.5319706184
O   O31       1.0  0.57540  0.34490  0.72370  1.0000 -0.5524364593
F   F43       1.0  0.20260  0.29690  0.68520  1.0000 -0.1901801128
O   O32       1.0  0.50320  0.29890  0.84180  1.0000 -0.540042036
F   F44       1.0  0.30900  0.26150  0.42840  1.0000 -0.1901801128
F   F45       1.0  0.25780  0.17480  0.52220  1.0000 -0.1901801128
F   F46       1.0  0.19340  0.20570  0.44500  1.0000 -0.1901801128
F   F47       1.0  0.17280  0.18850  0.64470  1.0000 -0.1901801128
F   F48       1.0  0.14160  0.25260  0.56730  1.0000 -0.1901801128
C   C120      1.0  0.30950  0.49640  0.46390  1.0000 -0.0315576512
C   C121      1.0  0.32880  0.56930  0.42970  1.0000 0.602964105
C   C122      1.0  0.27030  0.43540  0.41260  1.0000 -0.0883184284
H   H57       1.0  0.25300  0.43980  0.35700  1.0000 0.1283608183
C   C123      1.0  0.28050  0.36030  0.52450  1.0000 0.0804806829
C   C124      1.0  0.51560  0.32080  0.76160  1.0000 0.5803205438
C   C125      1.0  0.45240  0.31600  0.71260  1.0000 -0.0315576512
C   C126      1.0  0.31760  0.42130  0.57670  1.0000 -0.1294115951
H   H58       1.0  0.33380  0.41690  0.63290  1.0000 0.1209005105
C   C127      1.0  0.33200  0.29790  0.61870  1.0000 0.0804806829
C   C128      1.0  0.33160  0.48900  0.54790  1.0000 -0.0883184284
H   H59       1.0  0.35590  0.52970  0.58490  1.0000 0.1209005105
C   C129      1.0  0.32430  0.27220  0.70370  1.0000 -0.151086019
H   H60       1.0  0.27810  0.24840  0.73010  1.0000 0.1209005105
C   C130      1.0  0.38400  0.28110  0.75090  1.0000 -0.0832717041
H   H61       1.0  0.37820  0.26340  0.80910  1.0000 0.1209005105
C   C131      1.0  0.40010  0.33290  0.58060  1.0000 -0.1417483943
H   H62       1.0  0.40590  0.35170  0.52310  1.0000 0.1209005105
C   C132      1.0  0.25610  0.36800  0.44140  1.0000 -0.1417483943
H   H63       1.0  0.23010  0.32720  0.40510  1.0000 0.113964285
C   C133      1.0  0.45990  0.34070  0.62610  1.0000 -0.0883184284
H   H64       1.0  0.50560  0.36270  0.59850  1.0000 0.1283608183
C   C134      1.0  0.25590  0.23200  0.48830  1.0000 0.6622552268
C   C135      1.0  0.26640  0.28650  0.56190  1.0000 -0.2778929802
C   C136      1.0  0.19520  0.25550  0.61540  1.0000 0.6622552268
O   O33       1.0  0.25620  0.63090  0.81363  1.0000 -0.6068828436
O   O34       1.0  0.26700  0.69140  0.68813  1.0000 -0.5319706184
O   O35       1.0  0.76950  0.42460  0.05703  1.0000 -0.5524364593
F   F49       1.0  0.09430  0.79740  0.01853  1.0000 -0.1901801128
O   O36       1.0  0.79570  0.49680  0.17513  1.0000 -0.540042036
F   F50       1.0  0.95250  0.69100  0.76173  1.0000 -0.1901801128
F   F51       1.0  0.91700  0.74220  0.85553  1.0000 -0.1901801128
F   F52       1.0  0.01230  0.80660  0.77833  1.0000 -0.1901801128
F   F53       1.0  0.01570  0.82720  0.97803  1.0000 -0.1901801128
F   F54       1.0  0.11100  0.85840  0.90063  1.0000 -0.1901801128
C   C137      1.0  0.18690  0.69050  0.79723  1.0000 -0.0315576512
C   C138      1.0  0.24050  0.67120  0.76303  1.0000 0.602964105
C   C139      1.0  0.16510  0.72970  0.74593  1.0000 -0.0883184284
H   H65       1.0  0.18680  0.74700  0.69033  1.0000 0.1283608183
C   C140      1.0  0.07980  0.71950  0.85783  1.0000 0.0804806829
C   C141      1.0  0.80520  0.48440  0.09493  1.0000 0.5803205438
C   C142      1.0  0.86360  0.54760  0.04593  1.0000 -0.0315576512
C   C143      1.0  0.10370  0.68240  0.91003  1.0000 -0.1294115951
H   H66       1.0  0.08310  0.66620  0.96623  1.0000 0.1209005105
C   C144      1.0  0.96590  0.66800  0.95203  1.0000 0.0804806829
C   C145      1.0  0.15740  0.66840  0.88123  1.0000 -0.0883184284
H   H67       1.0  0.17380  0.64410  0.91823  1.0000 0.1209005105
C   C146      1.0  0.94790  0.67570  0.03703  1.0000 -0.151086019
H   H68       1.0  0.97030  0.72190  0.06343  1.0000 0.1209005105
C   C147      1.0  0.89710  0.61600  0.08423  1.0000 -0.0832717041
H   H69       1.0  0.88520  0.62180  0.14243  1.0000 0.1209005105
C   C148      1.0  0.93280  0.59990  0.91393  1.0000 -0.1417483943
H   H70       1.0  0.94580  0.59410  0.85643  1.0000 0.1209005105
C   C149      1.0  0.11190  0.74390  0.77473  1.0000 -0.151086019
H   H71       1.0  0.09710  0.76990  0.73843  1.0000 0.113964285
C   C150      1.0  0.88080  0.54010  0.95943  1.0000 -0.0883184284
H   H72       1.0  0.85710  0.49440  0.93183  1.0000 0.1283608183
C   C151      1.0  0.97610  0.74410  0.82163  1.0000 0.6622552268
C   C152      1.0  0.02010  0.73360  0.89523  1.0000 -0.2778929802
C   C153      1.0  0.06030  0.80480  0.94873  1.0000 0.6622552268
O   O37       1.0  0.62530  0.25620  0.64697  1.0000 -0.6068828436
O   O38       1.0  0.57560  0.26700  0.52147  1.0000 -0.5319706184
O   O39       1.0  0.34490  0.76950  0.89037  1.0000 -0.5524364593
F   F55       1.0  0.29690  0.09430  0.85187  1.0000 -0.1901801128
O   O40       1.0  0.29890  0.79570  0.00847  1.0000 -0.540042036
F   F56       1.0  0.26150  0.95250  0.59507  1.0000 -0.1901801128
F   F57       1.0  0.17480  0.91700  0.68887  1.0000 -0.1901801128
F   F58       1.0  0.20570  0.01230  0.61167  1.0000 -0.1901801128
F   F59       1.0  0.18850  0.01570  0.81137  1.0000 -0.1901801128
F   F60       1.0  0.25260  0.11100  0.73397  1.0000 -0.1901801128
C   C154      1.0  0.49640  0.18690  0.63057  1.0000 -0.0315576512
C   C155      1.0  0.56930  0.24050  0.59637  1.0000 0.602964105
C   C156      1.0  0.43540  0.16510  0.57927  1.0000 -0.0883184284
H   H73       1.0  0.43980  0.18680  0.52367  1.0000 0.1283608183
C   C157      1.0  0.36030  0.07980  0.69117  1.0000 0.0804806829
C   C158      1.0  0.32080  0.80520  0.92827  1.0000 0.5803205438
C   C159      1.0  0.31600  0.86360  0.87927  1.0000 -0.0315576512
C   C160      1.0  0.42130  0.10370  0.74337  1.0000 -0.1294115951
H   H74       1.0  0.41690  0.08310  0.79957  1.0000 0.1209005105
C   C161      1.0  0.29790  0.96590  0.78537  1.0000 0.0804806829
C   C162      1.0  0.48900  0.15740  0.71457  1.0000 -0.0883184284
H   H75       1.0  0.52970  0.17380  0.75157  1.0000 0.1209005105
C   C163      1.0  0.27220  0.94790  0.87037  1.0000 -0.151086019
H   H76       1.0  0.24840  0.97030  0.89677  1.0000 0.1209005105
C   C164      1.0  0.28110  0.89710  0.91757  1.0000 -0.0832717041
H   H77       1.0  0.26340  0.88520  0.97577  1.0000 0.1209005105
C   C165      1.0  0.33290  0.93280  0.74727  1.0000 -0.1417483943
H   H78       1.0  0.35170  0.94580  0.68977  1.0000 0.1209005105
C   C166      1.0  0.36800  0.11190  0.60807  1.0000 -0.1417483943
H   H79       1.0  0.32720  0.09710  0.57177  1.0000 0.113964285
C   C167      1.0  0.34070  0.88080  0.79277  1.0000 -0.0883184284
H   H80       1.0  0.36270  0.85710  0.76517  1.0000 0.1283608183
C   C168      1.0  0.23200  0.97610  0.65497  1.0000 0.6622552268
C   C169      1.0  0.28650  0.02010  0.72857  1.0000 -0.2778929802
C   C170      1.0  0.25550  0.06030  0.78207  1.0000 0.6622552268
O   O41       1.0  0.63090  0.37470  0.98030  1.0000 -0.6068828436
O   O42       1.0  0.69140  0.42440  0.85480  1.0000 -0.5319706184
O   O43       1.0  0.42460  0.65510  0.22370  1.0000 -0.5524364593
F   F61       1.0  0.79740  0.70310  0.18520  1.0000 -0.1901801128
O   O44       1.0  0.49680  0.70110  0.34180  1.0000 -0.540042036
F   F62       1.0  0.69100  0.73850  0.92840  1.0000 -0.1901801128
F   F63       1.0  0.74220  0.82520  0.02220  1.0000 -0.1901801128
F   F64       1.0  0.80660  0.79430  0.94500  1.0000 -0.1901801128
F   F65       1.0  0.82720  0.81150  0.14470  1.0000 -0.1901801128
F   F66       1.0  0.85840  0.74740  0.06730  1.0000 -0.1901801128
C   C171      1.0  0.69050  0.50360  0.96390  1.0000 -0.0315576512
C   C172      1.0  0.67120  0.43070  0.92970  1.0000 0.602964105
C   C173      1.0  0.72970  0.56460  0.91260  1.0000 -0.0883184284
H   H81       1.0  0.74700  0.56020  0.85700  1.0000 0.1283608183
C   C174      1.0  0.71950  0.63970  0.02450  1.0000 0.0804806829
C   C175      1.0  0.48440  0.67920  0.26160  1.0000 0.5803205438
C   C176      1.0  0.54760  0.68400  0.21260  1.0000 -0.0315576512
C   C177      1.0  0.68240  0.57870  0.07670  1.0000 -0.1294115951
H   H82       1.0  0.66620  0.58310  0.13290  1.0000 0.1209005105
C   C178      1.0  0.66800  0.70210  0.11870  1.0000 0.0804806829
C   C179      1.0  0.66840  0.51100  0.04790  1.0000 -0.0883184284
H   H83       1.0  0.64410  0.47030  0.08490  1.0000 0.1209005105
C   C180      1.0  0.67570  0.72780  0.20370  1.0000 -0.151086019
H   H84       1.0  0.72190  0.75160  0.23010  1.0000 0.1209005105
C   C181      1.0  0.61600  0.71890  0.25090  1.0000 -0.0832717041
H   H85       1.0  0.62180  0.73660  0.30910  1.0000 0.1209005105
C   C182      1.0  0.59990  0.66710  0.08060  1.0000 -0.1417483943
H   H86       1.0  0.59410  0.64830  0.02310  1.0000 0.1209005105
C   C183      1.0  0.74390  0.63200  0.94140  1.0000 -0.151086019
H   H87       1.0  0.76990  0.67280  0.90510  1.0000 0.113964285
C   C184      1.0  0.54010  0.65930  0.12610  1.0000 -0.0832717041
H   H88       1.0  0.49440  0.63730  0.09850  1.0000 0.1283608183
C   C185      1.0  0.74410  0.76800  0.98830  1.0000 0.6622552268
C   C186      1.0  0.73360  0.71350  0.06190  1.0000 -0.2778929802
C   C187      1.0  0.80480  0.74450  0.11540  1.0000 0.6622552268
O   O45       1.0  0.74380  0.36910  0.31363  1.0000 -0.6068828436
O   O46       1.0  0.73300  0.30860  0.18813  1.0000 -0.5319706184
O   O47       1.0  0.23050  0.57540  0.55703  1.0000 -0.5524364593
F   F67       1.0  0.90570  0.20260  0.51853  1.0000 -0.1901801128
O   O48       1.0  0.20430  0.50320  0.67513  1.0000 -0.540042036
F   F68       1.0  0.04750  0.30900  0.26173  1.0000 -0.1901801128
F   F69       1.0  0.08300  0.25780  0.35553  1.0000 -0.1901801128
F   F70       1.0  0.98770  0.19340  0.27833  1.0000 -0.1901801128
F   F71       1.0  0.98430  0.17280  0.47803  1.0000 -0.1901801128
F   F72       1.0  0.88900  0.14160  0.40063  1.0000 -0.1901801128
C   C188      1.0  0.81310  0.30950  0.29723  1.0000 -0.0315576512
C   C189      1.0  0.75950  0.32880  0.26303  1.0000 0.602964105
C   C190      1.0  0.83490  0.27030  0.24593  1.0000 -0.0883184284
H   H89       1.0  0.81320  0.25300  0.19033  1.0000 0.1283608183
C   C191      1.0  0.92020  0.28050  0.35783  1.0000 0.0804806829
C   C192      1.0  0.19480  0.51560  0.59493  1.0000 0.5803205438
C   C193      1.0  0.13640  0.45240  0.54593  1.0000 -0.0315576512
C   C194      1.0  0.89630  0.31760  0.41003  1.0000 -0.1294115951
H   H90       1.0  0.91690  0.33380  0.46623  1.0000 0.1209005105
C   C195      1.0  0.03410  0.33200  0.45203  1.0000 0.0804806829
C   C196      1.0  0.84260  0.33160  0.38123  1.0000 -0.0883184284
H   H91       1.0  0.82620  0.35590  0.41823  1.0000 0.1209005105
C   C197      1.0  0.05210  0.32430  0.53703  1.0000 -0.151086019
H   H92       1.0  0.02970  0.27810  0.56343  1.0000 0.1209005105
C   C198      1.0  0.10290  0.38400  0.58423  1.0000 -0.0832717041
H   H93       1.0  0.11480  0.37820  0.64243  1.0000 0.1209005105
C   C199      1.0  0.06720  0.40010  0.41393  1.0000 -0.1417483943
H   H94       1.0  0.05420  0.40590  0.35643  1.0000 0.1209005105
C   C200      1.0  0.88810  0.25610  0.27473  1.0000 -0.1417483943
H   H95       1.0  0.90290  0.23010  0.23843  1.0000 0.113964285
C   C201      1.0  0.11920  0.45990  0.45943  1.0000 -0.0832717041
H   H96       1.0  0.14290  0.50560  0.43183  1.0000 0.1283608183
C   C202      1.0  0.02390  0.25590  0.32163  1.0000 0.6622552268
C   C203      1.0  0.97990  0.26640  0.39523  1.0000 -0.2778929802
C   C204      1.0  0.93970  0.19520  0.44873  1.0000 0.6622552268
Co  Co1       1.0  0.28350  0.71650  0.08333  1.0000 0.9087890056
Co  Co2       1.0  0.28350  0.56700  0.75000  1.0000 0.9087890056
Co  Co3       1.0  0.43300  0.71650  0.41667  1.0000 0.9087890056
Co  Co4       1.0  0.71650  0.28350  0.58333  1.0000 0.9087890056
Co  Co5       1.0  0.71650  0.43300  0.25000  1.0000 0.9087890056
Co  Co6       1.0  0.56700  0.28350  0.91667  1.0000 0.9087890056
Mn  Mn1       1.0  0.32467  0.64934  0.25000  1.0000 1.0605788695
Mn  Mn2       1.0  0.35066  0.67533  0.91667  1.0000 1.0605788695
Mn  Mn3       1.0  0.32467  0.67533  0.58333  1.0000 1.0605788695
Mn  Mn4       1.0  0.67533  0.35066  0.75000  1.0000 1.0605788695
Mn  Mn5       1.0  0.64934  0.32467  0.41667  1.0000 1.0605788695
Mn  Mn6       1.0  0.67533  0.32467  0.08333  1.0000 1.0605788695
