# DDEC6 charges by PACMAN v1.1 (https://github.com/mtap-research/PACMAN-charge/)
data_2019[Co][nan]3[ASR]22
_chemical_formula_sum              "Co20 H88 C128 N16 O72"
_cell_length_a       18.6088
_cell_length_b       18.6088
_cell_length_c       21.9119
_cell_angle_alpha    85.9717
_cell_angle_beta     94.0283
_cell_angle_gamma    145.011

_symmetry_space_group_name_H-M    "P 1"
_symmetry_Int_Tables_number       1

loop_
  _symmetry_equiv_pos_as_xyz
  'x, y, z'

loop_
  _atom_site_type_symbol
  _atom_site_label
  _atom_site_symmetry_multiplicity
  _atom_site_fract_x
  _atom_site_fract_y
  _atom_site_fract_z
  _atom_site_occupancy
  _atom_site_charge
Co  Co1       1.0  0.81880  0.67620  0.99450  1.0000 0.9809841523
Co  Co2       1.0  0.19080  0.93580  0.87040  1.0000 1.0201456556
Co  Co3       1.0  0.10115  0.75305  0.76260  1.0000 0.9432527432
Co  Co4       1.0  0.68297  0.87983  0.67740  1.0000 1.0289017865
Co  Co5       1.0  0.47590  0.75590  0.56340  1.0000 0.990718306
Co  Co6       1.0  0.67620  0.81880  0.50550  1.0000 0.9809841523
Co  Co7       1.0  0.93580  0.19080  0.62960  1.0000 1.0201456556
Co  Co8       1.0  0.75305  0.10115  0.73740  1.0000 0.9432527432
Co  Co9       1.0  0.87983  0.68297  0.82260  1.0000 1.0289017865
Co  Co10      1.0  0.75590  0.47590  0.93660  1.0000 0.990718306
Co  Co11      1.0  0.18120  0.32380  0.00550  1.0000 0.9809841523
Co  Co12      1.0  0.80920  0.06420  0.12960  1.0000 1.0201456556
Co  Co13      1.0  0.89885  0.24695  0.23740  1.0000 0.9432527432
Co  Co14      1.0  0.31703  0.12017  0.32260  1.0000 1.0289017865
Co  Co15      1.0  0.52410  0.24410  0.43660  1.0000 0.990718306
Co  Co16      1.0  0.32380  0.18120  0.49450  1.0000 0.9809841523
Co  Co17      1.0  0.06420  0.80920  0.37040  1.0000 1.0201456556
Co  Co18      1.0  0.24695  0.89885  0.26260  1.0000 0.9432527432
Co  Co19      1.0  0.12017  0.31703  0.17740  1.0000 1.0289017865
Co  Co20      1.0  0.24410  0.52410  0.06340  1.0000 0.990718306
H   H1        1.0  0.71266  0.95522  0.58507  1.0000 0.3544695684
H   H2        1.0  0.06906  0.73502  0.85594  1.0000 0.3601031909
H   H3        1.0  0.63234  0.09706  0.65650  1.0000 0.2907545389
H   H4        1.0  0.75993  0.22529  0.65784  1.0000 0.2987155625
H   H5        1.0  0.18683  0.23229  0.09264  1.0000 0.2987155625
H   H6        1.0  0.31428  0.35572  0.08085  1.0000 0.2987155625
H   H7        1.0  0.29205  0.34403  0.91932  1.0000 0.2817951152
H   H8        1.0  0.25450  0.38104  0.88994  1.0000 0.2907545389
H   H9        1.0  0.92372  0.35074  0.32226  1.0000 0.2907545389
H   H10       1.0  0.95853  0.30927  0.34766  1.0000 0.2907545389
H   H11       1.0  0.08742  0.04596  0.03345  1.0000 0.1316807089
H   H12       1.0  0.34550  0.13754  0.95637  1.0000 0.1316807089
H   H13       1.0  0.44790  0.40372  0.03187  1.0000 0.1316807089
H   H14       1.0  0.47462  0.01614  0.72303  1.0000 0.1316807089
H   H15       1.0  0.82899  0.37937  0.71835  1.0000 0.1316807089
H   H16       1.0  0.56512  0.27250  0.80165  1.0000 0.1420953432
H   H17       1.0  0.88514  0.91552  0.79517  1.0000 0.1222867677
H   H18       1.0  0.20482  0.16682  0.89586  1.0000 0.1222867677
H   H19       1.0  0.04151  0.22471  0.85135  1.0000 0.1316807089
H   H20       1.0  0.48549  0.94223  0.44055  1.0000 0.1316807089
H   H21       1.0  0.77914  0.07684  0.37809  1.0000 0.1316807089
H   H22       1.0  0.76638  0.28262  0.35849  1.0000 0.1316807089
H   H23       1.0  0.95522  0.71266  0.91493  1.0000 0.3544695684
H   H24       1.0  0.73502  0.06906  0.64406  1.0000 0.3601031909
H   H25       1.0  0.09706  0.63234  0.84350  1.0000 0.2907545389
H   H26       1.0  0.22529  0.75993  0.84216  1.0000 0.2987155625
H   H27       1.0  0.23229  0.18683  0.40736  1.0000 0.2987155625
H   H28       1.0  0.35572  0.31428  0.41915  1.0000 0.2987155625
H   H29       1.0  0.34403  0.29205  0.58068  1.0000 0.2817951152
H   H30       1.0  0.38104  0.25450  0.61006  1.0000 0.2907545389
H   H31       1.0  0.35074  0.92372  0.17774  1.0000 0.2907545389
H   H32       1.0  0.30927  0.95853  0.15234  1.0000 0.2907545389
H   H33       1.0  0.04596  0.08742  0.46655  1.0000 0.1316807089
H   H34       1.0  0.13754  0.34550  0.54363  1.0000 0.1316807089
H   H35       1.0  0.40372  0.44790  0.46813  1.0000 0.1316807089
H   H36       1.0  0.01614  0.47462  0.77697  1.0000 0.1316807089
H   H37       1.0  0.37937  0.82899  0.78165  1.0000 0.1316807089
H   H38       1.0  0.27250  0.56512  0.69835  1.0000 0.1420953432
H   H39       1.0  0.91552  0.88514  0.70483  1.0000 0.1222867677
H   H40       1.0  0.16682  0.20482  0.60414  1.0000 0.1222867677
H   H41       1.0  0.22471  0.04151  0.64865  1.0000 0.1316807089
H   H42       1.0  0.94223  0.48549  0.05945  1.0000 0.1316807089
H   H43       1.0  0.07684  0.77914  0.12191  1.0000 0.1316807089
H   H44       1.0  0.28262  0.76638  0.14151  1.0000 0.1316807089
H   H45       1.0  0.28734  0.04478  0.41493  1.0000 0.3544695684
H   H46       1.0  0.93094  0.26498  0.14406  1.0000 0.3601031909
H   H47       1.0  0.36766  0.90294  0.34351  1.0000 0.2907545389
H   H48       1.0  0.24007  0.77471  0.34216  1.0000 0.2987155625
H   H49       1.0  0.81317  0.76771  0.90736  1.0000 0.2987155625
H   H50       1.0  0.68572  0.64428  0.91915  1.0000 0.2987155625
H   H51       1.0  0.70795  0.65597  0.08068  1.0000 0.2817951152
H   H52       1.0  0.74550  0.61896  0.11006  1.0000 0.2907545389
H   H53       1.0  0.07628  0.64926  0.67774  1.0000 0.2907545389
H   H54       1.0  0.04147  0.69073  0.65234  1.0000 0.2907545389
H   H55       1.0  0.91258  0.95404  0.96655  1.0000 0.1316807089
H   H56       1.0  0.65450  0.86246  0.04363  1.0000 0.1316807089
H   H57       1.0  0.55210  0.59628  0.96813  1.0000 0.1316807089
H   H58       1.0  0.52538  0.98386  0.27697  1.0000 0.1316807089
H   H59       1.0  0.17101  0.62063  0.28165  1.0000 0.1316807089
H   H60       1.0  0.43488  0.72750  0.19835  1.0000 0.1420953432
H   H61       1.0  0.11486  0.08448  0.20483  1.0000 0.1222867677
H   H62       1.0  0.79518  0.83318  0.10414  1.0000 0.1222867677
H   H63       1.0  0.95849  0.77529  0.14865  1.0000 0.1316807089
H   H64       1.0  0.51451  0.05777  0.55945  1.0000 0.1316807089
H   H65       1.0  0.22086  0.92316  0.62191  1.0000 0.1316807089
H   H66       1.0  0.23362  0.71738  0.64151  1.0000 0.1316807089
H   H67       1.0  0.04478  0.28734  0.08507  1.0000 0.3544695684
H   H68       1.0  0.26498  0.93094  0.35594  1.0000 0.3601031909
H   H69       1.0  0.90294  0.36766  0.15649  1.0000 0.2907545389
H   H70       1.0  0.77471  0.24007  0.15784  1.0000 0.2987155625
H   H71       1.0  0.76771  0.81317  0.59264  1.0000 0.2987155625
H   H72       1.0  0.64428  0.68572  0.58085  1.0000 0.2987155625
H   H73       1.0  0.65597  0.70795  0.41932  1.0000 0.2817951152
H   H74       1.0  0.61896  0.74550  0.38994  1.0000 0.2907545389
H   H75       1.0  0.64926  0.07628  0.82226  1.0000 0.2907545389
H   H76       1.0  0.69073  0.04147  0.84766  1.0000 0.2907545389
H   H77       1.0  0.95404  0.91258  0.53345  1.0000 0.1316807089
H   H78       1.0  0.86246  0.65450  0.45637  1.0000 0.1316807089
H   H79       1.0  0.59628  0.55210  0.53187  1.0000 0.1316807089
H   H80       1.0  0.98386  0.52538  0.22303  1.0000 0.1316807089
H   H81       1.0  0.62063  0.17101  0.21835  1.0000 0.1316807089
H   H82       1.0  0.72750  0.43488  0.30165  1.0000 0.1420953432
H   H83       1.0  0.08448  0.11486  0.29517  1.0000 0.1222867677
H   H84       1.0  0.83318  0.79518  0.39586  1.0000 0.1222867677
H   H85       1.0  0.77529  0.95849  0.35135  1.0000 0.1316807089
H   H86       1.0  0.05777  0.51451  0.94055  1.0000 0.1316807089
H   H87       1.0  0.92316  0.22086  0.87809  1.0000 0.1316807089
H   H88       1.0  0.71738  0.23362  0.85849  1.0000 0.1316807089
C   C1        1.0  0.55580  0.39020  0.97600  1.0000 0.5665587792
C   C2        1.0  0.17000  0.10600  0.02290  1.0000 -0.1935049585
C   C3        1.0  0.20100  0.07100  0.99250  1.0000 -0.0496595381
C   C4        1.0  0.32490  0.16110  0.97680  1.0000 -0.1339101782
C   C5        1.0  0.41680  0.28520  0.99150  1.0000 0.0017802343
C   C6        1.0  0.38580  0.32020  0.02200  1.0000 -0.2305637924
C   C7        1.0  0.26290  0.23110  0.03770  1.0000 0.2619404467
C   C8        1.0  0.09440  0.93560  0.98300  1.0000 0.5939026186
C   C9        1.0  0.81300  0.48500  0.77200  1.0000 0.5939026186
C   C10       1.0  0.53360  0.09840  0.73290  1.0000 -0.2191299191
C   C11       1.0  0.65740  0.19260  0.71530  1.0000 0.2619404467
C   C12       1.0  0.74590  0.31610  0.73010  1.0000 -0.2191299191
C   C13       1.0  0.71170  0.34630  0.76240  1.0000 0.0017802343
C   C14       1.0  0.58790  0.25210  0.78000  1.0000 -0.1053521997
C   C15       1.0  0.49930  0.12870  0.76520  1.0000 -0.0420125043
C   C16       1.0  0.37350  0.03450  0.78800  1.0000 0.5801013618
C   C17       1.0  0.04030  0.94570  0.84100  1.0000 0.5637681791
C   C18       1.0  0.94780  0.06420  0.81850  1.0000 -0.0420125043
C   C19       1.0  0.94920  0.99080  0.81610  1.0000 -0.1491642361
C   C20       1.0  0.04510  0.02890  0.84510  1.0000 -0.0076982556
C   C21       1.0  0.14070  0.14130  0.87650  1.0000 -0.1976905009
C   C22       1.0  0.13930  0.21470  0.87880  1.0000 0.2817951152
C   C23       1.0  0.04240  0.17560  0.84980  1.0000 -0.1701703919
C   C24       1.0  0.84340  0.02060  0.79100  1.0000 0.5801013618
C   C25       1.0  0.56950  0.88250  0.44600  1.0000 0.5801013618
C   C26       1.0  0.56230  0.00570  0.42120  1.0000 -0.1701703919
C   C27       1.0  0.62300  0.99100  0.41270  1.0000 -0.0191518602
C   C28       1.0  0.73790  0.08610  0.38380  1.0000 -0.1701703919
C   C29       1.0  0.79220  0.19580  0.36350  1.0000 0.2667463729
C   C30       1.0  0.73050  0.20950  0.37210  1.0000 -0.2124828539
C   C31       1.0  0.61550  0.11450  0.40090  1.0000 0.0072687466
C   C32       1.0  0.54560  0.12840  0.40400  1.0000 0.5472489605
C   C33       1.0  0.39020  0.55580  0.52400  1.0000 0.5665587792
C   C34       1.0  0.10600  0.17000  0.47710  1.0000 -0.1935049585
C   C35       1.0  0.07100  0.20100  0.50750  1.0000 -0.0496595381
C   C36       1.0  0.16110  0.32490  0.52320  1.0000 -0.1339101782
C   C37       1.0  0.28520  0.41680  0.50850  1.0000 0.0017802343
C   C38       1.0  0.32020  0.38580  0.47800  1.0000 -0.2305637924
C   C39       1.0  0.23110  0.26290  0.46230  1.0000 0.2619404467
C   C40       1.0  0.93560  0.09440  0.51700  1.0000 0.5939026186
C   C41       1.0  0.48500  0.81300  0.72800  1.0000 0.5939026186
C   C42       1.0  0.09840  0.53360  0.76710  1.0000 -0.2191299191
C   C43       1.0  0.19260  0.65740  0.78470  1.0000 0.2619404467
C   C44       1.0  0.31610  0.74590  0.76990  1.0000 -0.2191299191
C   C45       1.0  0.34630  0.71170  0.73760  1.0000 0.0017802343
C   C46       1.0  0.25210  0.58790  0.72000  1.0000 -0.1053521997
C   C47       1.0  0.12870  0.49930  0.73480  1.0000 -0.0420125043
C   C48       1.0  0.03450  0.37350  0.71200  1.0000 0.5801013618
C   C49       1.0  0.94570  0.04030  0.65900  1.0000 0.5637681791
C   C50       1.0  0.06420  0.94780  0.68150  1.0000 -0.0420125043
C   C51       1.0  0.99080  0.94920  0.68390  1.0000 -0.1491642361
C   C52       1.0  0.02890  0.04510  0.65490  1.0000 -0.0076982556
C   C53       1.0  0.14130  0.14070  0.62350  1.0000 -0.1976905009
C   C54       1.0  0.21470  0.13930  0.62120  1.0000 0.2817951152
C   C55       1.0  0.17560  0.04240  0.65020  1.0000 -0.1701703919
C   C56       1.0  0.02060  0.84340  0.70900  1.0000 0.5801013618
C   C57       1.0  0.88250  0.56950  0.05400  1.0000 0.5801013618
C   C58       1.0  0.00570  0.56230  0.07880  1.0000 -0.1701703919
C   C59       1.0  0.99100  0.62300  0.08730  1.0000 -0.0191518602
C   C60       1.0  0.08610  0.73790  0.11620  1.0000 -0.1701703919
C   C61       1.0  0.19580  0.79220  0.13650  1.0000 0.2667463729
C   C62       1.0  0.20950  0.73050  0.12790  1.0000 -0.2124828539
C   C63       1.0  0.11450  0.61550  0.09910  1.0000 0.0072687466
C   C64       1.0  0.12840  0.54560  0.09600  1.0000 0.5472489605
C   C65       1.0  0.44420  0.60980  0.02400  1.0000 0.5665587792
C   C66       1.0  0.83000  0.89400  0.97710  1.0000 -0.1935049585
C   C67       1.0  0.79900  0.92900  0.00750  1.0000 -0.0496595381
C   C68       1.0  0.67510  0.83890  0.02320  1.0000 -0.1339101782
C   C69       1.0  0.58320  0.71480  0.00850  1.0000 0.0017802343
C   C70       1.0  0.61420  0.67980  0.97800  1.0000 -0.2305637924
C   C71       1.0  0.73710  0.76890  0.96230  1.0000 0.2619404467
C   C72       1.0  0.90560  0.06440  0.01700  1.0000 0.5939026186
C   C73       1.0  0.18700  0.51500  0.22800  1.0000 0.5939026186
C   C74       1.0  0.46640  0.90160  0.26710  1.0000 -0.2191299191
C   C75       1.0  0.34260  0.80740  0.28470  1.0000 0.2619404467
C   C76       1.0  0.25410  0.68390  0.26990  1.0000 -0.2191299191
C   C77       1.0  0.28830  0.65370  0.23760  1.0000 0.0017802343
C   C78       1.0  0.41210  0.74790  0.22000  1.0000 -0.1053521997
C   C79       1.0  0.50070  0.87130  0.23480  1.0000 -0.0420125043
C   C80       1.0  0.62650  0.96550  0.21200  1.0000 0.5801013618
C   C81       1.0  0.95970  0.05430  0.15900  1.0000 0.5637681791
C   C82       1.0  0.05220  0.93580  0.18150  1.0000 -0.0420125043
C   C83       1.0  0.05080  0.00920  0.18390  1.0000 -0.1491642361
C   C84       1.0  0.95490  0.97110  0.15490  1.0000 -0.0076982556
C   C85       1.0  0.85930  0.85870  0.12350  1.0000 -0.1976905009
C   C86       1.0  0.86070  0.78530  0.12120  1.0000 0.2817951152
C   C87       1.0  0.95760  0.82440  0.15020  1.0000 -0.1701703919
C   C88       1.0  0.15660  0.97940  0.20900  1.0000 0.5801013618
C   C89       1.0  0.43050  0.11750  0.55400  1.0000 0.5801013618
C   C90       1.0  0.43770  0.99430  0.57880  1.0000 -0.1701703919
C   C91       1.0  0.37700  0.00900  0.58730  1.0000 -0.0191518602
C   C92       1.0  0.26210  0.91390  0.61620  1.0000 -0.1701703919
C   C93       1.0  0.20780  0.80420  0.63650  1.0000 0.2667463729
C   C94       1.0  0.26950  0.79050  0.62790  1.0000 -0.2124828539
C   C95       1.0  0.38450  0.88550  0.59910  1.0000 0.0072687466
C   C96       1.0  0.45440  0.87160  0.59600  1.0000 0.5472489605
C   C97       1.0  0.60980  0.44420  0.47600  1.0000 0.5665587792
C   C98       1.0  0.89400  0.83000  0.52290  1.0000 -0.1935049585
C   C99       1.0  0.92900  0.79900  0.49250  1.0000 -0.0496595381
C   C100      1.0  0.83890  0.67510  0.47680  1.0000 -0.1339101782
C   C101      1.0  0.71480  0.58320  0.49150  1.0000 0.0017802343
C   C102      1.0  0.67980  0.61420  0.52200  1.0000 -0.2305637924
C   C103      1.0  0.76890  0.73710  0.53770  1.0000 0.2619404467
C   C104      1.0  0.06440  0.90560  0.48300  1.0000 0.5939026186
C   C105      1.0  0.51500  0.18700  0.27200  1.0000 0.5939026186
C   C106      1.0  0.90160  0.46640  0.23290  1.0000 -0.2191299191
C   C107      1.0  0.80740  0.34260  0.21530  1.0000 0.2619404467
C   C108      1.0  0.68390  0.25410  0.23010  1.0000 -0.2191299191
C   C109      1.0  0.65370  0.28830  0.26240  1.0000 0.0017802343
C   C110      1.0  0.74790  0.41210  0.28000  1.0000 -0.1053521997
C   C111      1.0  0.87130  0.50070  0.26520  1.0000 -0.0420125043
C   C112      1.0  0.96550  0.62650  0.28800  1.0000 0.5801013618
C   C113      1.0  0.05430  0.95970  0.34100  1.0000 0.5637681791
C   C114      1.0  0.93580  0.05220  0.31850  1.0000 -0.0420125043
C   C115      1.0  0.00920  0.05080  0.31610  1.0000 -0.1491642361
C   C116      1.0  0.97110  0.95490  0.34510  1.0000 -0.0076982556
C   C117      1.0  0.85870  0.85930  0.37650  1.0000 -0.1976905009
C   C118      1.0  0.78530  0.86070  0.37880  1.0000 0.2817951152
C   C119      1.0  0.82440  0.95760  0.34980  1.0000 -0.1701703919
C   C120      1.0  0.97940  0.15660  0.29100  1.0000 0.5801013618
C   C121      1.0  0.11750  0.43050  0.94600  1.0000 0.5801013618
C   C122      1.0  0.99430  0.43770  0.92120  1.0000 -0.1701703919
C   C123      1.0  0.00900  0.37700  0.91270  1.0000 -0.0191518602
C   C124      1.0  0.91390  0.26210  0.88380  1.0000 -0.1701703919
C   C125      1.0  0.80420  0.20780  0.86350  1.0000 0.2667463729
C   C126      1.0  0.79050  0.26950  0.87210  1.0000 -0.2124828539
C   C127      1.0  0.88550  0.38450  0.90090  1.0000 0.0072687466
C   C128      1.0  0.87160  0.45440  0.90400  1.0000 0.5472489605
N   N1        1.0  0.69620  0.15980  0.68140  1.0000 -0.6071214667
N   N2        1.0  0.24200  0.28400  0.06310  1.0000 -0.5979540078
N   N3        1.0  0.22710  0.32090  0.91320  1.0000 -0.5606188715
N   N4        1.0  0.89910  0.28490  0.32610  1.0000 -0.5688555728
N   N5        1.0  0.15980  0.69620  0.81860  1.0000 -0.6071214667
N   N6        1.0  0.28400  0.24200  0.43690  1.0000 -0.5979540078
N   N7        1.0  0.32090  0.22710  0.58680  1.0000 -0.5606188715
N   N8        1.0  0.28490  0.89910  0.17390  1.0000 -0.5688555728
N   N9        1.0  0.30380  0.84020  0.31860  1.0000 -0.6071214667
N   N10       1.0  0.75800  0.71600  0.93690  1.0000 -0.5979540078
N   N11       1.0  0.77290  0.67910  0.08680  1.0000 -0.5606188715
N   N12       1.0  0.10090  0.71510  0.67390  1.0000 -0.5688555728
N   N13       1.0  0.84020  0.30380  0.18140  1.0000 -0.6071214667
N   N14       1.0  0.71600  0.75800  0.56310  1.0000 -0.5979540078
N   N15       1.0  0.67910  0.77290  0.41320  1.0000 -0.5606188715
N   N16       1.0  0.71510  0.10090  0.82610  1.0000 -0.5688555728
O   O1        1.0  0.64490  0.85510  0.57960  1.0000 -0.9180761865
O   O2        1.0  0.05460  0.76540  0.83940  1.0000 -0.9069296709
O   O3        1.0  0.63490  0.49310  0.99890  1.0000 -0.5761474585
O   O4        1.0  0.57350  0.35450  0.94100  1.0000 -0.5308210841
O   O5        1.0  0.34770  0.06030  0.82260  1.0000 -0.5308210841
O   O6        1.0  0.28750  0.91850  0.77110  1.0000 -0.5979540078
O   O7        1.0  0.62050  0.24150  0.40890  1.0000 -0.5210694661
O   O8        1.0  0.43160  0.03840  0.41590  1.0000 -0.545503675
O   O9        1.0  0.65350  0.89650  0.45010  1.0000 -0.5979540078
O   O10       1.0  0.48220  0.80580  0.47830  1.0000 -0.4324608734
O   O11       1.0  0.74710  0.91490  0.76810  1.0000 -0.5445157281
O   O12       1.0  0.85270  0.09730  0.78400  1.0000 -0.5606188715
O   O13       1.0  0.94450  0.83750  0.84320  1.0000 -0.4784395463
O   O14       1.0  0.15270  0.00930  0.84000  1.0000 -0.5688555728
O   O15       1.0  0.11740  0.89660  0.95440  1.0000 -0.5979540078
O   O16       1.0  0.98050  0.85950  0.99950  1.0000 -0.5606188715
O   O17       1.0  0.77770  0.50430  0.80460  1.0000 -0.5761474585
O   O18       1.0  0.92310  0.56490  0.75580  1.0000 -0.5688555728
O   O19       1.0  0.85510  0.64490  0.92040  1.0000 -0.9180761865
O   O20       1.0  0.76540  0.05460  0.66060  1.0000 -0.9069296709
O   O21       1.0  0.49310  0.63490  0.50110  1.0000 -0.5761474585
O   O22       1.0  0.35450  0.57350  0.55900  1.0000 -0.5308210841
O   O23       1.0  0.06030  0.34770  0.67740  1.0000 -0.5308210841
O   O24       1.0  0.91850  0.28750  0.72890  1.0000 -0.5979540078
O   O25       1.0  0.24150  0.62050  0.09110  1.0000 -0.5210694661
O   O26       1.0  0.03840  0.43160  0.08410  1.0000 -0.545503675
O   O27       1.0  0.89650  0.65350  0.04990  1.0000 -0.5979540078
O   O28       1.0  0.80580  0.48220  0.02170  1.0000 -0.4324608734
O   O29       1.0  0.91490  0.74710  0.73190  1.0000 -0.5445157281
O   O30       1.0  0.09730  0.85270  0.71600  1.0000 -0.5606188715
O   O31       1.0  0.83750  0.94450  0.65680  1.0000 -0.4784395463
O   O32       1.0  0.00930  0.15270  0.66000  1.0000 -0.5688555728
O   O33       1.0  0.89660  0.11740  0.54560  1.0000 -0.5979540078
O   O34       1.0  0.85950  0.98050  0.50050  1.0000 -0.5606188715
O   O35       1.0  0.50430  0.77770  0.69540  1.0000 -0.5761474585
O   O36       1.0  0.56490  0.92310  0.74420  1.0000 -0.5688555728
O   O37       1.0  0.35510  0.14490  0.42040  1.0000 -0.9180761865
O   O38       1.0  0.94540  0.23460  0.16060  1.0000 -0.9069296709
O   O39       1.0  0.36510  0.50690  0.00110  1.0000 -0.5761474585
O   O40       1.0  0.42650  0.64550  0.05900  1.0000 -0.5308210841
O   O41       1.0  0.65230  0.93970  0.17740  1.0000 -0.5308210841
O   O42       1.0  0.71250  0.08150  0.22890  1.0000 -0.5979540078
O   O43       1.0  0.37950  0.75850  0.59110  1.0000 -0.5210694661
O   O44       1.0  0.56840  0.96160  0.58410  1.0000 -0.545503675
O   O45       1.0  0.34650  0.10350  0.54990  1.0000 -0.5979540078
O   O46       1.0  0.51780  0.19420  0.52170  1.0000 -0.4324608734
O   O47       1.0  0.25290  0.08510  0.23190  1.0000 -0.5445157281
O   O48       1.0  0.14730  0.90270  0.21600  1.0000 -0.5606188715
O   O49       1.0  0.05550  0.16250  0.15680  1.0000 -0.4784395463
O   O50       1.0  0.84730  0.99070  0.16000  1.0000 -0.5688555728
O   O51       1.0  0.88260  0.10340  0.04560  1.0000 -0.5979540078
O   O52       1.0  0.01950  0.14050  0.00050  1.0000 -0.5606188715
O   O53       1.0  0.22230  0.49570  0.19540  1.0000 -0.5761474585
O   O54       1.0  0.07690  0.43510  0.24420  1.0000 -0.5688555728
O   O55       1.0  0.14490  0.35510  0.07960  1.0000 -0.9180761865
O   O56       1.0  0.23460  0.94540  0.33940  1.0000 -0.9069296709
O   O57       1.0  0.50690  0.36510  0.49890  1.0000 -0.5761474585
O   O58       1.0  0.64550  0.42650  0.44100  1.0000 -0.5308210841
O   O59       1.0  0.93970  0.65230  0.32260  1.0000 -0.5308210841
O   O60       1.0  0.08150  0.71250  0.27110  1.0000 -0.5979540078
O   O61       1.0  0.75850  0.37950  0.90890  1.0000 -0.5210694661
O   O62       1.0  0.96160  0.56840  0.91590  1.0000 -0.545503675
O   O63       1.0  0.10350  0.34650  0.95010  1.0000 -0.5979540078
O   O64       1.0  0.19420  0.51780  0.97830  1.0000 -0.4324608734
O   O65       1.0  0.08510  0.25290  0.26810  1.0000 -0.5445157281
O   O66       1.0  0.90270  0.14730  0.28400  1.0000 -0.5606188715
O   O67       1.0  0.16250  0.05550  0.34320  1.0000 -0.4784395463
O   O68       1.0  0.99070  0.84730  0.34000  1.0000 -0.5688555728
O   O69       1.0  0.10340  0.88260  0.45440  1.0000 -0.5979540078
O   O70       1.0  0.14050  0.01950  0.49950  1.0000 -0.5606188715
O   O71       1.0  0.49570  0.22230  0.30460  1.0000 -0.5761474585
O   O72       1.0  0.43510  0.07690  0.25580  1.0000 -0.5688555728
