# DDEC6 charges by PACMAN v1.1 (https://github.com/mtap-research/PACMAN-charge/)
data_2019[Cd][nan]3[ASR]13
_chemical_formula_sum              "Cd8 H32 C60 N16 O20"
_cell_length_a       17.3031
_cell_length_b       7.2939
_cell_length_c       20.4716
_cell_angle_alpha    90
_cell_angle_beta     104.826
_cell_angle_gamma    90

_symmetry_space_group_name_H-M    "P 1"
_symmetry_Int_Tables_number       1

loop_
  _symmetry_equiv_pos_as_xyz
  'x, y, z'

loop_
  _atom_site_type_symbol
  _atom_site_label
  _atom_site_symmetry_multiplicity
  _atom_site_fract_x
  _atom_site_fract_y
  _atom_site_fract_z
  _atom_site_occupancy
  _atom_site_charge
Cd  Cd1       1.0  0.19977  0.14944  0.81069  1.0000 0.9146324754
Cd  Cd2       1.0  0.00136  0.40370  0.74542  1.0000 0.8208254387
Cd  Cd3       1.0  0.80023  0.64944  0.68931  1.0000 0.9146324754
Cd  Cd4       1.0  0.99864  0.90370  0.75458  1.0000 0.8208254387
Cd  Cd5       1.0  0.80023  0.85056  0.18931  1.0000 0.9156787356
Cd  Cd6       1.0  0.99864  0.59630  0.25458  1.0000 0.8208254387
Cd  Cd7       1.0  0.19977  0.35056  0.31069  1.0000 0.9146324754
Cd  Cd8       1.0  0.00136  0.09630  0.24542  1.0000 0.8208254387
H   H1        1.0  0.19400  0.22980  0.56810  1.0000 0.1328639199
H   H2        1.0  0.39670  0.24040  0.50330  1.0000 0.1196333158
H   H3        1.0  0.66100  0.40650  0.60810  1.0000 0.1196333158
H   H4        1.0  0.65300  0.91470  0.69420  1.0000 0.1196333158
H   H5        1.0  0.52260  0.41480  0.57780  1.0000 0.1196333158
H   H6        1.0  0.51630  0.93010  0.66860  1.0000 0.1196333158
H   H7        1.0  0.40630  0.12610  0.69460  1.0000 0.1196333158
H   H8        1.0  0.05830  0.17050  0.83730  1.0000 0.3633641561
H   H9        1.0  0.80600  0.72980  0.93190  1.0000 0.1328639199
H   H10       1.0  0.60330  0.74040  0.99670  1.0000 0.1196333158
H   H11       1.0  0.33900  0.90650  0.89190  1.0000 0.1196333158
H   H12       1.0  0.34700  0.41470  0.80580  1.0000 0.1196333158
H   H13       1.0  0.47740  0.91480  0.92220  1.0000 0.1196333158
H   H14       1.0  0.48370  0.43010  0.83140  1.0000 0.1196333158
H   H15       1.0  0.59370  0.62610  0.80540  1.0000 0.1196333158
H   H16       1.0  0.94170  0.67050  0.66270  1.0000 0.3633641561
H   H17       1.0  0.80600  0.77020  0.43190  1.0000 0.1328639199
H   H18       1.0  0.60330  0.75960  0.49670  1.0000 0.1196333158
H   H19       1.0  0.33900  0.59350  0.39190  1.0000 0.1196333158
H   H20       1.0  0.34700  0.08530  0.30580  1.0000 0.1196333158
H   H21       1.0  0.47740  0.58520  0.42220  1.0000 0.1196333158
H   H22       1.0  0.48370  0.06990  0.33140  1.0000 0.1196333158
H   H23       1.0  0.59370  0.87390  0.30540  1.0000 0.1196333158
H   H24       1.0  0.94170  0.82950  0.16270  1.0000 0.3633641561
H   H25       1.0  0.19400  0.27020  0.06810  1.0000 0.1328639199
H   H26       1.0  0.39670  0.25960  0.00330  1.0000 0.1196333158
H   H27       1.0  0.66100  0.09350  0.10810  1.0000 0.1196333158
H   H28       1.0  0.65300  0.58530  0.19420  1.0000 0.1196333158
H   H29       1.0  0.52260  0.08520  0.07780  1.0000 0.1196333158
H   H30       1.0  0.51630  0.56990  0.16860  1.0000 0.1196333158
H   H31       1.0  0.40630  0.37390  0.19460  1.0000 0.1196333158
H   H32       1.0  0.05830  0.32950  0.33730  1.0000 0.3633641561
C   C1        1.0  0.24913  0.21650  0.57674  1.0000 -0.10112627
C   C2        1.0  0.75918  0.15370  0.67668  1.0000 0.2699626645
C   C3        1.0  0.50515  0.17360  0.61985  1.0000 0.0751179939
C   C4        1.0  0.37121  0.22420  0.53777  1.0000 -0.1627220514
C   C5        1.0  0.63223  0.30990  0.61984  1.0000 -0.10112627
C   C6        1.0  0.25380  0.15470  0.69675  1.0000 0.5383053457
C   C7        1.0  0.28814  0.24080  0.52359  1.0000 -0.0009817781
C   C8        1.0  0.29331  0.17390  0.63988  1.0000 -0.0058833111
C   C9        1.0  0.24042  0.28320  0.45294  1.0000 0.5383053457
C   C10       1.0  0.41645  0.18380  0.60303  1.0000 0.055940747
C   C11       1.0  0.62710  0.01720  0.67176  1.0000 -0.10112627
C   C12       1.0  0.67253  0.16040  0.65526  1.0000 0.0349238177
C   C13       1.0  0.54897  0.31520  0.60198  1.0000 -0.1464417591
C   C14       1.0  0.54516  0.02480  0.65560  1.0000 -0.1464417591
C   C15       1.0  0.37671  0.15720  0.65137  1.0000 -0.1464417591
C   C16       1.0  0.75087  0.71650  0.92326  1.0000 -0.10112627
C   C17       1.0  0.24082  0.65370  0.82332  1.0000 0.2699626645
C   C18       1.0  0.49485  0.67360  0.88015  1.0000 0.0751179939
C   C19       1.0  0.62879  0.72420  0.96223  1.0000 -0.1627220514
C   C20       1.0  0.36777  0.80990  0.88016  1.0000 -0.10112627
C   C21       1.0  0.74620  0.65470  0.80325  1.0000 0.5383053457
C   C22       1.0  0.71186  0.74080  0.97641  1.0000 -0.0009817781
C   C23       1.0  0.70669  0.67390  0.86012  1.0000 -0.0058833111
C   C24       1.0  0.75958  0.78320  0.04706  1.0000 0.5383053457
C   C25       1.0  0.58355  0.68380  0.89697  1.0000 0.055940747
C   C26       1.0  0.37290  0.51720  0.82824  1.0000 -0.10112627
C   C27       1.0  0.32747  0.66040  0.84474  1.0000 0.0349238177
C   C28       1.0  0.45103  0.81520  0.89802  1.0000 -0.1464417591
C   C29       1.0  0.45484  0.52480  0.84440  1.0000 -0.1464417591
C   C30       1.0  0.62329  0.65720  0.84863  1.0000 -0.1464417591
C   C31       1.0  0.75087  0.78350  0.42326  1.0000 -0.10112627
C   C32       1.0  0.24082  0.84630  0.32332  1.0000 0.2699626645
C   C33       1.0  0.49485  0.82640  0.38015  1.0000 0.0751179939
C   C34       1.0  0.62879  0.77580  0.46223  1.0000 -0.1627220514
C   C35       1.0  0.36777  0.69010  0.38016  1.0000 -0.10112627
C   C36       1.0  0.74620  0.84530  0.30325  1.0000 0.5383053457
C   C37       1.0  0.71186  0.75920  0.47641  1.0000 -0.0009817781
C   C38       1.0  0.70669  0.82610  0.36012  1.0000 -0.0058833111
C   C39       1.0  0.75958  0.71680  0.54706  1.0000 0.5383053457
C   C40       1.0  0.58355  0.81620  0.39697  1.0000 0.055940747
C   C41       1.0  0.37290  0.98280  0.32824  1.0000 -0.10112627
C   C42       1.0  0.32747  0.83960  0.34474  1.0000 0.0349238177
C   C43       1.0  0.45103  0.68480  0.39802  1.0000 -0.1464417591
C   C44       1.0  0.45484  0.97520  0.34440  1.0000 -0.1464417591
C   C45       1.0  0.62329  0.84280  0.34863  1.0000 -0.1464417591
C   C46       1.0  0.24913  0.28350  0.07674  1.0000 -0.10112627
C   C47       1.0  0.75918  0.34630  0.17668  1.0000 0.2699626645
C   C48       1.0  0.50515  0.32640  0.11985  1.0000 0.0751179939
C   C49       1.0  0.37121  0.27580  0.03777  1.0000 -0.1627220514
C   C50       1.0  0.63223  0.19010  0.11984  1.0000 -0.10112627
C   C51       1.0  0.25380  0.34530  0.19675  1.0000 0.5383053457
C   C52       1.0  0.28814  0.25920  0.02359  1.0000 -0.0009817781
C   C53       1.0  0.29331  0.32610  0.13988  1.0000 -0.0058833111
C   C54       1.0  0.24042  0.21680  0.95294  1.0000 0.5383053457
C   C55       1.0  0.41645  0.31620  0.10303  1.0000 0.055940747
C   C56       1.0  0.62710  0.48280  0.17176  1.0000 -0.10112627
C   C57       1.0  0.67253  0.33960  0.15526  1.0000 0.0349238177
C   C58       1.0  0.54897  0.18480  0.10198  1.0000 -0.1464417591
C   C59       1.0  0.54516  0.47520  0.15560  1.0000 -0.1464417591
C   C60       1.0  0.37671  0.34280  0.15137  1.0000 -0.1464417591
N   N1        1.0  0.80590  0.31000  0.68300  1.0000 -0.2491148154
N   N2        1.0  0.80390  0.00410  0.69330  1.0000 -0.2440987679
N   N3        1.0  0.87947  0.06820  0.71093  1.0000 -0.05655525
N   N4        1.0  0.88053  0.24290  0.70681  1.0000 -0.0351228865
N   N5        1.0  0.19410  0.81000  0.81700  1.0000 -0.2491148154
N   N6        1.0  0.19610  0.50410  0.80670  1.0000 -0.2440987679
N   N7        1.0  0.12053  0.56820  0.78907  1.0000 -0.05655525
N   N8        1.0  0.11947  0.74290  0.79319  1.0000 -0.0331648237
N   N9        1.0  0.19410  0.69000  0.31700  1.0000 -0.2491148154
N   N10       1.0  0.19610  0.99590  0.30670  1.0000 -0.2440987679
N   N11       1.0  0.12053  0.93180  0.28907  1.0000 -0.05655525
N   N12       1.0  0.11947  0.75710  0.29319  1.0000 -0.0331648237
N   N13       1.0  0.80590  0.19000  0.18300  1.0000 -0.2491148154
N   N14       1.0  0.80390  0.49590  0.19330  1.0000 -0.2440987679
N   N15       1.0  0.87947  0.43180  0.21093  1.0000 -0.05655525
N   N16       1.0  0.88053  0.25710  0.20681  1.0000 -0.0331648237
O   O1        1.0  0.06780  0.15680  0.79580  1.0000 -0.8064224909
O   O2        1.0  0.18050  0.17090  0.68440  1.0000 -0.539719526
O   O3        1.0  0.29680  0.12510  0.75500  1.0000 -0.5504989664
O   O4        1.0  0.28130  0.31280  0.41060  1.0000 -0.5504989664
O   O5        1.0  0.16830  0.28800  0.43810  1.0000 -0.5194490145
O   O6        1.0  0.93220  0.65680  0.70420  1.0000 -0.8064224909
O   O7        1.0  0.81950  0.67090  0.81560  1.0000 -0.539719526
O   O8        1.0  0.70320  0.62510  0.74500  1.0000 -0.5504989664
O   O9        1.0  0.71870  0.81280  0.08940  1.0000 -0.5504989664
O   O10       1.0  0.83170  0.78800  0.06190  1.0000 -0.5194490145
O   O11       1.0  0.93220  0.84320  0.20420  1.0000 -0.8064224909
O   O12       1.0  0.81950  0.82910  0.31560  1.0000 -0.539719526
O   O13       1.0  0.70320  0.87490  0.24500  1.0000 -0.5504989664
O   O14       1.0  0.71870  0.68720  0.58940  1.0000 -0.5504989664
O   O15       1.0  0.83170  0.71200  0.56190  1.0000 -0.5194490145
O   O16       1.0  0.06780  0.34320  0.29580  1.0000 -0.8064224909
O   O17       1.0  0.18050  0.32910  0.18440  1.0000 -0.539719526
O   O18       1.0  0.29680  0.37490  0.25500  1.0000 -0.5504989664
O   O19       1.0  0.28130  0.18720  0.91060  1.0000 -0.5504989664
O   O20       1.0  0.16830  0.21200  0.93810  1.0000 -0.5194490145
