# DDEC6 charges by PACMAN v1.1 (https://github.com/mtap-research/PACMAN-charge/)
data_2019[CrZr][csq]3[ASR]1
_chemical_formula_sum              "Zr18 Cr12 H132 C264 Cl12 O84"
_cell_length_a       39.1
_cell_length_b       39.1
_cell_length_c       16.7147
_cell_angle_alpha    90
_cell_angle_beta     90
_cell_angle_gamma    120

_symmetry_space_group_name_H-M    "P 1"
_symmetry_Int_Tables_number       1

loop_
  _symmetry_equiv_pos_as_xyz
  'x, y, z'

loop_
  _atom_site_type_symbol
  _atom_site_label
  _atom_site_symmetry_multiplicity
  _atom_site_fract_x
  _atom_site_fract_y
  _atom_site_fract_z
  _atom_site_occupancy
  _atom_site_charge
Zr  Zr1       1.0  0.53589  0.07178  0.00000  1.0000 2.4433187108
Zr  Zr2       1.0  0.46411  0.53589  0.00000  1.0000 2.4433187108
Zr  Zr3       1.0  0.92822  0.46411  0.00000  1.0000 2.4453053574
Zr  Zr4       1.0  0.46411  0.92822  0.00000  1.0000 2.4433187108
Zr  Zr5       1.0  0.53589  0.46411  0.00000  1.0000 2.4433187108
Zr  Zr6       1.0  0.07178  0.53589  0.00000  1.0000 2.4433187108
Zr  Zr7       1.0  0.45473  0.00000  0.10523  1.0000 2.3494963944
Zr  Zr8       1.0  0.45473  0.45473  0.10523  1.0000 2.3494963944
Zr  Zr9       1.0  0.00000  0.45473  0.10523  1.0000 2.3494963944
Zr  Zr10      1.0  0.54527  0.00000  0.10523  1.0000 2.3494963944
Zr  Zr11      1.0  0.54527  0.54527  0.10523  1.0000 2.3494963944
Zr  Zr12      1.0  1.00000  0.54527  0.10523  1.0000 2.3494963944
Zr  Zr13      1.0  0.45473  0.00000  0.89477  1.0000 2.3494963944
Zr  Zr14      1.0  0.54527  0.54527  0.89477  1.0000 2.3494963944
Zr  Zr15      1.0  0.00000  0.45473  0.89477  1.0000 2.3494963944
Zr  Zr16      1.0  1.00000  0.54527  0.89477  1.0000 2.3494963944
Zr  Zr17      1.0  0.54527  0.00000  0.89477  1.0000 2.3494963944
Zr  Zr18      1.0  0.45473  0.45473  0.89477  1.0000 2.3494963944
Cr  Cr1       1.0  0.37880  0.96390  0.00000  1.0000 0.8609569272
Cr  Cr2       1.0  0.41490  0.37880  0.00000  1.0000 0.8609569272
Cr  Cr3       1.0  0.03610  0.41490  0.00000  1.0000 0.8609569272
Cr  Cr4       1.0  0.62120  0.03610  0.00000  1.0000 0.8609569272
Cr  Cr5       1.0  0.58510  0.62120  0.00000  1.0000 0.8609569272
Cr  Cr6       1.0  0.96390  0.58510  0.00000  1.0000 0.8609569272
Cr  Cr7       1.0  0.41490  0.03610  0.00000  1.0000 0.8609569272
Cr  Cr8       1.0  0.62120  0.58510  0.00000  1.0000 0.8609569272
Cr  Cr9       1.0  0.96390  0.37880  0.00000  1.0000 0.8609569272
Cr  Cr10      1.0  0.03610  0.62120  0.00000  1.0000 0.8609569272
Cr  Cr11      1.0  0.58510  0.96390  0.00000  1.0000 0.8609569272
Cr  Cr12      1.0  0.37880  0.41490  0.00000  1.0000 0.8609569272
H   H1        1.0  0.25113  0.74887  0.23479  1.0000 0.1229004466
H   H2        1.0  0.50227  0.25113  0.23479  1.0000 0.1229004466
H   H3        1.0  0.25113  0.50227  0.23479  1.0000 0.1229004466
H   H4        1.0  0.74887  0.25113  0.23479  1.0000 0.1229004466
H   H5        1.0  0.49773  0.74887  0.23479  1.0000 0.1229004466
H   H6        1.0  0.74887  0.49773  0.23479  1.0000 0.1229004466
H   H7        1.0  0.50227  0.25113  0.76521  1.0000 0.1229004466
H   H8        1.0  0.74887  0.49773  0.76521  1.0000 0.1229004466
H   H9        1.0  0.74887  0.25113  0.76521  1.0000 0.1229004466
H   H10       1.0  0.25113  0.74887  0.76521  1.0000 0.1229004466
H   H11       1.0  0.49773  0.74887  0.76521  1.0000 0.1229004466
H   H12       1.0  0.25113  0.50227  0.76521  1.0000 0.1229004466
H   H13       1.0  0.33350  0.83073  0.43151  1.0000 0.1229004466
H   H14       1.0  0.50277  0.33350  0.43151  1.0000 0.1229004466
H   H15       1.0  0.16927  0.50277  0.43151  1.0000 0.1229004466
H   H16       1.0  0.66650  0.16927  0.43151  1.0000 0.1229004466
H   H17       1.0  0.49723  0.66650  0.43151  1.0000 0.1229004466
H   H18       1.0  0.83073  0.49723  0.43151  1.0000 0.1229004466
H   H19       1.0  0.50277  0.16927  0.56849  1.0000 0.1229004466
H   H20       1.0  0.66650  0.49723  0.56849  1.0000 0.1229004466
H   H21       1.0  0.83073  0.33350  0.56849  1.0000 0.1229004466
H   H22       1.0  0.16927  0.66650  0.56849  1.0000 0.1229004466
H   H23       1.0  0.49723  0.83073  0.56849  1.0000 0.1229004466
H   H24       1.0  0.33350  0.50277  0.56849  1.0000 0.1229004466
H   H25       1.0  0.66650  0.16927  0.56849  1.0000 0.1229004466
H   H26       1.0  0.49723  0.66650  0.56849  1.0000 0.1229004466
H   H27       1.0  0.83073  0.49723  0.56849  1.0000 0.1229004466
H   H28       1.0  0.33350  0.83073  0.56849  1.0000 0.1229004466
H   H29       1.0  0.50277  0.33350  0.56849  1.0000 0.1229004466
H   H30       1.0  0.16927  0.50277  0.56849  1.0000 0.1229004466
H   H31       1.0  0.49723  0.83073  0.43151  1.0000 0.1229004466
H   H32       1.0  0.33350  0.50277  0.43151  1.0000 0.1229004466
H   H33       1.0  0.16927  0.66650  0.43151  1.0000 0.1229004466
H   H34       1.0  0.83073  0.33350  0.43151  1.0000 0.1229004466
H   H35       1.0  0.50277  0.16927  0.43151  1.0000 0.1229004466
H   H36       1.0  0.66650  0.49723  0.43151  1.0000 0.1229004466
H   H37       1.0  0.35900  0.90861  0.25267  1.0000 0.1283521699
H   H38       1.0  0.45039  0.35900  0.25267  1.0000 0.1283521699
H   H39       1.0  0.09139  0.45039  0.25267  1.0000 0.1283521699
H   H40       1.0  0.64100  0.09139  0.25267  1.0000 0.1283521699
H   H41       1.0  0.54961  0.64100  0.25267  1.0000 0.1283521699
H   H42       1.0  0.90861  0.54961  0.25267  1.0000 0.1283521699
H   H43       1.0  0.45039  0.09139  0.74733  1.0000 0.1283521699
H   H44       1.0  0.64100  0.54961  0.74733  1.0000 0.1283521699
H   H45       1.0  0.90861  0.35900  0.74733  1.0000 0.1283521699
H   H46       1.0  0.09139  0.64100  0.74733  1.0000 0.1283521699
H   H47       1.0  0.54961  0.90861  0.74733  1.0000 0.1283521699
H   H48       1.0  0.35900  0.45039  0.74733  1.0000 0.1283521699
H   H49       1.0  0.64100  0.09139  0.74733  1.0000 0.1283521699
H   H50       1.0  0.54961  0.64100  0.74733  1.0000 0.1283521699
H   H51       1.0  0.90861  0.54961  0.74733  1.0000 0.1283521699
H   H52       1.0  0.35900  0.90861  0.74733  1.0000 0.1283521699
H   H53       1.0  0.45039  0.35900  0.74733  1.0000 0.1283521699
H   H54       1.0  0.09139  0.45039  0.74733  1.0000 0.1283521699
H   H55       1.0  0.54961  0.90861  0.25267  1.0000 0.1283521699
H   H56       1.0  0.35900  0.45039  0.25267  1.0000 0.1283521699
H   H57       1.0  0.09139  0.64100  0.25267  1.0000 0.1283521699
H   H58       1.0  0.90861  0.35900  0.25267  1.0000 0.1283521699
H   H59       1.0  0.45039  0.09139  0.25267  1.0000 0.1283521699
H   H60       1.0  0.64100  0.54961  0.25267  1.0000 0.1283521699
H   H61       1.0  0.31001  0.85932  0.33152  1.0000 0.1283521699
H   H62       1.0  0.45069  0.31001  0.33152  1.0000 0.1283521699
H   H63       1.0  0.14068  0.45069  0.33152  1.0000 0.1283521699
H   H64       1.0  0.68999  0.14068  0.33152  1.0000 0.1283521699
H   H65       1.0  0.54931  0.68999  0.33152  1.0000 0.1283521699
H   H66       1.0  0.85932  0.54931  0.33152  1.0000 0.1283521699
H   H67       1.0  0.45069  0.14068  0.66848  1.0000 0.1283521699
H   H68       1.0  0.68999  0.54931  0.66848  1.0000 0.1283521699
H   H69       1.0  0.85932  0.31001  0.66848  1.0000 0.1283521699
H   H70       1.0  0.14068  0.68999  0.66848  1.0000 0.1283521699
H   H71       1.0  0.54931  0.85932  0.66848  1.0000 0.1283521699
H   H72       1.0  0.31001  0.45069  0.66848  1.0000 0.1283521699
H   H73       1.0  0.68999  0.14068  0.66848  1.0000 0.1283521699
H   H74       1.0  0.54931  0.68999  0.66848  1.0000 0.1283521699
H   H75       1.0  0.85932  0.54931  0.66848  1.0000 0.1283521699
H   H76       1.0  0.31001  0.85932  0.66848  1.0000 0.1283521699
H   H77       1.0  0.45069  0.31001  0.66848  1.0000 0.1283521699
H   H78       1.0  0.14068  0.45069  0.66848  1.0000 0.1283521699
H   H79       1.0  0.54931  0.85932  0.33152  1.0000 0.1283521699
H   H80       1.0  0.31001  0.45069  0.33152  1.0000 0.1283521699
H   H81       1.0  0.14068  0.68999  0.33152  1.0000 0.1283521699
H   H82       1.0  0.85932  0.31001  0.33152  1.0000 0.1283521699
H   H83       1.0  0.45069  0.14068  0.33152  1.0000 0.1283521699
H   H84       1.0  0.68999  0.54931  0.33152  1.0000 0.1283521699
H   H85       1.0  0.32432  0.77712  0.21423  1.0000 0.1229004466
H   H86       1.0  0.54720  0.32432  0.21423  1.0000 0.1229004466
H   H87       1.0  0.22288  0.54720  0.21423  1.0000 0.1229004466
H   H88       1.0  0.67568  0.22288  0.21423  1.0000 0.1229004466
H   H89       1.0  0.45280  0.67568  0.21423  1.0000 0.1229004466
H   H90       1.0  0.77712  0.45280  0.21423  1.0000 0.1229004466
H   H91       1.0  0.54720  0.22288  0.78577  1.0000 0.1229004466
H   H92       1.0  0.67568  0.45280  0.78577  1.0000 0.1229004466
H   H93       1.0  0.77712  0.32432  0.78577  1.0000 0.1229004466
H   H94       1.0  0.22288  0.67568  0.78577  1.0000 0.1229004466
H   H95       1.0  0.45280  0.77712  0.78577  1.0000 0.1229004466
H   H96       1.0  0.32432  0.54720  0.78577  1.0000 0.1229004466
H   H97       1.0  0.67568  0.22288  0.78577  1.0000 0.1229004466
H   H98       1.0  0.45280  0.67568  0.78577  1.0000 0.1229004466
H   H99       1.0  0.77712  0.45280  0.78577  1.0000 0.1229004466
H   H100      1.0  0.32432  0.77712  0.78577  1.0000 0.1229004466
H   H101      1.0  0.54720  0.32432  0.78577  1.0000 0.1229004466
H   H102      1.0  0.22288  0.54720  0.78577  1.0000 0.1229004466
H   H103      1.0  0.45280  0.77712  0.21423  1.0000 0.1229004466
H   H104      1.0  0.32432  0.54720  0.21423  1.0000 0.1229004466
H   H105      1.0  0.22288  0.67568  0.21423  1.0000 0.1229004466
H   H106      1.0  0.77712  0.32432  0.21423  1.0000 0.1229004466
H   H107      1.0  0.54720  0.22288  0.21423  1.0000 0.1229004466
H   H108      1.0  0.67568  0.45280  0.21423  1.0000 0.1229004466
H   H109      1.0  0.37331  0.82641  0.13538  1.0000 0.1283521699
H   H110      1.0  0.54690  0.37331  0.13538  1.0000 0.1354158024
H   H111      1.0  0.17359  0.54690  0.13538  1.0000 0.1354158024
H   H112      1.0  0.62669  0.17359  0.13538  1.0000 0.1354158024
H   H113      1.0  0.45310  0.62669  0.13538  1.0000 0.1354158024
H   H114      1.0  0.82641  0.45310  0.13538  1.0000 0.1354158024
H   H115      1.0  0.54690  0.17359  0.86462  1.0000 0.1283521699
H   H116      1.0  0.62669  0.45310  0.86462  1.0000 0.1283521699
H   H117      1.0  0.82641  0.37331  0.86462  1.0000 0.1283521699
H   H118      1.0  0.17359  0.62669  0.86462  1.0000 0.1354158024
H   H119      1.0  0.45310  0.82641  0.86462  1.0000 0.1283521699
H   H120      1.0  0.37331  0.54690  0.86462  1.0000 0.1354158024
H   H121      1.0  0.62669  0.17359  0.86462  1.0000 0.1283521699
H   H122      1.0  0.45310  0.62669  0.86462  1.0000 0.1354158024
H   H123      1.0  0.82641  0.45310  0.86462  1.0000 0.1283521699
H   H124      1.0  0.37331  0.82641  0.86462  1.0000 0.1283521699
H   H125      1.0  0.54690  0.37331  0.86462  1.0000 0.1354158024
H   H126      1.0  0.17359  0.54690  0.86462  1.0000 0.1283521699
H   H127      1.0  0.45310  0.82641  0.13538  1.0000 0.1283521699
H   H128      1.0  0.37331  0.54690  0.13538  1.0000 0.1354158024
H   H129      1.0  0.17359  0.62669  0.13538  1.0000 0.1354158024
H   H130      1.0  0.82641  0.37331  0.13538  1.0000 0.1354158024
H   H131      1.0  0.54690  0.17359  0.13538  1.0000 0.1354158024
H   H132      1.0  0.62669  0.45310  0.13538  1.0000 0.1354158024
C   C1        1.0  0.28230  0.78010  0.41530  1.0000 0.0406890512
C   C2        1.0  0.50220  0.28230  0.41530  1.0000 0.0406890512
C   C3        1.0  0.21990  0.50220  0.41530  1.0000 0.0406890512
C   C4        1.0  0.71770  0.21990  0.41530  1.0000 0.0406890512
C   C5        1.0  0.49780  0.71770  0.41530  1.0000 0.0406890512
C   C6        1.0  0.78010  0.49780  0.41530  1.0000 0.0406890512
C   C7        1.0  0.50220  0.21990  0.58470  1.0000 0.0406890512
C   C8        1.0  0.71770  0.49780  0.58470  1.0000 0.0406890512
C   C9        1.0  0.78010  0.28230  0.58470  1.0000 0.0406890512
C   C10       1.0  0.21990  0.71770  0.58470  1.0000 0.0406890512
C   C11       1.0  0.49780  0.78010  0.58470  1.0000 0.0406890512
C   C12       1.0  0.28230  0.50220  0.58470  1.0000 0.0406890512
C   C13       1.0  0.71770  0.21990  0.58470  1.0000 0.0406890512
C   C14       1.0  0.49780  0.71770  0.58470  1.0000 0.0406890512
C   C15       1.0  0.78010  0.49780  0.58470  1.0000 0.0406890512
C   C16       1.0  0.28230  0.78010  0.58470  1.0000 0.0406890512
C   C17       1.0  0.50220  0.28230  0.58470  1.0000 0.0406890512
C   C18       1.0  0.21990  0.50220  0.58470  1.0000 0.0406890512
C   C19       1.0  0.49780  0.78010  0.41530  1.0000 0.0406890512
C   C20       1.0  0.28230  0.50220  0.41530  1.0000 0.0406890512
C   C21       1.0  0.21990  0.71770  0.41530  1.0000 0.0406890512
C   C22       1.0  0.78010  0.28230  0.41530  1.0000 0.0406890512
C   C23       1.0  0.50220  0.21990  0.41530  1.0000 0.0406890512
C   C24       1.0  0.71770  0.49780  0.41530  1.0000 0.0406890512
C   C25       1.0  0.28090  0.77870  0.32820  1.0000 0.0234783963
C   C26       1.0  0.50220  0.28090  0.32820  1.0000 0.0234783963
C   C27       1.0  0.22130  0.50220  0.32820  1.0000 0.0234783963
C   C28       1.0  0.71910  0.22130  0.32820  1.0000 0.0234783963
C   C29       1.0  0.49780  0.71910  0.32820  1.0000 0.0234783963
C   C30       1.0  0.77870  0.49780  0.32820  1.0000 0.0234783963
C   C31       1.0  0.50220  0.22130  0.67180  1.0000 0.0234783963
C   C32       1.0  0.71910  0.49780  0.67180  1.0000 0.0234783963
C   C33       1.0  0.77870  0.28090  0.67180  1.0000 0.0234783963
C   C34       1.0  0.22130  0.71910  0.67180  1.0000 0.0234783963
C   C35       1.0  0.49780  0.77870  0.67180  1.0000 0.0234783963
C   C36       1.0  0.28090  0.50220  0.67180  1.0000 0.0234783963
C   C37       1.0  0.71910  0.22130  0.67180  1.0000 0.0234783963
C   C38       1.0  0.49780  0.71910  0.67180  1.0000 0.0234783963
C   C39       1.0  0.77870  0.49780  0.67180  1.0000 0.0234783963
C   C40       1.0  0.28090  0.77870  0.67180  1.0000 0.0234783963
C   C41       1.0  0.50220  0.28090  0.67180  1.0000 0.0234783963
C   C42       1.0  0.22130  0.50220  0.67180  1.0000 0.0234783963
C   C43       1.0  0.49780  0.77870  0.32820  1.0000 0.0234783963
C   C44       1.0  0.28090  0.50220  0.32820  1.0000 0.0234783963
C   C45       1.0  0.22130  0.71910  0.32820  1.0000 0.0234783963
C   C46       1.0  0.77870  0.28090  0.32820  1.0000 0.0234783963
C   C47       1.0  0.50220  0.22130  0.32820  1.0000 0.0234783963
C   C48       1.0  0.71910  0.49780  0.32820  1.0000 0.0234783963
C   C49       1.0  0.25110  0.74890  0.29100  1.0000 -0.1392651697
C   C50       1.0  0.50220  0.25110  0.29100  1.0000 -0.1392651697
C   C51       1.0  0.25110  0.50220  0.29100  1.0000 -0.1392651697
C   C52       1.0  0.74890  0.25110  0.29100  1.0000 -0.1392651697
C   C53       1.0  0.49780  0.74890  0.29100  1.0000 -0.1392651697
C   C54       1.0  0.74890  0.49780  0.29100  1.0000 -0.1392651697
C   C55       1.0  0.50220  0.25110  0.70900  1.0000 -0.1392651697
C   C56       1.0  0.74890  0.49780  0.70900  1.0000 -0.1392651697
C   C57       1.0  0.74890  0.25110  0.70900  1.0000 -0.1392651697
C   C58       1.0  0.25110  0.74890  0.70900  1.0000 -0.1392651697
C   C59       1.0  0.49780  0.74890  0.70900  1.0000 -0.1392651697
C   C60       1.0  0.25110  0.50220  0.70900  1.0000 -0.1392651697
C   C61       1.0  0.31240  0.80980  0.45880  1.0000 -0.1536910483
C   C62       1.0  0.50260  0.31240  0.45880  1.0000 -0.1536910483
C   C63       1.0  0.19020  0.50260  0.45880  1.0000 -0.1536910483
C   C64       1.0  0.68760  0.19020  0.45880  1.0000 -0.1536910483
C   C65       1.0  0.49740  0.68760  0.45880  1.0000 -0.1536910483
C   C66       1.0  0.80980  0.49740  0.45880  1.0000 -0.1536910483
C   C67       1.0  0.50260  0.19020  0.54120  1.0000 -0.1536910483
C   C68       1.0  0.68760  0.49740  0.54120  1.0000 -0.1536910483
C   C69       1.0  0.80980  0.31240  0.54120  1.0000 -0.1536910483
C   C70       1.0  0.19020  0.68760  0.54120  1.0000 -0.1536910483
C   C71       1.0  0.49740  0.80980  0.54120  1.0000 -0.1536910483
C   C72       1.0  0.31240  0.50260  0.54120  1.0000 -0.1536910483
C   C73       1.0  0.68760  0.19020  0.54120  1.0000 -0.1536910483
C   C74       1.0  0.49740  0.68760  0.54120  1.0000 -0.1536910483
C   C75       1.0  0.80980  0.49740  0.54120  1.0000 -0.1536910483
C   C76       1.0  0.31240  0.80980  0.54120  1.0000 -0.1536910483
C   C77       1.0  0.50260  0.31240  0.54120  1.0000 -0.1536910483
C   C78       1.0  0.19020  0.50260  0.54120  1.0000 -0.1536910483
C   C79       1.0  0.49740  0.80980  0.45880  1.0000 -0.1536910483
C   C80       1.0  0.31240  0.50260  0.45880  1.0000 -0.1536910483
C   C81       1.0  0.19020  0.68760  0.45880  1.0000 -0.1536910483
C   C82       1.0  0.80980  0.31240  0.45880  1.0000 -0.1536910483
C   C83       1.0  0.50260  0.19020  0.45880  1.0000 -0.1536910483
C   C84       1.0  0.68760  0.49740  0.45880  1.0000 -0.1536910483
C   C85       1.0  0.39240  0.90750  0.13370  1.0000 0.6326076538
C   C86       1.0  0.48490  0.39240  0.13370  1.0000 0.6326076538
C   C87       1.0  0.09250  0.48490  0.13370  1.0000 0.6326076538
C   C88       1.0  0.60760  0.09250  0.13370  1.0000 0.6326076538
C   C89       1.0  0.51510  0.60760  0.13370  1.0000 0.6326076538
C   C90       1.0  0.90750  0.51510  0.13370  1.0000 0.6326076538
C   C91       1.0  0.48490  0.09250  0.86630  1.0000 0.6326076538
C   C92       1.0  0.60760  0.51510  0.86630  1.0000 0.6326076538
C   C93       1.0  0.90750  0.39240  0.86630  1.0000 0.6326076538
C   C94       1.0  0.09250  0.60760  0.86630  1.0000 0.6326076538
C   C95       1.0  0.51510  0.90750  0.86630  1.0000 0.6326076538
C   C96       1.0  0.39240  0.48490  0.86630  1.0000 0.6326076538
C   C97       1.0  0.60760  0.09250  0.86630  1.0000 0.6326076538
C   C98       1.0  0.51510  0.60760  0.86630  1.0000 0.6326076538
C   C99       1.0  0.90750  0.51510  0.86630  1.0000 0.6326076538
C   C100      1.0  0.39240  0.90750  0.86630  1.0000 0.6326076538
C   C101      1.0  0.48490  0.39240  0.86630  1.0000 0.6326076538
C   C102      1.0  0.09250  0.48490  0.86630  1.0000 0.6326076538
C   C103      1.0  0.51510  0.90750  0.13370  1.0000 0.6326076538
C   C104      1.0  0.39240  0.48490  0.13370  1.0000 0.6326076538
C   C105      1.0  0.09250  0.60760  0.13370  1.0000 0.6326076538
C   C106      1.0  0.90750  0.39240  0.13370  1.0000 0.6326076538
C   C107      1.0  0.48490  0.09250  0.13370  1.0000 0.6326076538
C   C108      1.0  0.60760  0.51510  0.13370  1.0000 0.6326076538
C   C109      1.0  0.35200  0.88210  0.24490  1.0000 -0.0787815988
C   C110      1.0  0.46990  0.35200  0.24490  1.0000 -0.0787815988
C   C111      1.0  0.11790  0.46990  0.24490  1.0000 -0.0787815988
C   C112      1.0  0.64800  0.11790  0.24490  1.0000 -0.0787815988
C   C113      1.0  0.53010  0.64800  0.24490  1.0000 -0.0787815988
C   C114      1.0  0.88210  0.53010  0.24490  1.0000 -0.0787815988
C   C115      1.0  0.46990  0.11790  0.75510  1.0000 -0.0787815988
C   C116      1.0  0.64800  0.53010  0.75510  1.0000 -0.0787815988
C   C117      1.0  0.88210  0.35200  0.75510  1.0000 -0.0787815988
C   C118      1.0  0.11790  0.64800  0.75510  1.0000 -0.0787815988
C   C119      1.0  0.53010  0.88210  0.75510  1.0000 -0.0787815988
C   C120      1.0  0.35200  0.46990  0.75510  1.0000 -0.0787815988
C   C121      1.0  0.64800  0.11790  0.75510  1.0000 -0.0787815988
C   C122      1.0  0.53010  0.64800  0.75510  1.0000 -0.0787815988
C   C123      1.0  0.88210  0.53010  0.75510  1.0000 -0.0787815988
C   C124      1.0  0.35200  0.88210  0.75510  1.0000 -0.0787815988
C   C125      1.0  0.46990  0.35200  0.75510  1.0000 -0.0787815988
C   C126      1.0  0.11790  0.46990  0.75510  1.0000 -0.0787815988
C   C127      1.0  0.53010  0.88210  0.24490  1.0000 -0.0787815988
C   C128      1.0  0.35200  0.46990  0.24490  1.0000 -0.0787815988
C   C129      1.0  0.11790  0.64800  0.24490  1.0000 -0.0787815988
C   C130      1.0  0.88210  0.35200  0.24490  1.0000 -0.0787815988
C   C131      1.0  0.46990  0.11790  0.24490  1.0000 -0.0787815988
C   C132      1.0  0.64800  0.53010  0.24490  1.0000 -0.0787815988
C   C133      1.0  0.32280  0.85270  0.29200  1.0000 -0.1655981001
C   C134      1.0  0.47010  0.32280  0.29200  1.0000 -0.1619488492
C   C135      1.0  0.14730  0.47010  0.29200  1.0000 -0.1655981001
C   C136      1.0  0.67720  0.14730  0.29200  1.0000 -0.1655981001
C   C137      1.0  0.52990  0.67720  0.29200  1.0000 -0.1655981001
C   C138      1.0  0.85270  0.52990  0.29200  1.0000 -0.1655981001
C   C139      1.0  0.47010  0.14730  0.70800  1.0000 -0.1619488492
C   C140      1.0  0.67720  0.52990  0.70800  1.0000 -0.1655981001
C   C141      1.0  0.85270  0.32280  0.70800  1.0000 -0.1619488492
C   C142      1.0  0.14730  0.67720  0.70800  1.0000 -0.1655981001
C   C143      1.0  0.52990  0.85270  0.70800  1.0000 -0.1655981001
C   C144      1.0  0.32280  0.47010  0.70800  1.0000 -0.1655981001
C   C145      1.0  0.67720  0.14730  0.70800  1.0000 -0.1655981001
C   C146      1.0  0.52990  0.67720  0.70800  1.0000 -0.1655981001
C   C147      1.0  0.85270  0.52990  0.70800  1.0000 -0.1655981001
C   C148      1.0  0.32280  0.85270  0.70800  1.0000 -0.1655981001
C   C149      1.0  0.47010  0.32280  0.70800  1.0000 -0.1619488492
C   C150      1.0  0.14730  0.47010  0.70800  1.0000 -0.1655981001
C   C151      1.0  0.52990  0.85270  0.29200  1.0000 -0.1655981001
C   C152      1.0  0.32280  0.47010  0.29200  1.0000 -0.1655981001
C   C153      1.0  0.14730  0.67720  0.29200  1.0000 -0.1655981001
C   C154      1.0  0.85270  0.32280  0.29200  1.0000 -0.1619488492
C   C155      1.0  0.47010  0.14730  0.29200  1.0000 -0.1655981001
C   C156      1.0  0.67720  0.52990  0.29200  1.0000 -0.1655981001
C   C157      1.0  0.31240  0.81350  0.28050  1.0000 0.0942974946
C   C158      1.0  0.49890  0.31240  0.28050  1.0000 0.0942974946
C   C159      1.0  0.18650  0.49890  0.28050  1.0000 0.0942974946
C   C160      1.0  0.68760  0.18650  0.28050  1.0000 0.0942974946
C   C161      1.0  0.50110  0.68760  0.28050  1.0000 0.0942974946
C   C162      1.0  0.81350  0.50110  0.28050  1.0000 0.0942974946
C   C163      1.0  0.49890  0.18650  0.71950  1.0000 0.0942974946
C   C164      1.0  0.68760  0.50110  0.71950  1.0000 0.0942974946
C   C165      1.0  0.81350  0.31240  0.71950  1.0000 0.0953474145
C   C166      1.0  0.18650  0.68760  0.71950  1.0000 0.0942974946
C   C167      1.0  0.50110  0.81350  0.71950  1.0000 0.0942974946
C   C168      1.0  0.31240  0.49890  0.71950  1.0000 0.0942974946
C   C169      1.0  0.68760  0.18650  0.71950  1.0000 0.0942974946
C   C170      1.0  0.50110  0.68760  0.71950  1.0000 0.0942974946
C   C171      1.0  0.81350  0.50110  0.71950  1.0000 0.0942974946
C   C172      1.0  0.31240  0.81350  0.71950  1.0000 0.0942974946
C   C173      1.0  0.49890  0.31240  0.71950  1.0000 0.0942974946
C   C174      1.0  0.18650  0.49890  0.71950  1.0000 0.0942974946
C   C175      1.0  0.50110  0.81350  0.28050  1.0000 0.0942974946
C   C176      1.0  0.31240  0.49890  0.28050  1.0000 0.0942974946
C   C177      1.0  0.18650  0.68760  0.28050  1.0000 0.0942974946
C   C178      1.0  0.81350  0.31240  0.28050  1.0000 0.0953474145
C   C179      1.0  0.49890  0.18650  0.28050  1.0000 0.0942974946
C   C180      1.0  0.68760  0.50110  0.28050  1.0000 0.0942974946
C   C181      1.0  0.33130  0.80360  0.22200  1.0000 -0.1619488492
C   C182      1.0  0.52770  0.33130  0.22200  1.0000 -0.1619488492
C   C183      1.0  0.19640  0.52770  0.22200  1.0000 -0.1619488492
C   C184      1.0  0.66870  0.19640  0.22200  1.0000 -0.1619488492
C   C185      1.0  0.47230  0.66870  0.22200  1.0000 -0.1619488492
C   C186      1.0  0.80360  0.47230  0.22200  1.0000 -0.1619488492
C   C187      1.0  0.52770  0.19640  0.77800  1.0000 -0.1619488492
C   C188      1.0  0.66870  0.47230  0.77800  1.0000 -0.1619488492
C   C189      1.0  0.80360  0.33130  0.77800  1.0000 -0.1619488492
C   C190      1.0  0.19640  0.66870  0.77800  1.0000 -0.1619488492
C   C191      1.0  0.47230  0.80360  0.77800  1.0000 -0.1619488492
C   C192      1.0  0.33130  0.52770  0.77800  1.0000 -0.1619488492
C   C193      1.0  0.66870  0.19640  0.77800  1.0000 -0.1619488492
C   C194      1.0  0.47230  0.66870  0.77800  1.0000 -0.1619488492
C   C195      1.0  0.80360  0.47230  0.77800  1.0000 -0.1619488492
C   C196      1.0  0.33130  0.80360  0.77800  1.0000 -0.1619488492
C   C197      1.0  0.52770  0.33130  0.77800  1.0000 -0.1619488492
C   C198      1.0  0.19640  0.52770  0.77800  1.0000 -0.1619488492
C   C199      1.0  0.47230  0.80360  0.22200  1.0000 -0.1619488492
C   C200      1.0  0.33130  0.52770  0.22200  1.0000 -0.1619488492
C   C201      1.0  0.19640  0.66870  0.22200  1.0000 -0.1619488492
C   C202      1.0  0.80360  0.33130  0.22200  1.0000 -0.1619488492
C   C203      1.0  0.52770  0.19640  0.22200  1.0000 -0.1619488492
C   C204      1.0  0.66870  0.47230  0.22200  1.0000 -0.1619488492
C   C205      1.0  0.36050  0.83300  0.17490  1.0000 -0.0787815988
C   C206      1.0  0.52750  0.36050  0.17490  1.0000 -0.0787815988
C   C207      1.0  0.16700  0.52750  0.17490  1.0000 -0.0787815988
C   C208      1.0  0.63950  0.16700  0.17490  1.0000 -0.0787815988
C   C209      1.0  0.47250  0.63950  0.17490  1.0000 -0.0787815988
C   C210      1.0  0.83300  0.47250  0.17490  1.0000 -0.0787815988
C   C211      1.0  0.52750  0.16700  0.82510  1.0000 -0.0787815988
C   C212      1.0  0.63950  0.47250  0.82510  1.0000 -0.0787815988
C   C213      1.0  0.83300  0.36050  0.82510  1.0000 -0.0787815988
C   C214      1.0  0.16700  0.63950  0.82510  1.0000 -0.0787815988
C   C215      1.0  0.47250  0.83300  0.82510  1.0000 -0.0787815988
C   C216      1.0  0.36050  0.52750  0.82510  1.0000 -0.0787815988
C   C217      1.0  0.63950  0.16700  0.82510  1.0000 -0.0787815988
C   C218      1.0  0.47250  0.63950  0.82510  1.0000 -0.0787815988
C   C219      1.0  0.83300  0.47250  0.82510  1.0000 -0.0787815988
C   C220      1.0  0.36050  0.83300  0.82510  1.0000 -0.0787815988
C   C221      1.0  0.52750  0.36050  0.82510  1.0000 -0.0787815988
C   C222      1.0  0.16700  0.52750  0.82510  1.0000 -0.0787815988
C   C223      1.0  0.47250  0.83300  0.17490  1.0000 -0.0787815988
C   C224      1.0  0.36050  0.52750  0.17490  1.0000 -0.0787815988
C   C225      1.0  0.16700  0.63950  0.17490  1.0000 -0.0787815988
C   C226      1.0  0.83300  0.36050  0.17490  1.0000 -0.0787815988
C   C227      1.0  0.52750  0.16700  0.17490  1.0000 -0.0787815988
C   C228      1.0  0.63950  0.47250  0.17490  1.0000 -0.0787815988
C   C229      1.0  0.37090  0.87230  0.18640  1.0000 -0.040660925
C   C230      1.0  0.49860  0.37090  0.18640  1.0000 -0.040660925
C   C231      1.0  0.12770  0.49860  0.18640  1.0000 -0.040660925
C   C232      1.0  0.62910  0.12770  0.18640  1.0000 -0.040660925
C   C233      1.0  0.50140  0.62910  0.18640  1.0000 -0.040660925
C   C234      1.0  0.87230  0.50140  0.18640  1.0000 -0.040660925
C   C235      1.0  0.49860  0.12770  0.81360  1.0000 -0.040660925
C   C236      1.0  0.62910  0.50140  0.81360  1.0000 -0.040660925
C   C237      1.0  0.87230  0.37090  0.81360  1.0000 -0.040660925
C   C238      1.0  0.12770  0.62910  0.81360  1.0000 -0.040660925
C   C239      1.0  0.50140  0.87230  0.81360  1.0000 -0.040660925
C   C240      1.0  0.37090  0.49860  0.81360  1.0000 -0.040660925
C   C241      1.0  0.62910  0.12770  0.81360  1.0000 -0.040660925
C   C242      1.0  0.50140  0.62910  0.81360  1.0000 -0.040660925
C   C243      1.0  0.87230  0.50140  0.81360  1.0000 -0.040660925
C   C244      1.0  0.37090  0.87230  0.81360  1.0000 -0.040660925
C   C245      1.0  0.49860  0.37090  0.81360  1.0000 -0.040660925
C   C246      1.0  0.12770  0.49860  0.81360  1.0000 -0.040660925
C   C247      1.0  0.50140  0.87230  0.18640  1.0000 -0.040660925
C   C248      1.0  0.37090  0.49860  0.18640  1.0000 -0.040660925
C   C249      1.0  0.12770  0.62910  0.18640  1.0000 -0.040660925
C   C250      1.0  0.87230  0.37090  0.18640  1.0000 -0.040660925
C   C251      1.0  0.49860  0.12770  0.18640  1.0000 -0.040660925
C   C252      1.0  0.62910  0.50140  0.18640  1.0000 -0.040660925
C   C253      1.0  0.25080  0.74920  0.45580  1.0000 0.0144869491
C   C254      1.0  0.50160  0.25080  0.45580  1.0000 0.0144869491
C   C255      1.0  0.25080  0.50160  0.45580  1.0000 0.0144869491
C   C256      1.0  0.74920  0.25080  0.45580  1.0000 0.0144869491
C   C257      1.0  0.49840  0.74920  0.45580  1.0000 0.0234783963
C   C258      1.0  0.74920  0.49840  0.45580  1.0000 0.0144869491
C   C259      1.0  0.50160  0.25080  0.54420  1.0000 0.0144869491
C   C260      1.0  0.74920  0.49840  0.54420  1.0000 0.0144869491
C   C261      1.0  0.74920  0.25080  0.54420  1.0000 0.0144869491
C   C262      1.0  0.25080  0.74920  0.54420  1.0000 0.0144869491
C   C263      1.0  0.49840  0.74920  0.54420  1.0000 0.0234783963
C   C264      1.0  0.25080  0.50160  0.54420  1.0000 0.0144869491
Cl  Cl1       1.0  0.32830  0.94800  0.00000  1.0000 -0.1918251899
Cl  Cl2       1.0  0.38030  0.32830  0.00000  1.0000 -0.1918251899
Cl  Cl3       1.0  0.05200  0.38030  0.00000  1.0000 -0.1978199382
Cl  Cl4       1.0  0.67170  0.05200  0.00000  1.0000 -0.1918251899
Cl  Cl5       1.0  0.61970  0.67170  0.00000  1.0000 -0.1978199382
Cl  Cl6       1.0  0.94800  0.61970  0.00000  1.0000 -0.1918251899
Cl  Cl7       1.0  0.38030  0.05200  0.00000  1.0000 -0.1918251899
Cl  Cl8       1.0  0.67170  0.61970  0.00000  1.0000 -0.1918251899
Cl  Cl9       1.0  0.94800  0.32830  0.00000  1.0000 -0.1918251899
Cl  Cl10      1.0  0.05200  0.67170  0.00000  1.0000 -0.1978199382
Cl  Cl11      1.0  0.61970  0.94800  0.00000  1.0000 -0.1918251899
Cl  Cl12      1.0  0.32830  0.38030  0.00000  1.0000 -0.1978199382
O   O1        1.0  0.51925  0.03850  0.10710  1.0000 -1.1010792047
O   O2        1.0  0.48075  0.51925  0.10710  1.0000 -1.1010792047
O   O3        1.0  0.96150  0.48075  0.10710  1.0000 -1.1010792047
O   O4        1.0  0.48075  0.96150  0.10710  1.0000 -1.1010792047
O   O5        1.0  0.51925  0.48075  0.10710  1.0000 -1.105175962
O   O6        1.0  0.03850  0.51925  0.10710  1.0000 -1.1010792047
O   O7        1.0  0.48075  0.96150  0.89290  1.0000 -1.1010792047
O   O8        1.0  0.48075  0.51925  0.89290  1.0000 -1.1010792047
O   O9        1.0  0.03850  0.51925  0.89290  1.0000 -1.1010792047
O   O10       1.0  0.96150  0.48075  0.89290  1.0000 -1.1010792047
O   O11       1.0  0.51925  0.03850  0.89290  1.0000 -1.1010792047
O   O12       1.0  0.51925  0.48075  0.89290  1.0000 -1.1010792047
O   O13       1.0  0.47360  0.03740  0.00000  1.0000 -1.1472766776
O   O14       1.0  0.43620  0.47360  0.00000  1.0000 -1.1437758959
O   O15       1.0  0.96260  0.43620  0.00000  1.0000 -1.1437758959
O   O16       1.0  0.52640  0.96260  0.00000  1.0000 -1.1472766776
O   O17       1.0  0.56380  0.52640  0.00000  1.0000 -1.1437758959
O   O18       1.0  0.03740  0.56380  0.00000  1.0000 -1.1437758959
O   O19       1.0  0.43620  0.96260  0.00000  1.0000 -1.1472766776
O   O20       1.0  0.52640  0.56380  0.00000  1.0000 -1.1472766776
O   O21       1.0  0.03740  0.47360  0.00000  1.0000 -1.1437758959
O   O22       1.0  0.96260  0.52640  0.00000  1.0000 -1.1437758959
O   O23       1.0  0.56380  0.03740  0.00000  1.0000 -1.1472766776
O   O24       1.0  0.47360  0.43620  0.00000  1.0000 -1.1437758959
O   O25       1.0  0.40780  0.94090  0.14990  1.0000 -0.6094404856
O   O26       1.0  0.46690  0.40780  0.14990  1.0000 -0.6094404856
O   O27       1.0  0.05910  0.46690  0.14990  1.0000 -0.6094404856
O   O28       1.0  0.59220  0.05910  0.14990  1.0000 -0.6094404856
O   O29       1.0  0.53310  0.59220  0.14990  1.0000 -0.6094404856
O   O30       1.0  0.94090  0.53310  0.14990  1.0000 -0.6094404856
O   O31       1.0  0.46690  0.05910  0.85010  1.0000 -0.6094404856
O   O32       1.0  0.59220  0.53310  0.85010  1.0000 -0.6094404856
O   O33       1.0  0.94090  0.40780  0.85010  1.0000 -0.6094404856
O   O34       1.0  0.05910  0.59220  0.85010  1.0000 -0.6094404856
O   O35       1.0  0.53310  0.94090  0.85010  1.0000 -0.6094404856
O   O36       1.0  0.40780  0.46690  0.85010  1.0000 -0.6094404856
O   O37       1.0  0.59220  0.05910  0.85010  1.0000 -0.6094404856
O   O38       1.0  0.53310  0.59220  0.85010  1.0000 -0.6094404856
O   O39       1.0  0.94090  0.53310  0.85010  1.0000 -0.6094404856
O   O40       1.0  0.40780  0.94090  0.85010  1.0000 -0.6094404856
O   O41       1.0  0.46690  0.40780  0.85010  1.0000 -0.6094404856
O   O42       1.0  0.05910  0.46690  0.85010  1.0000 -0.6094404856
O   O43       1.0  0.53310  0.94090  0.14990  1.0000 -0.6094404856
O   O44       1.0  0.40780  0.46690  0.14990  1.0000 -0.6094404856
O   O45       1.0  0.05910  0.59220  0.14990  1.0000 -0.6094404856
O   O46       1.0  0.94090  0.40780  0.14990  1.0000 -0.6094404856
O   O47       1.0  0.46690  0.05910  0.14990  1.0000 -0.6094404856
O   O48       1.0  0.59220  0.53310  0.14990  1.0000 -0.6094404856
O   O49       1.0  0.40030  0.00000  0.09190  1.0000 -0.9627391745
O   O50       1.0  0.40030  0.40030  0.09190  1.0000 -0.9627391745
O   O51       1.0  0.00000  0.40030  0.09190  1.0000 -0.9627391745
O   O52       1.0  0.59970  0.00000  0.09190  1.0000 -0.9627391745
O   O53       1.0  0.59970  0.59970  0.09190  1.0000 -0.9627391745
O   O54       1.0  0.00000  0.59970  0.09190  1.0000 -0.9627391745
O   O55       1.0  0.40030  0.00000  0.90810  1.0000 -0.9627391745
O   O56       1.0  0.59970  0.59970  0.90810  1.0000 -0.9627391745
O   O57       1.0  0.00000  0.40030  0.90810  1.0000 -0.9627391745
O   O58       1.0  0.00000  0.59970  0.90810  1.0000 -0.9627391745
O   O59       1.0  0.59970  0.00000  0.90810  1.0000 -0.9627391745
O   O60       1.0  0.40030  0.40030  0.90810  1.0000 -0.9627391745
O   O61       1.0  0.41590  0.89360  0.08000  1.0000 -0.6523362298
O   O62       1.0  0.52230  0.41590  0.08000  1.0000 -0.6523362298
O   O63       1.0  0.10640  0.52230  0.08000  1.0000 -0.6523362298
O   O64       1.0  0.58410  0.10640  0.08000  1.0000 -0.6523362298
O   O65       1.0  0.47770  0.58410  0.08000  1.0000 -0.6523362298
O   O66       1.0  0.89360  0.47770  0.08000  1.0000 -0.6523362298
O   O67       1.0  0.52230  0.10640  0.92000  1.0000 -0.6523362298
O   O68       1.0  0.58410  0.47770  0.92000  1.0000 -0.6523362298
O   O69       1.0  0.89360  0.41590  0.92000  1.0000 -0.6523362298
O   O70       1.0  0.10640  0.58410  0.92000  1.0000 -0.6523362298
O   O71       1.0  0.47770  0.89360  0.92000  1.0000 -0.6523362298
O   O72       1.0  0.41590  0.52230  0.92000  1.0000 -0.6523362298
O   O73       1.0  0.58410  0.10640  0.92000  1.0000 -0.6523362298
O   O74       1.0  0.47770  0.58410  0.92000  1.0000 -0.6523362298
O   O75       1.0  0.89360  0.47770  0.92000  1.0000 -0.6523362298
O   O76       1.0  0.41590  0.89360  0.92000  1.0000 -0.6523362298
O   O77       1.0  0.52230  0.41590  0.92000  1.0000 -0.6523362298
O   O78       1.0  0.10640  0.52230  0.92000  1.0000 -0.6523362298
O   O79       1.0  0.47770  0.89360  0.08000  1.0000 -0.6523362298
O   O80       1.0  0.41590  0.52230  0.08000  1.0000 -0.6523362298
O   O81       1.0  0.10640  0.58410  0.08000  1.0000 -0.6523362298
O   O82       1.0  0.89360  0.41590  0.08000  1.0000 -0.6523362298
O   O83       1.0  0.52230  0.10640  0.08000  1.0000 -0.6523362298
O   O84       1.0  0.58410  0.47770  0.08000  1.0000 -0.6523362298
