# DDEC6 charges by PACMAN v1.1 (https://github.com/mtap-research/PACMAN-charge/)
data_2019[CoEu][tam]3[ASR]1
_chemical_formula_sum              "Eu24 Co6 H272 C456 S12 N24 O152"
_cell_length_a       33.9148
_cell_length_b       33.9148
_cell_length_c       33.9148
_cell_angle_alpha    109.471
_cell_angle_beta     109.471
_cell_angle_gamma    109.471

_symmetry_space_group_name_H-M    "P 1"
_symmetry_Int_Tables_number       1

loop_
  _symmetry_equiv_pos_as_xyz
  'x, y, z'

loop_
  _atom_site_type_symbol
  _atom_site_label
  _atom_site_symmetry_multiplicity
  _atom_site_fract_x
  _atom_site_fract_y
  _atom_site_fract_z
  _atom_site_occupancy
  _atom_site_charge
Eu  Eu1       1.0  0.47491  0.00000  0.07101  1.0000 2.221750437
Eu  Eu2       1.0  0.07101  0.00000  0.47491  1.0000 2.221750437
Eu  Eu3       1.0  0.52509  0.59610  0.52509  1.0000 2.221750437
Eu  Eu4       1.0  0.92899  0.40390  0.92899  1.0000 2.221750437
Eu  Eu5       1.0  0.47491  0.07101  0.00000  1.0000 2.221750437
Eu  Eu6       1.0  0.07101  0.47491  0.00000  1.0000 2.221750437
Eu  Eu7       1.0  0.92899  0.92899  0.40390  1.0000 2.221750437
Eu  Eu8       1.0  0.52509  0.52509  0.59610  1.0000 2.221750437
Eu  Eu9       1.0  0.40390  0.92899  0.92899  1.0000 2.221750437
Eu  Eu10      1.0  0.59610  0.52509  0.52509  1.0000 2.221750437
Eu  Eu11      1.0  0.00000  0.47491  0.07101  1.0000 2.221750437
Eu  Eu12      1.0  0.00000  0.07101  0.47491  1.0000 2.221750437
Eu  Eu13      1.0  0.92899  0.00000  0.52509  1.0000 2.221750437
Eu  Eu14      1.0  0.52509  0.00000  0.92899  1.0000 2.221750437
Eu  Eu15      1.0  0.47491  0.40390  0.47491  1.0000 2.221750437
Eu  Eu16      1.0  0.07101  0.59610  0.07101  1.0000 2.221750437
Eu  Eu17      1.0  0.00000  0.92899  0.52509  1.0000 2.221750437
Eu  Eu18      1.0  0.00000  0.52509  0.92899  1.0000 2.221750437
Eu  Eu19      1.0  0.59610  0.07101  0.07101  1.0000 2.221750437
Eu  Eu20      1.0  0.40390  0.47491  0.47491  1.0000 2.221750437
Eu  Eu21      1.0  0.07101  0.07101  0.59610  1.0000 2.221750437
Eu  Eu22      1.0  0.47491  0.47491  0.40390  1.0000 2.221750437
Eu  Eu23      1.0  0.92899  0.52509  0.00000  1.0000 2.221750437
Eu  Eu24      1.0  0.52509  0.92899  0.00000  1.0000 2.221750437
Co  Co1       1.0  0.75000  0.25000  0.50000  1.0000 0.6797945984
Co  Co2       1.0  0.25000  0.75000  0.50000  1.0000 0.6797945984
Co  Co3       1.0  0.50000  0.25000  0.75000  1.0000 0.6797945984
Co  Co4       1.0  0.50000  0.75000  0.25000  1.0000 0.6797945984
Co  Co5       1.0  0.25000  0.50000  0.75000  1.0000 0.6797945984
Co  Co6       1.0  0.75000  0.50000  0.25000  1.0000 0.6797945984
H   H1        1.0  0.55300  0.09020  0.23040  1.0000 0.1309880271
H   H2        1.0  0.59620  0.13270  0.31650  1.0000 0.122001426
H   H3        1.0  0.63320  0.22610  0.34290  1.0000 0.1309880271
H   H4        1.0  0.48820  0.11170  0.18510  1.0000 0.122001426
H   H5        1.0  0.52140  0.18250  0.25670  1.0000 0.1309880271
H   H6        1.0  0.14020  0.90980  0.46280  1.0000 0.1309880271
H   H7        1.0  0.18380  0.86730  0.46350  1.0000 0.122001426
H   H8        1.0  0.11680  0.77390  0.40710  1.0000 0.1309880271
H   H9        1.0  0.07340  0.88830  0.37650  1.0000 0.122001426
H   H10       1.0  0.07420  0.81750  0.33890  1.0000 0.1309880271
H   H11       1.0  0.44700  0.67740  0.53720  1.0000 0.1309880271
H   H12       1.0  0.40380  0.72030  0.53650  1.0000 0.122001426
H   H13       1.0  0.36680  0.70970  0.59290  1.0000 0.1309880271
H   H14       1.0  0.51180  0.69690  0.62350  1.0000 0.122001426
H   H15       1.0  0.47860  0.73530  0.66110  1.0000 0.1309880271
H   H16       1.0  0.85980  0.32260  0.76960  1.0000 0.1309880271
H   H17       1.0  0.81620  0.27970  0.68350  1.0000 0.122001426
H   H18       1.0  0.88320  0.29030  0.65710  1.0000 0.1309880271
H   H19       1.0  0.92660  0.30310  0.81490  1.0000 0.122001426
H   H20       1.0  0.92580  0.26470  0.74330  1.0000 0.1309880271
H   H21       1.0  0.46280  0.14020  0.90980  1.0000 0.1309880271
H   H22       1.0  0.46350  0.18380  0.86730  1.0000 0.122001426
H   H23       1.0  0.40710  0.11680  0.77390  1.0000 0.1309880271
H   H24       1.0  0.37650  0.07340  0.88830  1.0000 0.122001426
H   H25       1.0  0.33890  0.07420  0.81750  1.0000 0.1309880271
H   H26       1.0  0.23040  0.55300  0.09020  1.0000 0.1309880271
H   H27       1.0  0.31650  0.59620  0.13270  1.0000 0.122001426
H   H28       1.0  0.34290  0.63320  0.22610  1.0000 0.1309880271
H   H29       1.0  0.18510  0.48820  0.11170  1.0000 0.122001426
H   H30       1.0  0.25670  0.52140  0.18250  1.0000 0.1309880271
H   H31       1.0  0.76960  0.85980  0.32260  1.0000 0.1309880271
H   H32       1.0  0.68350  0.81620  0.27970  1.0000 0.122001426
H   H33       1.0  0.65710  0.88320  0.29030  1.0000 0.1309880271
H   H34       1.0  0.81490  0.92660  0.30310  1.0000 0.122001426
H   H35       1.0  0.74330  0.92580  0.26470  1.0000 0.1309880271
H   H36       1.0  0.53720  0.44700  0.67740  1.0000 0.1309880271
H   H37       1.0  0.53650  0.40380  0.72030  1.0000 0.122001426
H   H38       1.0  0.59290  0.36680  0.70970  1.0000 0.1309880271
H   H39       1.0  0.62350  0.51180  0.69690  1.0000 0.122001426
H   H40       1.0  0.66110  0.47860  0.73530  1.0000 0.1309880271
H   H41       1.0  0.32260  0.76960  0.85980  1.0000 0.1309880271
H   H42       1.0  0.27970  0.68350  0.81620  1.0000 0.122001426
H   H43       1.0  0.29030  0.65710  0.88320  1.0000 0.1309880271
H   H44       1.0  0.30310  0.81490  0.92660  1.0000 0.122001426
H   H45       1.0  0.26470  0.74330  0.92580  1.0000 0.1309880271
H   H46       1.0  0.67740  0.53720  0.44700  1.0000 0.1309880271
H   H47       1.0  0.72030  0.53650  0.40380  1.0000 0.122001426
H   H48       1.0  0.70970  0.59290  0.36680  1.0000 0.1309880271
H   H49       1.0  0.69690  0.62350  0.51180  1.0000 0.122001426
H   H50       1.0  0.73530  0.66110  0.47860  1.0000 0.1309880271
H   H51       1.0  0.90980  0.46280  0.14020  1.0000 0.1309880271
H   H52       1.0  0.86730  0.46350  0.18380  1.0000 0.122001426
H   H53       1.0  0.77390  0.40710  0.11680  1.0000 0.1309880271
H   H54       1.0  0.88830  0.37650  0.07340  1.0000 0.122001426
H   H55       1.0  0.81750  0.33890  0.07420  1.0000 0.1309880271
H   H56       1.0  0.09020  0.23040  0.55300  1.0000 0.1309880271
H   H57       1.0  0.13270  0.31650  0.59620  1.0000 0.122001426
H   H58       1.0  0.22610  0.34290  0.63320  1.0000 0.1309880271
H   H59       1.0  0.11170  0.18510  0.48820  1.0000 0.122001426
H   H60       1.0  0.18250  0.25670  0.52140  1.0000 0.1309880271
H   H61       1.0  0.76960  0.90980  0.44700  1.0000 0.1309880271
H   H62       1.0  0.68350  0.86730  0.40380  1.0000 0.122001426
H   H63       1.0  0.65710  0.77390  0.36680  1.0000 0.1309880271
H   H64       1.0  0.81490  0.88830  0.51180  1.0000 0.122001426
H   H65       1.0  0.74330  0.81750  0.47860  1.0000 0.1309880271
H   H66       1.0  0.53720  0.09020  0.85980  1.0000 0.1309880271
H   H67       1.0  0.53650  0.13270  0.81620  1.0000 0.122001426
H   H68       1.0  0.59290  0.22610  0.88320  1.0000 0.1309880271
H   H69       1.0  0.62350  0.11170  0.92660  1.0000 0.122001426
H   H70       1.0  0.66110  0.18250  0.92580  1.0000 0.1309880271
H   H71       1.0  0.46280  0.32260  0.55300  1.0000 0.1309880271
H   H72       1.0  0.46350  0.27970  0.59620  1.0000 0.122001426
H   H73       1.0  0.40710  0.29030  0.63320  1.0000 0.1309880271
H   H74       1.0  0.37650  0.30310  0.48820  1.0000 0.122001426
H   H75       1.0  0.33890  0.26470  0.52140  1.0000 0.1309880271
H   H76       1.0  0.23040  0.67740  0.14020  1.0000 0.1309880271
H   H77       1.0  0.31650  0.72030  0.18380  1.0000 0.122001426
H   H78       1.0  0.34290  0.70970  0.11680  1.0000 0.1309880271
H   H79       1.0  0.18510  0.69690  0.07340  1.0000 0.122001426
H   H80       1.0  0.25670  0.73530  0.07420  1.0000 0.1309880271
H   H81       1.0  0.09020  0.85980  0.53720  1.0000 0.1309880271
H   H82       1.0  0.13270  0.81620  0.53650  1.0000 0.122001426
H   H83       1.0  0.22610  0.88320  0.59290  1.0000 0.1309880271
H   H84       1.0  0.11170  0.92660  0.62350  1.0000 0.122001426
H   H85       1.0  0.18250  0.92580  0.66110  1.0000 0.1309880271
H   H86       1.0  0.90980  0.44700  0.76960  1.0000 0.1309880271
H   H87       1.0  0.86730  0.40380  0.68350  1.0000 0.122001426
H   H88       1.0  0.77390  0.36680  0.65710  1.0000 0.1309880271
H   H89       1.0  0.88830  0.51180  0.81490  1.0000 0.122001426
H   H90       1.0  0.81750  0.47860  0.74330  1.0000 0.1309880271
H   H91       1.0  0.67740  0.14020  0.23040  1.0000 0.1309880271
H   H92       1.0  0.72030  0.18380  0.31650  1.0000 0.122001426
H   H93       1.0  0.70970  0.11680  0.34290  1.0000 0.1309880271
H   H94       1.0  0.69690  0.07340  0.18510  1.0000 0.122001426
H   H95       1.0  0.73530  0.07420  0.25670  1.0000 0.1309880271
H   H96       1.0  0.32260  0.55300  0.46280  1.0000 0.1309880271
H   H97       1.0  0.27970  0.59620  0.46350  1.0000 0.122001426
H   H98       1.0  0.29030  0.63320  0.40710  1.0000 0.1309880271
H   H99       1.0  0.30310  0.48820  0.37650  1.0000 0.122001426
H   H100      1.0  0.26470  0.52140  0.33890  1.0000 0.1309880271
H   H101      1.0  0.14020  0.23040  0.67740  1.0000 0.1309880271
H   H102      1.0  0.18380  0.31650  0.72030  1.0000 0.122001426
H   H103      1.0  0.11680  0.34290  0.70970  1.0000 0.1309880271
H   H104      1.0  0.07340  0.18510  0.69690  1.0000 0.122001426
H   H105      1.0  0.07420  0.25670  0.73530  1.0000 0.1309880271
H   H106      1.0  0.55300  0.46280  0.32260  1.0000 0.1309880271
H   H107      1.0  0.59620  0.46350  0.27970  1.0000 0.122001426
H   H108      1.0  0.63320  0.40710  0.29030  1.0000 0.1309880271
H   H109      1.0  0.48820  0.37650  0.30310  1.0000 0.122001426
H   H110      1.0  0.52140  0.33890  0.26470  1.0000 0.1309880271
H   H111      1.0  0.85980  0.53720  0.09020  1.0000 0.1309880271
H   H112      1.0  0.81620  0.53650  0.13270  1.0000 0.122001426
H   H113      1.0  0.88320  0.59290  0.22610  1.0000 0.1309880271
H   H114      1.0  0.92660  0.62350  0.11170  1.0000 0.122001426
H   H115      1.0  0.92580  0.66110  0.18250  1.0000 0.1309880271
H   H116      1.0  0.44700  0.76960  0.90980  1.0000 0.1309880271
H   H117      1.0  0.40380  0.68350  0.86730  1.0000 0.122001426
H   H118      1.0  0.36680  0.65710  0.77390  1.0000 0.1309880271
H   H119      1.0  0.51180  0.81490  0.88830  1.0000 0.122001426
H   H120      1.0  0.47860  0.74330  0.81750  1.0000 0.1309880271
H   H121      1.0  0.44700  0.90980  0.76960  1.0000 0.1309880271
H   H122      1.0  0.40380  0.86730  0.68350  1.0000 0.122001426
H   H123      1.0  0.36680  0.77390  0.65710  1.0000 0.1309880271
H   H124      1.0  0.51180  0.88830  0.81490  1.0000 0.122001426
H   H125      1.0  0.47860  0.81750  0.74330  1.0000 0.1309880271
H   H126      1.0  0.85980  0.09020  0.53720  1.0000 0.1309880271
H   H127      1.0  0.81620  0.13270  0.53650  1.0000 0.122001426
H   H128      1.0  0.88320  0.22610  0.59290  1.0000 0.1309880271
H   H129      1.0  0.92660  0.11170  0.62350  1.0000 0.122001426
H   H130      1.0  0.92580  0.18250  0.66110  1.0000 0.1309880271
H   H131      1.0  0.55300  0.32260  0.46280  1.0000 0.1309880271
H   H132      1.0  0.59620  0.27970  0.46350  1.0000 0.122001426
H   H133      1.0  0.63320  0.29030  0.40710  1.0000 0.1309880271
H   H134      1.0  0.48820  0.30310  0.37650  1.0000 0.122001426
H   H135      1.0  0.52140  0.26470  0.33890  1.0000 0.1309880271
H   H136      1.0  0.14020  0.67740  0.23040  1.0000 0.1309880271
H   H137      1.0  0.18380  0.72030  0.31650  1.0000 0.122001426
H   H138      1.0  0.11680  0.70970  0.34290  1.0000 0.1309880271
H   H139      1.0  0.07340  0.69690  0.18510  1.0000 0.122001426
H   H140      1.0  0.07420  0.73530  0.25670  1.0000 0.1309880271
H   H141      1.0  0.53720  0.85980  0.09020  1.0000 0.1309880271
H   H142      1.0  0.53650  0.81620  0.13270  1.0000 0.122001426
H   H143      1.0  0.59290  0.88320  0.22610  1.0000 0.1309880271
H   H144      1.0  0.62350  0.92660  0.11170  1.0000 0.122001426
H   H145      1.0  0.66110  0.92580  0.18250  1.0000 0.1309880271
H   H146      1.0  0.76960  0.44700  0.90980  1.0000 0.1309880271
H   H147      1.0  0.68350  0.40380  0.86730  1.0000 0.122001426
H   H148      1.0  0.65710  0.36680  0.77390  1.0000 0.1309880271
H   H149      1.0  0.81490  0.51180  0.88830  1.0000 0.122001426
H   H150      1.0  0.74330  0.47860  0.81750  1.0000 0.1309880271
H   H151      1.0  0.23040  0.14020  0.67740  1.0000 0.1309880271
H   H152      1.0  0.31650  0.18380  0.72030  1.0000 0.122001426
H   H153      1.0  0.34290  0.11680  0.70970  1.0000 0.1309880271
H   H154      1.0  0.18510  0.07340  0.69690  1.0000 0.122001426
H   H155      1.0  0.25670  0.07420  0.73530  1.0000 0.1309880271
H   H156      1.0  0.46280  0.55300  0.32260  1.0000 0.1309880271
H   H157      1.0  0.46350  0.59620  0.27970  1.0000 0.122001426
H   H158      1.0  0.40710  0.63320  0.29030  1.0000 0.1309880271
H   H159      1.0  0.37650  0.48820  0.30310  1.0000 0.122001426
H   H160      1.0  0.33890  0.52140  0.26470  1.0000 0.1309880271
H   H161      1.0  0.67740  0.23040  0.14020  1.0000 0.1309880271
H   H162      1.0  0.72030  0.31650  0.18380  1.0000 0.122001426
H   H163      1.0  0.70970  0.34290  0.11680  1.0000 0.1309880271
H   H164      1.0  0.69690  0.18510  0.07340  1.0000 0.122001426
H   H165      1.0  0.73530  0.25670  0.07420  1.0000 0.1309880271
H   H166      1.0  0.32260  0.46280  0.55300  1.0000 0.1309880271
H   H167      1.0  0.27970  0.46350  0.59620  1.0000 0.122001426
H   H168      1.0  0.29030  0.40710  0.63320  1.0000 0.1309880271
H   H169      1.0  0.30310  0.37650  0.48820  1.0000 0.122001426
H   H170      1.0  0.26470  0.33890  0.52140  1.0000 0.1309880271
H   H171      1.0  0.09020  0.53720  0.85980  1.0000 0.1309880271
H   H172      1.0  0.13270  0.53650  0.81620  1.0000 0.122001426
H   H173      1.0  0.22610  0.59290  0.88320  1.0000 0.1309880271
H   H174      1.0  0.11170  0.62350  0.92660  1.0000 0.122001426
H   H175      1.0  0.18250  0.66110  0.92580  1.0000 0.1309880271
H   H176      1.0  0.90980  0.76960  0.44700  1.0000 0.1309880271
H   H177      1.0  0.86730  0.68350  0.40380  1.0000 0.122001426
H   H178      1.0  0.77390  0.65710  0.36680  1.0000 0.1309880271
H   H179      1.0  0.88830  0.81490  0.51180  1.0000 0.122001426
H   H180      1.0  0.81750  0.74330  0.47860  1.0000 0.1309880271
H   H181      1.0  0.23040  0.09020  0.55300  1.0000 0.1309880271
H   H182      1.0  0.31650  0.13270  0.59620  1.0000 0.122001426
H   H183      1.0  0.34290  0.22610  0.63320  1.0000 0.1309880271
H   H184      1.0  0.18510  0.11170  0.48820  1.0000 0.122001426
H   H185      1.0  0.25670  0.18250  0.52140  1.0000 0.1309880271
H   H186      1.0  0.46280  0.90980  0.14020  1.0000 0.1309880271
H   H187      1.0  0.46350  0.86730  0.18380  1.0000 0.122001426
H   H188      1.0  0.40710  0.77390  0.11680  1.0000 0.1309880271
H   H189      1.0  0.37650  0.88830  0.07340  1.0000 0.122001426
H   H190      1.0  0.33890  0.81750  0.07420  1.0000 0.1309880271
H   H191      1.0  0.53720  0.67740  0.44700  1.0000 0.1309880271
H   H192      1.0  0.53650  0.72030  0.40380  1.0000 0.122001426
H   H193      1.0  0.59290  0.70970  0.36680  1.0000 0.1309880271
H   H194      1.0  0.62350  0.69690  0.51180  1.0000 0.122001426
H   H195      1.0  0.66110  0.73530  0.47860  1.0000 0.1309880271
H   H196      1.0  0.76960  0.32260  0.85980  1.0000 0.1309880271
H   H197      1.0  0.68350  0.27970  0.81620  1.0000 0.122001426
H   H198      1.0  0.65710  0.29030  0.88320  1.0000 0.1309880271
H   H199      1.0  0.81490  0.30310  0.92660  1.0000 0.122001426
H   H200      1.0  0.74330  0.26470  0.92580  1.0000 0.1309880271
H   H201      1.0  0.90980  0.14020  0.46280  1.0000 0.1309880271
H   H202      1.0  0.86730  0.18380  0.46350  1.0000 0.122001426
H   H203      1.0  0.77390  0.11680  0.40710  1.0000 0.1309880271
H   H204      1.0  0.88830  0.07340  0.37650  1.0000 0.122001426
H   H205      1.0  0.81750  0.07420  0.33890  1.0000 0.1309880271
H   H206      1.0  0.09020  0.55300  0.23040  1.0000 0.1309880271
H   H207      1.0  0.13270  0.59620  0.31650  1.0000 0.122001426
H   H208      1.0  0.22610  0.63320  0.34290  1.0000 0.1309880271
H   H209      1.0  0.11170  0.48820  0.18510  1.0000 0.122001426
H   H210      1.0  0.18250  0.52140  0.25670  1.0000 0.1309880271
H   H211      1.0  0.32260  0.85980  0.76960  1.0000 0.1309880271
H   H212      1.0  0.27970  0.81620  0.68350  1.0000 0.122001426
H   H213      1.0  0.29030  0.88320  0.65710  1.0000 0.1309880271
H   H214      1.0  0.30310  0.92660  0.81490  1.0000 0.122001426
H   H215      1.0  0.26470  0.92580  0.74330  1.0000 0.1309880271
H   H216      1.0  0.67740  0.44700  0.53720  1.0000 0.1309880271
H   H217      1.0  0.72030  0.40380  0.53650  1.0000 0.122001426
H   H218      1.0  0.70970  0.36680  0.59290  1.0000 0.1309880271
H   H219      1.0  0.69690  0.51180  0.62350  1.0000 0.122001426
H   H220      1.0  0.73530  0.47860  0.66110  1.0000 0.1309880271
H   H221      1.0  0.85980  0.76960  0.32260  1.0000 0.1309880271
H   H222      1.0  0.81620  0.68350  0.27970  1.0000 0.122001426
H   H223      1.0  0.88320  0.65710  0.29030  1.0000 0.1309880271
H   H224      1.0  0.92660  0.81490  0.30310  1.0000 0.122001426
H   H225      1.0  0.92580  0.74330  0.26470  1.0000 0.1309880271
H   H226      1.0  0.44700  0.53720  0.67740  1.0000 0.1309880271
H   H227      1.0  0.40380  0.53650  0.72030  1.0000 0.122001426
H   H228      1.0  0.36680  0.59290  0.70970  1.0000 0.1309880271
H   H229      1.0  0.51180  0.62350  0.69690  1.0000 0.122001426
H   H230      1.0  0.47860  0.66110  0.73530  1.0000 0.1309880271
H   H231      1.0  0.14020  0.46280  0.90980  1.0000 0.1309880271
H   H232      1.0  0.18380  0.46350  0.86730  1.0000 0.122001426
H   H233      1.0  0.11680  0.40710  0.77390  1.0000 0.1309880271
H   H234      1.0  0.07340  0.37650  0.88830  1.0000 0.122001426
H   H235      1.0  0.07420  0.33890  0.81750  1.0000 0.1309880271
H   H236      1.0  0.55300  0.23040  0.09020  1.0000 0.1309880271
H   H237      1.0  0.59620  0.31650  0.13270  1.0000 0.122001426
H   H238      1.0  0.63320  0.34290  0.22610  1.0000 0.1309880271
H   H239      1.0  0.48820  0.18510  0.11170  1.0000 0.122001426
H   H240      1.0  0.52140  0.25670  0.18250  1.0000 0.1309880271
H   H241      1.0  0.56170  0.00000  0.08870  1.0000 0.3813850929
H   H242      1.0  0.08870  0.00000  0.56170  1.0000 0.3813850929
H   H243      1.0  0.43830  0.52700  0.43830  1.0000 0.3813850929
H   H244      1.0  0.91130  0.47300  0.91130  1.0000 0.3813850929
H   H245      1.0  0.56170  0.08870  0.00000  1.0000 0.3813850929
H   H246      1.0  0.08870  0.56170  0.00000  1.0000 0.3813850929
H   H247      1.0  0.91130  0.91130  0.47300  1.0000 0.3813850929
H   H248      1.0  0.43830  0.43830  0.52700  1.0000 0.3813850929
H   H249      1.0  0.47300  0.91130  0.91130  1.0000 0.3813850929
H   H250      1.0  0.52700  0.43830  0.43830  1.0000 0.3813850929
H   H251      1.0  0.00000  0.56170  0.08870  1.0000 0.3813850929
H   H252      1.0  0.00000  0.08870  0.56170  1.0000 0.3813850929
H   H253      1.0  0.91130  0.00000  0.43830  1.0000 0.3813850929
H   H254      1.0  0.43830  0.00000  0.91130  1.0000 0.3813850929
H   H255      1.0  0.56170  0.47300  0.56170  1.0000 0.3813850929
H   H256      1.0  0.08870  0.52700  0.08870  1.0000 0.3813850929
H   H257      1.0  0.00000  0.91130  0.43830  1.0000 0.3813850929
H   H258      1.0  0.00000  0.43830  0.91130  1.0000 0.3813850929
H   H259      1.0  0.52700  0.08870  0.08870  1.0000 0.3813850929
H   H260      1.0  0.47300  0.56170  0.56170  1.0000 0.3813850929
H   H261      1.0  0.08870  0.08870  0.52700  1.0000 0.3813850929
H   H262      1.0  0.56170  0.56170  0.47300  1.0000 0.3813850929
H   H263      1.0  0.91130  0.43830  0.00000  1.0000 0.3813850929
H   H264      1.0  0.43830  0.91130  0.00000  1.0000 0.3813850929
H   H265      1.0  0.41040  0.00000  0.00000  1.0000 0.4022825348
H   H266      1.0  0.00000  0.00000  0.41040  1.0000 0.4022825348
H   H267      1.0  0.58960  0.58960  0.58960  1.0000 0.4022825348
H   H268      1.0  0.00000  0.41040  0.00000  1.0000 0.4022825348
H   H269      1.0  0.00000  0.00000  0.58960  1.0000 0.4022825348
H   H270      1.0  0.58960  0.00000  0.00000  1.0000 0.4022825348
H   H271      1.0  0.41040  0.41040  0.41040  1.0000 0.4022825348
H   H272      1.0  0.00000  0.58960  0.00000  1.0000 0.4022825348
C   C1        1.0  0.58730  0.10920  0.24790  1.0000 -0.0869123355
C   C2        1.0  0.61270  0.13440  0.29890  1.0000 -0.1344030859
C   C3        1.0  0.68081  0.22496  0.40057  1.0000 0.1691320939
C   C4        1.0  0.65045  0.23850  0.37675  1.0000 -0.1875142836
C   C5        1.0  0.49290  0.14070  0.18460  1.0000 -0.0692488776
C   C6        1.0  0.51510  0.18300  0.22750  1.0000 -0.118033315
C   C7        1.0  0.13870  0.89080  0.47810  1.0000 -0.0869123355
C   C8        1.0  0.16450  0.86560  0.47830  1.0000 -0.1344030859
C   C9        1.0  0.17561  0.77504  0.45585  1.0000 0.1691320939
C   C10       1.0  0.13825  0.76150  0.41195  1.0000 -0.1875142836
C   C11       1.0  0.04390  0.85930  0.35220  1.0000 -0.0692488776
C   C12       1.0  0.04450  0.81700  0.33210  1.0000 -0.118033315
C   C13       1.0  0.41270  0.66060  0.52190  1.0000 -0.0869123355
C   C14       1.0  0.38730  0.68620  0.52170  1.0000 -0.1344030859
C   C15       1.0  0.31919  0.71976  0.54415  1.0000 0.1691320939
C   C16       1.0  0.34955  0.72630  0.58805  1.0000 -0.1875142836
C   C17       1.0  0.50710  0.69170  0.64780  1.0000 -0.0692488776
C   C18       1.0  0.48490  0.71240  0.66790  1.0000 -0.118033315
C   C19       1.0  0.86130  0.33940  0.75210  1.0000 -0.0869123355
C   C20       1.0  0.83550  0.31380  0.70110  1.0000 -0.1344030859
C   C21       1.0  0.82439  0.28024  0.59943  1.0000 0.1691320939
C   C22       1.0  0.86175  0.27370  0.62325  1.0000 -0.1875142836
C   C23       1.0  0.95610  0.30830  0.81540  1.0000 -0.0692488776
C   C24       1.0  0.95550  0.28760  0.77250  1.0000 -0.118033315
C   C25       1.0  0.47810  0.13870  0.89080  1.0000 -0.0869123355
C   C26       1.0  0.47830  0.16450  0.86560  1.0000 -0.1344030859
C   C27       1.0  0.45585  0.17561  0.77504  1.0000 0.1691320939
C   C28       1.0  0.41195  0.13825  0.76150  1.0000 -0.1875142836
C   C29       1.0  0.35220  0.04390  0.85930  1.0000 -0.0692488776
C   C30       1.0  0.33210  0.04450  0.81700  1.0000 -0.118033315
C   C31       1.0  0.24790  0.58730  0.10920  1.0000 -0.0869123355
C   C32       1.0  0.29890  0.61270  0.13440  1.0000 -0.1344030859
C   C33       1.0  0.40057  0.68081  0.22496  1.0000 0.1691320939
C   C34       1.0  0.37675  0.65045  0.23850  1.0000 -0.1875142836
C   C35       1.0  0.18460  0.49290  0.14070  1.0000 -0.0692488776
C   C36       1.0  0.22750  0.51510  0.18300  1.0000 -0.118033315
C   C37       1.0  0.75210  0.86130  0.33940  1.0000 -0.0869123355
C   C38       1.0  0.70110  0.83550  0.31380  1.0000 -0.1344030859
C   C39       1.0  0.59943  0.82439  0.28024  1.0000 0.1691320939
C   C40       1.0  0.62325  0.86175  0.27370  1.0000 -0.1875142836
C   C41       1.0  0.81540  0.95610  0.30830  1.0000 -0.0692488776
C   C42       1.0  0.77250  0.95550  0.28760  1.0000 -0.118033315
C   C43       1.0  0.52190  0.41270  0.66060  1.0000 -0.0869123355
C   C44       1.0  0.52170  0.38730  0.68620  1.0000 -0.1344030859
C   C45       1.0  0.54415  0.31919  0.71976  1.0000 0.1691320939
C   C46       1.0  0.58805  0.34955  0.72630  1.0000 -0.1875142836
C   C47       1.0  0.64780  0.50710  0.69170  1.0000 -0.0692488776
C   C48       1.0  0.66790  0.48490  0.71240  1.0000 -0.118033315
C   C49       1.0  0.33940  0.75210  0.86130  1.0000 -0.0869123355
C   C50       1.0  0.31380  0.70110  0.83550  1.0000 -0.1344030859
C   C51       1.0  0.28024  0.59943  0.82439  1.0000 0.1691320939
C   C52       1.0  0.27370  0.62325  0.86175  1.0000 -0.1875142836
C   C53       1.0  0.30830  0.81540  0.95610  1.0000 -0.0692488776
C   C54       1.0  0.28760  0.77250  0.95550  1.0000 -0.118033315
C   C55       1.0  0.66060  0.52190  0.41270  1.0000 -0.0869123355
C   C56       1.0  0.68620  0.52170  0.38730  1.0000 -0.1344030859
C   C57       1.0  0.71976  0.54415  0.31919  1.0000 0.1691320939
C   C58       1.0  0.72630  0.58805  0.34955  1.0000 -0.1875142836
C   C59       1.0  0.69170  0.64780  0.50710  1.0000 -0.0692488776
C   C60       1.0  0.71240  0.66790  0.48490  1.0000 -0.118033315
C   C61       1.0  0.89080  0.47810  0.13870  1.0000 -0.0869123355
C   C62       1.0  0.86560  0.47830  0.16450  1.0000 -0.1344030859
C   C63       1.0  0.77504  0.45585  0.17561  1.0000 0.1691320939
C   C64       1.0  0.76150  0.41195  0.13825  1.0000 -0.1875142836
C   C65       1.0  0.85930  0.35220  0.04390  1.0000 -0.0692488776
C   C66       1.0  0.81700  0.33210  0.04450  1.0000 -0.118033315
C   C67       1.0  0.10920  0.24790  0.58730  1.0000 -0.0869123355
C   C68       1.0  0.13440  0.29890  0.61270  1.0000 -0.1344030859
C   C69       1.0  0.22496  0.40057  0.68081  1.0000 0.1691320939
C   C70       1.0  0.23850  0.37675  0.65045  1.0000 -0.1875142836
C   C71       1.0  0.14070  0.18460  0.49290  1.0000 -0.0692488776
C   C72       1.0  0.18300  0.22750  0.51510  1.0000 -0.118033315
C   C73       1.0  0.75210  0.89080  0.41270  1.0000 -0.0869123355
C   C74       1.0  0.70110  0.86560  0.38730  1.0000 -0.1344030859
C   C75       1.0  0.59943  0.77504  0.31919  1.0000 0.1691320939
C   C76       1.0  0.62325  0.76150  0.34955  1.0000 -0.1875142836
C   C77       1.0  0.81540  0.85930  0.50710  1.0000 -0.0692488776
C   C78       1.0  0.77250  0.81700  0.48490  1.0000 -0.118033315
C   C79       1.0  0.52190  0.10920  0.86130  1.0000 -0.0869123355
C   C80       1.0  0.52170  0.13440  0.83550  1.0000 -0.1344030859
C   C81       1.0  0.54415  0.22496  0.82439  1.0000 0.1691320939
C   C82       1.0  0.58805  0.23850  0.86175  1.0000 -0.1875142836
C   C83       1.0  0.64780  0.14070  0.95610  1.0000 -0.0692488776
C   C84       1.0  0.66790  0.18300  0.95550  1.0000 -0.118033315
C   C85       1.0  0.47810  0.33940  0.58730  1.0000 -0.0869123355
C   C86       1.0  0.47830  0.31380  0.61270  1.0000 -0.1344030859
C   C87       1.0  0.45585  0.28024  0.68081  1.0000 0.1691320939
C   C88       1.0  0.41195  0.27370  0.65045  1.0000 -0.1875142836
C   C89       1.0  0.35220  0.30830  0.49290  1.0000 -0.0692488776
C   C90       1.0  0.33210  0.28760  0.51510  1.0000 -0.118033315
C   C91       1.0  0.24790  0.66060  0.13870  1.0000 -0.0869123355
C   C92       1.0  0.29890  0.68620  0.16450  1.0000 -0.1344030859
C   C93       1.0  0.40057  0.71976  0.17561  1.0000 0.1691320939
C   C94       1.0  0.37675  0.72630  0.13825  1.0000 -0.1875142836
C   C95       1.0  0.18460  0.69170  0.04390  1.0000 -0.0692488776
C   C96       1.0  0.22750  0.71240  0.04450  1.0000 -0.118033315
C   C97       1.0  0.10920  0.86130  0.52190  1.0000 -0.0869123355
C   C98       1.0  0.13440  0.83550  0.52170  1.0000 -0.1344030859
C   C99       1.0  0.22496  0.82439  0.54415  1.0000 0.1691320939
C   C100      1.0  0.23850  0.86175  0.58805  1.0000 -0.1875142836
C   C101      1.0  0.14070  0.95610  0.64780  1.0000 -0.0692488776
C   C102      1.0  0.18300  0.95550  0.66790  1.0000 -0.118033315
C   C103      1.0  0.89080  0.41270  0.75210  1.0000 -0.0869123355
C   C104      1.0  0.86560  0.38730  0.70110  1.0000 -0.1344030859
C   C105      1.0  0.77504  0.31919  0.59943  1.0000 0.1691320939
C   C106      1.0  0.76150  0.34955  0.62325  1.0000 -0.1875142836
C   C107      1.0  0.85930  0.50710  0.81540  1.0000 -0.0692488776
C   C108      1.0  0.81700  0.48490  0.77250  1.0000 -0.118033315
C   C109      1.0  0.66060  0.13870  0.24790  1.0000 -0.0869123355
C   C110      1.0  0.68620  0.16450  0.29890  1.0000 -0.1344030859
C   C111      1.0  0.71976  0.17561  0.40057  1.0000 0.1691320939
C   C112      1.0  0.72630  0.13825  0.37675  1.0000 -0.1875142836
C   C113      1.0  0.69170  0.04390  0.18460  1.0000 -0.0692488776
C   C114      1.0  0.71240  0.04450  0.22750  1.0000 -0.118033315
C   C115      1.0  0.33940  0.58730  0.47810  1.0000 -0.0869123355
C   C116      1.0  0.31380  0.61270  0.47830  1.0000 -0.1344030859
C   C117      1.0  0.28024  0.68081  0.45585  1.0000 0.1691320939
C   C118      1.0  0.27370  0.65045  0.41195  1.0000 -0.1875142836
C   C119      1.0  0.30830  0.49290  0.35220  1.0000 -0.0692488776
C   C120      1.0  0.28760  0.51510  0.33210  1.0000 -0.118033315
C   C121      1.0  0.13870  0.24790  0.66060  1.0000 -0.0869123355
C   C122      1.0  0.16450  0.29890  0.68620  1.0000 -0.1344030859
C   C123      1.0  0.17561  0.40057  0.71976  1.0000 0.1691320939
C   C124      1.0  0.13825  0.37675  0.72630  1.0000 -0.1875142836
C   C125      1.0  0.04390  0.18460  0.69170  1.0000 -0.0692488776
C   C126      1.0  0.04450  0.22750  0.71240  1.0000 -0.118033315
C   C127      1.0  0.58730  0.47810  0.33940  1.0000 -0.0869123355
C   C128      1.0  0.61270  0.47830  0.31380  1.0000 -0.1344030859
C   C129      1.0  0.68081  0.45585  0.28024  1.0000 0.1691320939
C   C130      1.0  0.65045  0.41195  0.27370  1.0000 -0.1875142836
C   C131      1.0  0.49290  0.35220  0.30830  1.0000 -0.0692488776
C   C132      1.0  0.51510  0.33210  0.28760  1.0000 -0.118033315
C   C133      1.0  0.86130  0.52190  0.10920  1.0000 -0.0869123355
C   C134      1.0  0.83550  0.52170  0.13440  1.0000 -0.1344030859
C   C135      1.0  0.82439  0.54415  0.22496  1.0000 0.1691320939
C   C136      1.0  0.86175  0.58805  0.23850  1.0000 -0.1875142836
C   C137      1.0  0.95610  0.64780  0.14070  1.0000 -0.0692488776
C   C138      1.0  0.95550  0.66790  0.18300  1.0000 -0.118033315
C   C139      1.0  0.41270  0.75210  0.89080  1.0000 -0.0869123355
C   C140      1.0  0.38730  0.70110  0.86560  1.0000 -0.1344030859
C   C141      1.0  0.31919  0.59943  0.77504  1.0000 0.1691320939
C   C142      1.0  0.34955  0.62325  0.76150  1.0000 -0.1875142836
C   C143      1.0  0.50710  0.81540  0.85930  1.0000 -0.0692488776
C   C144      1.0  0.48490  0.77250  0.81700  1.0000 -0.118033315
C   C145      1.0  0.41270  0.89080  0.75210  1.0000 -0.0869123355
C   C146      1.0  0.38730  0.86560  0.70110  1.0000 -0.1344030859
C   C147      1.0  0.31919  0.77504  0.59943  1.0000 0.1691320939
C   C148      1.0  0.34955  0.76150  0.62325  1.0000 -0.1875142836
C   C149      1.0  0.50710  0.85930  0.81540  1.0000 -0.0692488776
C   C150      1.0  0.48490  0.81700  0.77250  1.0000 -0.118033315
C   C151      1.0  0.86130  0.10920  0.52190  1.0000 -0.0869123355
C   C152      1.0  0.83550  0.13440  0.52170  1.0000 -0.1344030859
C   C153      1.0  0.82439  0.22496  0.54415  1.0000 0.1691320939
C   C154      1.0  0.86175  0.23850  0.58805  1.0000 -0.1875142836
C   C155      1.0  0.95610  0.14070  0.64780  1.0000 -0.0692488776
C   C156      1.0  0.95550  0.18300  0.66790  1.0000 -0.118033315
C   C157      1.0  0.58730  0.33940  0.47810  1.0000 -0.0869123355
C   C158      1.0  0.61270  0.31380  0.47830  1.0000 -0.1344030859
C   C159      1.0  0.68081  0.28024  0.45585  1.0000 0.1691320939
C   C160      1.0  0.65045  0.27370  0.41195  1.0000 -0.1875142836
C   C161      1.0  0.49290  0.30830  0.35220  1.0000 -0.0692488776
C   C162      1.0  0.51510  0.28760  0.33210  1.0000 -0.118033315
C   C163      1.0  0.13870  0.66060  0.24790  1.0000 -0.0869123355
C   C164      1.0  0.16450  0.68620  0.29890  1.0000 -0.1344030859
C   C165      1.0  0.17561  0.71976  0.40057  1.0000 0.1691320939
C   C166      1.0  0.13825  0.72630  0.37675  1.0000 -0.1875142836
C   C167      1.0  0.04390  0.69170  0.18460  1.0000 -0.0692488776
C   C168      1.0  0.04450  0.71240  0.22750  1.0000 -0.118033315
C   C169      1.0  0.52190  0.86130  0.10920  1.0000 -0.0869123355
C   C170      1.0  0.52170  0.83550  0.13440  1.0000 -0.1344030859
C   C171      1.0  0.54415  0.82439  0.22496  1.0000 0.1691320939
C   C172      1.0  0.58805  0.86175  0.23850  1.0000 -0.1875142836
C   C173      1.0  0.64780  0.95610  0.14070  1.0000 -0.0692488776
C   C174      1.0  0.66790  0.95550  0.18300  1.0000 -0.118033315
C   C175      1.0  0.75210  0.41270  0.89080  1.0000 -0.0869123355
C   C176      1.0  0.70110  0.38730  0.86560  1.0000 -0.1344030859
C   C177      1.0  0.59943  0.31919  0.77504  1.0000 0.1691320939
C   C178      1.0  0.62325  0.34955  0.76150  1.0000 -0.1875142836
C   C179      1.0  0.81540  0.50710  0.85930  1.0000 -0.0692488776
C   C180      1.0  0.77250  0.48490  0.81700  1.0000 -0.118033315
C   C181      1.0  0.24790  0.13870  0.66060  1.0000 -0.0869123355
C   C182      1.0  0.29890  0.16450  0.68620  1.0000 -0.1344030859
C   C183      1.0  0.40057  0.17561  0.71976  1.0000 0.1691320939
C   C184      1.0  0.37675  0.13825  0.72630  1.0000 -0.1875142836
C   C185      1.0  0.18460  0.04390  0.69170  1.0000 -0.0692488776
C   C186      1.0  0.22750  0.04450  0.71240  1.0000 -0.118033315
C   C187      1.0  0.47810  0.58730  0.33940  1.0000 -0.0869123355
C   C188      1.0  0.47830  0.61270  0.31380  1.0000 -0.1344030859
C   C189      1.0  0.45585  0.68081  0.28024  1.0000 0.1691320939
C   C190      1.0  0.41195  0.65045  0.27370  1.0000 -0.1875142836
C   C191      1.0  0.35220  0.49290  0.30830  1.0000 -0.0692488776
C   C192      1.0  0.33210  0.51510  0.28760  1.0000 -0.118033315
C   C193      1.0  0.66060  0.24790  0.13870  1.0000 -0.0869123355
C   C194      1.0  0.68620  0.29890  0.16450  1.0000 -0.1344030859
C   C195      1.0  0.71976  0.40057  0.17561  1.0000 0.1691320939
C   C196      1.0  0.72630  0.37675  0.13825  1.0000 -0.1875142836
C   C197      1.0  0.69170  0.18460  0.04390  1.0000 -0.0692488776
C   C198      1.0  0.71240  0.22750  0.04450  1.0000 -0.118033315
C   C199      1.0  0.33940  0.47810  0.58730  1.0000 -0.0869123355
C   C200      1.0  0.31380  0.47830  0.61270  1.0000 -0.1344030859
C   C201      1.0  0.28024  0.45585  0.68081  1.0000 0.1691320939
C   C202      1.0  0.27370  0.41195  0.65045  1.0000 -0.1875142836
C   C203      1.0  0.30830  0.35220  0.49290  1.0000 -0.0692488776
C   C204      1.0  0.28760  0.33210  0.51510  1.0000 -0.118033315
C   C205      1.0  0.10920  0.52190  0.86130  1.0000 -0.0869123355
C   C206      1.0  0.13440  0.52170  0.83550  1.0000 -0.1344030859
C   C207      1.0  0.22496  0.54415  0.82439  1.0000 0.1691320939
C   C208      1.0  0.23850  0.58805  0.86175  1.0000 -0.1875142836
C   C209      1.0  0.14070  0.64780  0.95610  1.0000 -0.0692488776
C   C210      1.0  0.18300  0.66790  0.95550  1.0000 -0.118033315
C   C211      1.0  0.89080  0.75210  0.41270  1.0000 -0.0869123355
C   C212      1.0  0.86560  0.70110  0.38730  1.0000 -0.1344030859
C   C213      1.0  0.77504  0.59943  0.31919  1.0000 0.1691320939
C   C214      1.0  0.76150  0.62325  0.34955  1.0000 -0.1875142836
C   C215      1.0  0.85930  0.81540  0.50710  1.0000 -0.0692488776
C   C216      1.0  0.81700  0.77250  0.48490  1.0000 -0.118033315
C   C217      1.0  0.24790  0.10920  0.58730  1.0000 -0.0869123355
C   C218      1.0  0.29890  0.13440  0.61270  1.0000 -0.1344030859
C   C219      1.0  0.40057  0.22496  0.68081  1.0000 0.1691320939
C   C220      1.0  0.37675  0.23850  0.65045  1.0000 -0.1875142836
C   C221      1.0  0.18460  0.14070  0.49290  1.0000 -0.0692488776
C   C222      1.0  0.22750  0.18300  0.51510  1.0000 -0.118033315
C   C223      1.0  0.47810  0.89080  0.13870  1.0000 -0.0869123355
C   C224      1.0  0.47830  0.86560  0.16450  1.0000 -0.1344030859
C   C225      1.0  0.45585  0.77504  0.17561  1.0000 0.1691320939
C   C226      1.0  0.41195  0.76150  0.13825  1.0000 -0.1875142836
C   C227      1.0  0.35220  0.85930  0.04390  1.0000 -0.0692488776
C   C228      1.0  0.33210  0.81700  0.04450  1.0000 -0.118033315
C   C229      1.0  0.52190  0.66060  0.41270  1.0000 -0.0869123355
C   C230      1.0  0.52170  0.68620  0.38730  1.0000 -0.1344030859
C   C231      1.0  0.54415  0.71976  0.31919  1.0000 0.1691320939
C   C232      1.0  0.58805  0.72630  0.34955  1.0000 -0.1875142836
C   C233      1.0  0.64780  0.69170  0.50710  1.0000 -0.0692488776
C   C234      1.0  0.66790  0.71240  0.48490  1.0000 -0.118033315
C   C235      1.0  0.75210  0.33940  0.86130  1.0000 -0.0869123355
C   C236      1.0  0.70110  0.31380  0.83550  1.0000 -0.1344030859
C   C237      1.0  0.59943  0.28024  0.82439  1.0000 0.1691320939
C   C238      1.0  0.62325  0.27370  0.86175  1.0000 -0.1875142836
C   C239      1.0  0.81540  0.30830  0.95610  1.0000 -0.0692488776
C   C240      1.0  0.77250  0.28760  0.95550  1.0000 -0.118033315
C   C241      1.0  0.89080  0.13870  0.47810  1.0000 -0.0869123355
C   C242      1.0  0.86560  0.16450  0.47830  1.0000 -0.1344030859
C   C243      1.0  0.77504  0.17561  0.45585  1.0000 0.1691320939
C   C244      1.0  0.76150  0.13825  0.41195  1.0000 -0.1875142836
C   C245      1.0  0.85930  0.04390  0.35220  1.0000 -0.0692488776
C   C246      1.0  0.81700  0.04450  0.33210  1.0000 -0.118033315
C   C247      1.0  0.10920  0.58730  0.24790  1.0000 -0.0869123355
C   C248      1.0  0.13440  0.61270  0.29890  1.0000 -0.1344030859
C   C249      1.0  0.22496  0.68081  0.40057  1.0000 0.1691320939
C   C250      1.0  0.23850  0.65045  0.37675  1.0000 -0.1875142836
C   C251      1.0  0.14070  0.49290  0.18460  1.0000 -0.0692488776
C   C252      1.0  0.18300  0.51510  0.22750  1.0000 -0.118033315
C   C253      1.0  0.33940  0.86130  0.75210  1.0000 -0.0869123355
C   C254      1.0  0.31380  0.83550  0.70110  1.0000 -0.1344030859
C   C255      1.0  0.28024  0.82439  0.59943  1.0000 0.1691320939
C   C256      1.0  0.27370  0.86175  0.62325  1.0000 -0.1875142836
C   C257      1.0  0.30830  0.95610  0.81540  1.0000 -0.0692488776
C   C258      1.0  0.28760  0.95550  0.77250  1.0000 -0.118033315
C   C259      1.0  0.66060  0.41270  0.52190  1.0000 -0.0869123355
C   C260      1.0  0.68620  0.38730  0.52170  1.0000 -0.1344030859
C   C261      1.0  0.71976  0.31919  0.54415  1.0000 0.1691320939
C   C262      1.0  0.72630  0.34955  0.58805  1.0000 -0.1875142836
C   C263      1.0  0.69170  0.50710  0.64780  1.0000 -0.0692488776
C   C264      1.0  0.71240  0.48490  0.66790  1.0000 -0.118033315
C   C265      1.0  0.86130  0.75210  0.33940  1.0000 -0.0869123355
C   C266      1.0  0.83550  0.70110  0.31380  1.0000 -0.1344030859
C   C267      1.0  0.82439  0.59943  0.28024  1.0000 0.1691320939
C   C268      1.0  0.86175  0.62325  0.27370  1.0000 -0.1875142836
C   C269      1.0  0.95610  0.81540  0.30830  1.0000 -0.0692488776
C   C270      1.0  0.95550  0.77250  0.28760  1.0000 -0.118033315
C   C271      1.0  0.41270  0.52190  0.66060  1.0000 -0.0869123355
C   C272      1.0  0.38730  0.52170  0.68620  1.0000 -0.1344030859
C   C273      1.0  0.31919  0.54415  0.71976  1.0000 0.1691320939
C   C274      1.0  0.34955  0.58805  0.72630  1.0000 -0.1875142836
C   C275      1.0  0.50710  0.64780  0.69170  1.0000 -0.0692488776
C   C276      1.0  0.48490  0.66790  0.71240  1.0000 -0.118033315
C   C277      1.0  0.13870  0.47810  0.89080  1.0000 -0.0869123355
C   C278      1.0  0.16450  0.47830  0.86560  1.0000 -0.1344030859
C   C279      1.0  0.17561  0.45585  0.77504  1.0000 0.1691320939
C   C280      1.0  0.13825  0.41195  0.76150  1.0000 -0.1875142836
C   C281      1.0  0.04390  0.35220  0.85930  1.0000 -0.0692488776
C   C282      1.0  0.04450  0.33210  0.81700  1.0000 -0.118033315
C   C283      1.0  0.58730  0.24790  0.10920  1.0000 -0.0869123355
C   C284      1.0  0.61270  0.29890  0.13440  1.0000 -0.1344030859
C   C285      1.0  0.68081  0.40057  0.22496  1.0000 0.1691320939
C   C286      1.0  0.65045  0.37675  0.23850  1.0000 -0.1875142836
C   C287      1.0  0.49290  0.18460  0.14070  1.0000 -0.0692488776
C   C288      1.0  0.51510  0.22750  0.18300  1.0000 -0.118033315
C   C289      1.0  0.58400  0.08400  0.16800  1.0000 0.6277316872
C   C290      1.0  0.61230  0.11230  0.22460  1.0000 0.0002747847
C   C291      1.0  0.66088  0.16088  0.32176  1.0000 0.0770004517
C   C292      1.0  0.68805  0.18805  0.37610  1.0000 -0.0350881152
C   C293      1.0  0.08400  0.91600  0.50000  1.0000 0.6277316872
C   C294      1.0  0.11230  0.88770  0.50000  1.0000 0.0002747847
C   C295      1.0  0.16088  0.83912  0.50000  1.0000 0.0770004517
C   C296      1.0  0.18805  0.81195  0.50000  1.0000 -0.0350881152
C   C297      1.0  0.41600  0.58400  0.50000  1.0000 0.6277316872
C   C298      1.0  0.38770  0.61230  0.50000  1.0000 0.0002747847
C   C299      1.0  0.33912  0.66088  0.50000  1.0000 0.0770004517
C   C300      1.0  0.31195  0.68805  0.50000  1.0000 -0.0350881152
C   C301      1.0  0.91600  0.41600  0.83200  1.0000 0.6277316872
C   C302      1.0  0.88770  0.38770  0.77540  1.0000 0.0002747847
C   C303      1.0  0.83912  0.33912  0.67824  1.0000 0.0770004517
C   C304      1.0  0.81195  0.31195  0.62390  1.0000 -0.0344813776
C   C305      1.0  0.50000  0.08400  0.91600  1.0000 0.6277316872
C   C306      1.0  0.50000  0.11230  0.88770  1.0000 0.0002747847
C   C307      1.0  0.50000  0.16088  0.83912  1.0000 0.0770004517
C   C308      1.0  0.50000  0.18805  0.81195  1.0000 -0.0344813776
C   C309      1.0  0.16800  0.58400  0.08400  1.0000 0.6277316872
C   C310      1.0  0.22460  0.61230  0.11230  1.0000 0.0002747847
C   C311      1.0  0.32176  0.66088  0.16088  1.0000 0.0770004517
C   C312      1.0  0.37610  0.68805  0.18805  1.0000 -0.0350881152
C   C313      1.0  0.83200  0.91600  0.41600  1.0000 0.6277316872
C   C314      1.0  0.77540  0.88770  0.38770  1.0000 0.0002747847
C   C315      1.0  0.67824  0.83912  0.33912  1.0000 0.0770004517
C   C316      1.0  0.62390  0.81195  0.31195  1.0000 -0.0350881152
C   C317      1.0  0.50000  0.41600  0.58400  1.0000 0.6277316872
C   C318      1.0  0.50000  0.38770  0.61230  1.0000 0.0002747847
C   C319      1.0  0.50000  0.33912  0.66088  1.0000 0.0770004517
C   C320      1.0  0.50000  0.31195  0.68805  1.0000 -0.0344813776
C   C321      1.0  0.41600  0.83200  0.91600  1.0000 0.6277316872
C   C322      1.0  0.38770  0.77540  0.88770  1.0000 0.0002747847
C   C323      1.0  0.33912  0.67824  0.83912  1.0000 0.0770004517
C   C324      1.0  0.31195  0.62390  0.81195  1.0000 -0.0350881152
C   C325      1.0  0.58400  0.50000  0.41600  1.0000 0.6277316872
C   C326      1.0  0.61230  0.50000  0.38770  1.0000 0.0002747847
C   C327      1.0  0.66088  0.50000  0.33912  1.0000 0.0770004517
C   C328      1.0  0.68805  0.50000  0.31195  1.0000 -0.0350881152
C   C329      1.0  0.91600  0.50000  0.08400  1.0000 0.6277316872
C   C330      1.0  0.88770  0.50000  0.11230  1.0000 0.0002747847
C   C331      1.0  0.83912  0.50000  0.16088  1.0000 0.0770004517
C   C332      1.0  0.81195  0.50000  0.18805  1.0000 -0.0350881152
C   C333      1.0  0.08400  0.16800  0.58400  1.0000 0.6277316872
C   C334      1.0  0.11230  0.22460  0.61230  1.0000 0.0002747847
C   C335      1.0  0.16088  0.32176  0.66088  1.0000 0.0770004517
C   C336      1.0  0.18805  0.37610  0.68805  1.0000 -0.0350881152
C   C337      1.0  0.41600  0.91600  0.83200  1.0000 0.6277316872
C   C338      1.0  0.38770  0.88770  0.77540  1.0000 0.0002747847
C   C339      1.0  0.33912  0.83912  0.67824  1.0000 0.0770004517
C   C340      1.0  0.31195  0.81195  0.62390  1.0000 -0.0350881152
C   C341      1.0  0.91600  0.08400  0.50000  1.0000 0.6277316872
C   C342      1.0  0.88770  0.11230  0.50000  1.0000 0.0002747847
C   C343      1.0  0.83912  0.16088  0.50000  1.0000 0.0770004517
C   C344      1.0  0.81195  0.18805  0.50000  1.0000 -0.0344813776
C   C345      1.0  0.58400  0.41600  0.50000  1.0000 0.6277316872
C   C346      1.0  0.61230  0.38770  0.50000  1.0000 0.0002747847
C   C347      1.0  0.66088  0.33912  0.50000  1.0000 0.0770004517
C   C348      1.0  0.68805  0.31195  0.50000  1.0000 -0.0350881152
C   C349      1.0  0.08400  0.58400  0.16800  1.0000 0.6277316872
C   C350      1.0  0.11230  0.61230  0.22460  1.0000 0.0002747847
C   C351      1.0  0.16088  0.66088  0.32176  1.0000 0.0770004517
C   C352      1.0  0.18805  0.68805  0.37610  1.0000 -0.0350881152
C   C353      1.0  0.50000  0.91600  0.08400  1.0000 0.6277316872
C   C354      1.0  0.50000  0.88770  0.11230  1.0000 0.0002747847
C   C355      1.0  0.50000  0.83912  0.16088  1.0000 0.0770004517
C   C356      1.0  0.50000  0.81195  0.18805  1.0000 -0.0350881152
C   C357      1.0  0.83200  0.41600  0.91600  1.0000 0.6277316872
C   C358      1.0  0.77540  0.38770  0.88770  1.0000 0.0002747847
C   C359      1.0  0.67824  0.33912  0.83912  1.0000 0.0770004517
C   C360      1.0  0.62390  0.31195  0.81195  1.0000 -0.0344813776
C   C361      1.0  0.16800  0.08400  0.58400  1.0000 0.6277316872
C   C362      1.0  0.22460  0.11230  0.61230  1.0000 0.0002747847
C   C363      1.0  0.32176  0.16088  0.66088  1.0000 0.0770004517
C   C364      1.0  0.37610  0.18805  0.68805  1.0000 -0.0344813776
C   C365      1.0  0.50000  0.58400  0.41600  1.0000 0.6277316872
C   C366      1.0  0.50000  0.61230  0.38770  1.0000 0.0002747847
C   C367      1.0  0.50000  0.66088  0.33912  1.0000 0.0770004517
C   C368      1.0  0.50000  0.68805  0.31195  1.0000 -0.0350881152
C   C369      1.0  0.58400  0.16800  0.08400  1.0000 0.6277316872
C   C370      1.0  0.61230  0.22460  0.11230  1.0000 0.0002747847
C   C371      1.0  0.66088  0.32176  0.16088  1.0000 0.0770004517
C   C372      1.0  0.68805  0.37610  0.18805  1.0000 -0.0350881152
C   C373      1.0  0.41600  0.50000  0.58400  1.0000 0.6277316872
C   C374      1.0  0.38770  0.50000  0.61230  1.0000 0.0002747847
C   C375      1.0  0.33912  0.50000  0.66088  1.0000 0.0770004517
C   C376      1.0  0.31195  0.50000  0.68805  1.0000 -0.0350881152
C   C377      1.0  0.08400  0.50000  0.91600  1.0000 0.6277316872
C   C378      1.0  0.11230  0.50000  0.88770  1.0000 0.0002747847
C   C379      1.0  0.16088  0.50000  0.83912  1.0000 0.0770004517
C   C380      1.0  0.18805  0.50000  0.81195  1.0000 -0.0350881152
C   C381      1.0  0.91600  0.83200  0.41600  1.0000 0.6277316872
C   C382      1.0  0.88770  0.77540  0.38770  1.0000 0.0002747847
C   C383      1.0  0.83912  0.67824  0.33912  1.0000 0.0770004517
C   C384      1.0  0.81195  0.62390  0.31195  1.0000 -0.0350881152
C   C385      1.0  0.45540  0.09510  0.09510  1.0000 0.6193464933
C   C386      1.0  0.47680  0.13940  0.13940  1.0000 -0.0692488776
C   C387      1.0  0.52840  0.22740  0.22740  1.0000 -0.0692488776
C   C388      1.0  0.00000  0.90490  0.36030  1.0000 0.6193464933
C   C389      1.0  0.00000  0.86060  0.33740  1.0000 -0.0692488776
C   C390      1.0  0.00000  0.77260  0.30100  1.0000 -0.0692488776
C   C391      1.0  0.54460  0.63970  0.63970  1.0000 0.6193464933
C   C392      1.0  0.52320  0.66260  0.66260  1.0000 -0.0692488776
C   C393      1.0  0.47160  0.69900  0.69900  1.0000 -0.0692488776
C   C394      1.0  0.00000  0.36030  0.90490  1.0000 0.6193464933
C   C395      1.0  0.00000  0.33740  0.86060  1.0000 -0.0692488776
C   C396      1.0  0.00000  0.30100  0.77260  1.0000 -0.0692488776
C   C397      1.0  0.36030  0.00000  0.90490  1.0000 0.6193464933
C   C398      1.0  0.33740  0.00000  0.86060  1.0000 -0.0692488776
C   C399      1.0  0.30100  0.00000  0.77260  1.0000 -0.0692488776
C   C400      1.0  0.09510  0.45540  0.09510  1.0000 0.6193464933
C   C401      1.0  0.13940  0.47680  0.13940  1.0000 -0.0692488776
C   C402      1.0  0.22740  0.52840  0.22740  1.0000 -0.0692488776
C   C403      1.0  0.90490  0.00000  0.36030  1.0000 0.6193464933
C   C404      1.0  0.86060  0.00000  0.33740  1.0000 -0.0692488776
C   C405      1.0  0.77260  0.00000  0.30100  1.0000 -0.0692488776
C   C406      1.0  0.63970  0.54460  0.63970  1.0000 0.6193464933
C   C407      1.0  0.66260  0.52320  0.66260  1.0000 -0.0692488776
C   C408      1.0  0.69900  0.47160  0.69900  1.0000 -0.0692488776
C   C409      1.0  0.36030  0.90490  0.00000  1.0000 0.6193464933
C   C410      1.0  0.33740  0.86060  0.00000  1.0000 -0.0692488776
C   C411      1.0  0.30100  0.77260  0.00000  1.0000 -0.0692488776
C   C412      1.0  0.63970  0.63970  0.54460  1.0000 0.6193464933
C   C413      1.0  0.66260  0.66260  0.52320  1.0000 -0.0692488776
C   C414      1.0  0.69900  0.69900  0.47160  1.0000 -0.0692488776
C   C415      1.0  0.90490  0.36030  0.00000  1.0000 0.6193464933
C   C416      1.0  0.86060  0.33740  0.00000  1.0000 -0.0692488776
C   C417      1.0  0.77260  0.30100  0.00000  1.0000 -0.0692488776
C   C418      1.0  0.09510  0.09510  0.45540  1.0000 0.6193464933
C   C419      1.0  0.13940  0.13940  0.47680  1.0000 -0.0692488776
C   C420      1.0  0.22740  0.22740  0.52840  1.0000 -0.0692488776
C   C421      1.0  0.90490  0.90490  0.54460  1.0000 0.6193464933
C   C422      1.0  0.86060  0.86060  0.52320  1.0000 -0.0692488776
C   C423      1.0  0.77260  0.77260  0.47160  1.0000 -0.0692488776
C   C424      1.0  0.63970  0.09510  0.00000  1.0000 0.6193464933
C   C425      1.0  0.66260  0.13940  0.00000  1.0000 -0.0692488776
C   C426      1.0  0.69900  0.22740  0.00000  1.0000 -0.0692488776
C   C427      1.0  0.36030  0.36030  0.45540  1.0000 0.6193464933
C   C428      1.0  0.33740  0.33740  0.47680  1.0000 -0.0692488776
C   C429      1.0  0.30100  0.30100  0.52840  1.0000 -0.0692488776
C   C430      1.0  0.09510  0.63970  0.00000  1.0000 0.6193464933
C   C431      1.0  0.13940  0.66260  0.00000  1.0000 -0.0692488776
C   C432      1.0  0.22740  0.69900  0.00000  1.0000 -0.0692488776
C   C433      1.0  0.09510  0.00000  0.63970  1.0000 0.6193464933
C   C434      1.0  0.13940  0.00000  0.66260  1.0000 -0.0692488776
C   C435      1.0  0.22740  0.00000  0.69900  1.0000 -0.0692488776
C   C436      1.0  0.90490  0.54460  0.90490  1.0000 0.6193464933
C   C437      1.0  0.86060  0.52320  0.86060  1.0000 -0.0692488776
C   C438      1.0  0.77260  0.47160  0.77260  1.0000 -0.0692488776
C   C439      1.0  0.63970  0.00000  0.09510  1.0000 0.6193464933
C   C440      1.0  0.66260  0.00000  0.13940  1.0000 -0.0692488776
C   C441      1.0  0.69900  0.00000  0.22740  1.0000 -0.0692488776
C   C442      1.0  0.36030  0.45540  0.36030  1.0000 0.6193464933
C   C443      1.0  0.33740  0.47680  0.33740  1.0000 -0.0692488776
C   C444      1.0  0.30100  0.52840  0.30100  1.0000 -0.0692488776
C   C445      1.0  0.00000  0.09510  0.63970  1.0000 0.6193464933
C   C446      1.0  0.00000  0.13940  0.66260  1.0000 -0.0692488776
C   C447      1.0  0.00000  0.22740  0.69900  1.0000 -0.0692488776
C   C448      1.0  0.45540  0.36030  0.36030  1.0000 0.6193464933
C   C449      1.0  0.47680  0.33740  0.33740  1.0000 -0.0692488776
C   C450      1.0  0.52840  0.30100  0.30100  1.0000 -0.0692488776
C   C451      1.0  0.00000  0.63970  0.09510  1.0000 0.6193464933
C   C452      1.0  0.00000  0.66260  0.13940  1.0000 -0.0692488776
C   C453      1.0  0.00000  0.69900  0.22740  1.0000 -0.0692488776
C   C454      1.0  0.54460  0.90490  0.90490  1.0000 0.6193464933
C   C455      1.0  0.52320  0.86060  0.86060  1.0000 -0.0692488776
C   C456      1.0  0.47160  0.77260  0.77260  1.0000 -0.0692488776
S   S1        1.0  0.56480  0.28240  0.28240  1.0000 0.9581137536
S   S2        1.0  0.00000  0.71760  0.28240  1.0000 0.9581137536
S   S3        1.0  0.43520  0.71760  0.71760  1.0000 0.9581137536
S   S4        1.0  0.00000  0.28240  0.71760  1.0000 0.9581137536
S   S5        1.0  0.28240  0.00000  0.71760  1.0000 0.9581137536
S   S6        1.0  0.28240  0.56480  0.28240  1.0000 0.9581137536
S   S7        1.0  0.71760  0.00000  0.28240  1.0000 0.9581137536
S   S8        1.0  0.71760  0.43520  0.71760  1.0000 0.9581137536
S   S9        1.0  0.28240  0.71760  0.00000  1.0000 0.9581137536
S   S10       1.0  0.71760  0.71760  0.43520  1.0000 0.9581137536
S   S11       1.0  0.71760  0.28240  0.00000  1.0000 0.9581137536
S   S12       1.0  0.28240  0.28240  0.56480  1.0000 0.9581137536
N   N1        1.0  0.69860  0.24940  0.44920  1.0000 -0.3754047672
N   N2        1.0  0.19980  0.75060  0.44920  1.0000 -0.3754047672
N   N3        1.0  0.30140  0.75060  0.55080  1.0000 -0.3742405188
N   N4        1.0  0.80020  0.24940  0.55080  1.0000 -0.3754047672
N   N5        1.0  0.44920  0.19980  0.75060  1.0000 -0.3754047672
N   N6        1.0  0.44920  0.69860  0.24940  1.0000 -0.3742405188
N   N7        1.0  0.55080  0.80020  0.24940  1.0000 -0.3754047672
N   N8        1.0  0.55080  0.30140  0.75060  1.0000 -0.3742405188
N   N9        1.0  0.24940  0.55080  0.80020  1.0000 -0.3742405188
N   N10       1.0  0.75060  0.55080  0.30140  1.0000 -0.3754047672
N   N11       1.0  0.75060  0.44920  0.19980  1.0000 -0.3754047672
N   N12       1.0  0.24940  0.44920  0.69860  1.0000 -0.3754047672
N   N13       1.0  0.55080  0.75060  0.30140  1.0000 -0.3754047672
N   N14       1.0  0.55080  0.24940  0.80020  1.0000 -0.3754047672
N   N15       1.0  0.44920  0.24940  0.69860  1.0000 -0.3754047672
N   N16       1.0  0.44920  0.75060  0.19980  1.0000 -0.3742405188
N   N17       1.0  0.24940  0.80020  0.55080  1.0000 -0.3742405188
N   N18       1.0  0.75060  0.30140  0.55080  1.0000 -0.3742405188
N   N19       1.0  0.75060  0.19980  0.44920  1.0000 -0.3754047672
N   N20       1.0  0.24940  0.69860  0.44920  1.0000 -0.3754047672
N   N21       1.0  0.19980  0.44920  0.75060  1.0000 -0.3742405188
N   N22       1.0  0.69860  0.44920  0.24940  1.0000 -0.3742405188
N   N23       1.0  0.80020  0.55080  0.24940  1.0000 -0.3742405188
N   N24       1.0  0.30140  0.55080  0.75060  1.0000 -0.3742405188
O   O1        1.0  0.54101  0.05411  0.15002  1.0000 -0.6311119385
O   O2        1.0  0.45019  0.05722  0.09881  1.0000 -0.6771979841
O   O3        1.0  0.09591  0.94589  0.48690  1.0000 -0.6311119385
O   O4        1.0  0.04159  0.94278  0.39297  1.0000 -0.6771979841
O   O5        1.0  0.45899  0.60901  0.51310  1.0000 -0.6311119385
O   O6        1.0  0.54981  0.64862  0.60703  1.0000 -0.6771979841
O   O7        1.0  0.90409  0.39099  0.84998  1.0000 -0.6311119385
O   O8        1.0  0.95841  0.35138  0.90119  1.0000 -0.6771979841
O   O9        1.0  0.48690  0.09591  0.94589  1.0000 -0.6311119385
O   O10       1.0  0.39297  0.04159  0.94278  1.0000 -0.6771979841
O   O11       1.0  0.15002  0.54101  0.05411  1.0000 -0.6311119385
O   O12       1.0  0.09881  0.45019  0.05722  1.0000 -0.6771979841
O   O13       1.0  0.84998  0.90409  0.39099  1.0000 -0.6311119385
O   O14       1.0  0.90119  0.95841  0.35138  1.0000 -0.6771979841
O   O15       1.0  0.51310  0.45899  0.60901  1.0000 -0.6311119385
O   O16       1.0  0.60703  0.54981  0.64862  1.0000 -0.6771979841
O   O17       1.0  0.39099  0.84998  0.90409  1.0000 -0.6311119385
O   O18       1.0  0.35138  0.90119  0.95841  1.0000 -0.6771979841
O   O19       1.0  0.60901  0.51310  0.45899  1.0000 -0.6311119385
O   O20       1.0  0.64862  0.60703  0.54981  1.0000 -0.6771979841
O   O21       1.0  0.94589  0.48690  0.09591  1.0000 -0.6311119385
O   O22       1.0  0.94278  0.39297  0.04159  1.0000 -0.6771979841
O   O23       1.0  0.05411  0.15002  0.54101  1.0000 -0.6311119385
O   O24       1.0  0.05722  0.09881  0.45019  1.0000 -0.6771979841
O   O25       1.0  0.84998  0.94589  0.45899  1.0000 -0.6311119385
O   O26       1.0  0.90119  0.94278  0.54981  1.0000 -0.6771979841
O   O27       1.0  0.51310  0.05411  0.90409  1.0000 -0.6311119385
O   O28       1.0  0.60703  0.05722  0.95841  1.0000 -0.6771979841
O   O29       1.0  0.48690  0.39099  0.54101  1.0000 -0.6311119385
O   O30       1.0  0.39297  0.35138  0.45019  1.0000 -0.6771979841
O   O31       1.0  0.15002  0.60901  0.09591  1.0000 -0.6311119385
O   O32       1.0  0.09881  0.64862  0.04159  1.0000 -0.6771979841
O   O33       1.0  0.05411  0.90409  0.51310  1.0000 -0.6311119385
O   O34       1.0  0.05722  0.95841  0.60703  1.0000 -0.6771979841
O   O35       1.0  0.94589  0.45899  0.84998  1.0000 -0.6311119385
O   O36       1.0  0.94278  0.54981  0.90119  1.0000 -0.6771979841
O   O37       1.0  0.60901  0.09591  0.15002  1.0000 -0.6311119385
O   O38       1.0  0.64862  0.04159  0.09881  1.0000 -0.6771979841
O   O39       1.0  0.39099  0.54101  0.48690  1.0000 -0.6311119385
O   O40       1.0  0.35138  0.45019  0.39297  1.0000 -0.6771979841
O   O41       1.0  0.09591  0.15002  0.60901  1.0000 -0.6311119385
O   O42       1.0  0.04159  0.09881  0.64862  1.0000 -0.6771979841
O   O43       1.0  0.54101  0.48690  0.39099  1.0000 -0.6311119385
O   O44       1.0  0.45019  0.39297  0.35138  1.0000 -0.6771979841
O   O45       1.0  0.90409  0.51310  0.05411  1.0000 -0.6311119385
O   O46       1.0  0.95841  0.60703  0.05722  1.0000 -0.6771979841
O   O47       1.0  0.45899  0.84998  0.94589  1.0000 -0.6311119385
O   O48       1.0  0.54981  0.90119  0.94278  1.0000 -0.6771979841
O   O49       1.0  0.45899  0.94589  0.84998  1.0000 -0.6311119385
O   O50       1.0  0.54981  0.94278  0.90119  1.0000 -0.6771979841
O   O51       1.0  0.90409  0.05411  0.51310  1.0000 -0.6311119385
O   O52       1.0  0.95841  0.05722  0.60703  1.0000 -0.6771979841
O   O53       1.0  0.54101  0.39099  0.48690  1.0000 -0.6311119385
O   O54       1.0  0.45019  0.35138  0.39297  1.0000 -0.6771979841
O   O55       1.0  0.09591  0.60901  0.15002  1.0000 -0.6311119385
O   O56       1.0  0.04159  0.64862  0.09881  1.0000 -0.6771979841
O   O57       1.0  0.51310  0.90409  0.05411  1.0000 -0.6311119385
O   O58       1.0  0.60703  0.95841  0.05722  1.0000 -0.6771979841
O   O59       1.0  0.84998  0.45899  0.94589  1.0000 -0.6311119385
O   O60       1.0  0.90119  0.54981  0.94278  1.0000 -0.6771979841
O   O61       1.0  0.15002  0.09591  0.60901  1.0000 -0.6311119385
O   O62       1.0  0.09881  0.04159  0.64862  1.0000 -0.6771979841
O   O63       1.0  0.48690  0.54101  0.39099  1.0000 -0.6311119385
O   O64       1.0  0.39297  0.45019  0.35138  1.0000 -0.6771979841
O   O65       1.0  0.60901  0.15002  0.09591  1.0000 -0.6311119385
O   O66       1.0  0.64862  0.09881  0.04159  1.0000 -0.6771979841
O   O67       1.0  0.39099  0.48690  0.54101  1.0000 -0.6311119385
O   O68       1.0  0.35138  0.39297  0.45019  1.0000 -0.6771979841
O   O69       1.0  0.05411  0.51310  0.90409  1.0000 -0.6311119385
O   O70       1.0  0.05722  0.60703  0.95841  1.0000 -0.6771979841
O   O71       1.0  0.94589  0.84998  0.45899  1.0000 -0.6311119385
O   O72       1.0  0.94278  0.90119  0.54981  1.0000 -0.6771979841
O   O73       1.0  0.15002  0.05411  0.54101  1.0000 -0.6311119385
O   O74       1.0  0.09881  0.05722  0.45019  1.0000 -0.6771979841
O   O75       1.0  0.48690  0.94589  0.09591  1.0000 -0.6311119385
O   O76       1.0  0.39297  0.94278  0.04159  1.0000 -0.6771979841
O   O77       1.0  0.51310  0.60901  0.45899  1.0000 -0.6311119385
O   O78       1.0  0.60703  0.64862  0.54981  1.0000 -0.6771979841
O   O79       1.0  0.84998  0.39099  0.90409  1.0000 -0.6311119385
O   O80       1.0  0.90119  0.35138  0.95841  1.0000 -0.6771979841
O   O81       1.0  0.94589  0.09591  0.48690  1.0000 -0.6311119385
O   O82       1.0  0.94278  0.04159  0.39297  1.0000 -0.6771979841
O   O83       1.0  0.05411  0.54101  0.15002  1.0000 -0.6311119385
O   O84       1.0  0.05722  0.45019  0.09881  1.0000 -0.6771979841
O   O85       1.0  0.39099  0.90409  0.84998  1.0000 -0.6311119385
O   O86       1.0  0.35138  0.95841  0.90119  1.0000 -0.6771979841
O   O87       1.0  0.60901  0.45899  0.51310  1.0000 -0.6311119385
O   O88       1.0  0.64862  0.54981  0.60703  1.0000 -0.6771979841
O   O89       1.0  0.90409  0.84998  0.39099  1.0000 -0.6311119385
O   O90       1.0  0.95841  0.90119  0.35138  1.0000 -0.6771979841
O   O91       1.0  0.45899  0.51310  0.60901  1.0000 -0.6311119385
O   O92       1.0  0.54981  0.60703  0.64862  1.0000 -0.6771979841
O   O93       1.0  0.09591  0.48690  0.94589  1.0000 -0.6311119385
O   O94       1.0  0.04159  0.39297  0.94278  1.0000 -0.6771979841
O   O95       1.0  0.54101  0.15002  0.05411  1.0000 -0.6311119385
O   O96       1.0  0.45019  0.09881  0.05722  1.0000 -0.6771979841
O   O97       1.0  0.54497  0.00000  0.06371  1.0000 -1.1009105655
O   O98       1.0  0.06371  0.00000  0.54497  1.0000 -1.1009105655
O   O99       1.0  0.45503  0.51874  0.45503  1.0000 -1.1009105655
O   O100      1.0  0.93629  0.48126  0.93629  1.0000 -1.1009105655
O   O101      1.0  0.54497  0.06371  0.00000  1.0000 -1.1009105655
O   O102      1.0  0.06371  0.54497  0.00000  1.0000 -1.1009105655
O   O103      1.0  0.93629  0.93629  0.48126  1.0000 -1.1009105655
O   O104      1.0  0.45503  0.45503  0.51874  1.0000 -1.1009105655
O   O105      1.0  0.48126  0.93629  0.93629  1.0000 -1.1009105655
O   O106      1.0  0.51874  0.45503  0.45503  1.0000 -1.1009105655
O   O107      1.0  0.00000  0.54497  0.06371  1.0000 -1.1009105655
O   O108      1.0  0.00000  0.06371  0.54497  1.0000 -1.1009105655
O   O109      1.0  0.93629  0.00000  0.45503  1.0000 -1.1009105655
O   O110      1.0  0.45503  0.00000  0.93629  1.0000 -1.1009105655
O   O111      1.0  0.54497  0.48126  0.54497  1.0000 -1.1009105655
O   O112      1.0  0.06371  0.51874  0.06371  1.0000 -1.1009105655
O   O113      1.0  0.00000  0.93629  0.45503  1.0000 -1.1009105655
O   O114      1.0  0.00000  0.45503  0.93629  1.0000 -1.1009105655
O   O115      1.0  0.51874  0.06371  0.06371  1.0000 -1.1009105655
O   O116      1.0  0.48126  0.54497  0.54497  1.0000 -1.1009105655
O   O117      1.0  0.06371  0.06371  0.51874  1.0000 -1.1009105655
O   O118      1.0  0.54497  0.54497  0.48126  1.0000 -1.1009105655
O   O119      1.0  0.93629  0.45503  0.00000  1.0000 -1.1009105655
O   O120      1.0  0.45503  0.93629  0.00000  1.0000 -1.1009105655
O   O121      1.0  0.59090  0.31770  0.27320  1.0000 -0.4930819881
O   O122      1.0  0.95550  0.68230  0.27320  1.0000 -0.4930819881
O   O123      1.0  0.40910  0.68230  0.72680  1.0000 -0.4930819881
O   O124      1.0  0.04450  0.31770  0.72680  1.0000 -0.4930819881
O   O125      1.0  0.27320  0.95550  0.68230  1.0000 -0.4930819881
O   O126      1.0  0.27320  0.59090  0.31770  1.0000 -0.4930819881
O   O127      1.0  0.72680  0.04450  0.31770  1.0000 -0.4930819881
O   O128      1.0  0.72680  0.40910  0.68230  1.0000 -0.4930819881
O   O129      1.0  0.31770  0.72680  0.04450  1.0000 -0.4930819881
O   O130      1.0  0.68230  0.72680  0.40910  1.0000 -0.4930819881
O   O131      1.0  0.68230  0.27320  0.95550  1.0000 -0.4930819881
O   O132      1.0  0.31770  0.27320  0.59090  1.0000 -0.4930819881
O   O133      1.0  0.72680  0.68230  0.40910  1.0000 -0.4930819881
O   O134      1.0  0.72680  0.31770  0.04450  1.0000 -0.4930819881
O   O135      1.0  0.27320  0.31770  0.59090  1.0000 -0.4930819881
O   O136      1.0  0.27320  0.68230  0.95550  1.0000 -0.4930819881
O   O137      1.0  0.31770  0.04450  0.72680  1.0000 -0.4930819881
O   O138      1.0  0.68230  0.40910  0.72680  1.0000 -0.4930819881
O   O139      1.0  0.68230  0.95550  0.27320  1.0000 -0.4930819881
O   O140      1.0  0.31770  0.59090  0.27320  1.0000 -0.4930819881
O   O141      1.0  0.95550  0.27320  0.68230  1.0000 -0.4930819881
O   O142      1.0  0.59090  0.27320  0.31770  1.0000 -0.4930819881
O   O143      1.0  0.04450  0.72680  0.31770  1.0000 -0.4930819881
O   O144      1.0  0.40910  0.72680  0.68230  1.0000 -0.4930819881
O   O145      1.0  0.43540  0.00000  0.00000  1.0000 -1.1157465887
O   O146      1.0  0.00000  0.00000  0.43540  1.0000 -1.1157465887
O   O147      1.0  0.56460  0.56460  0.56460  1.0000 -1.1157465887
O   O148      1.0  0.00000  0.43540  0.00000  1.0000 -1.1157465887
O   O149      1.0  0.00000  0.00000  0.56460  1.0000 -1.1125023079
O   O150      1.0  0.56460  0.00000  0.00000  1.0000 -1.1157465887
O   O151      1.0  0.43540  0.43540  0.43540  1.0000 -1.1157465887
O   O152      1.0  0.00000  0.56460  0.00000  1.0000 -1.1125023079
