# DDEC6 charges by PACMAN v1.1 (https://github.com/mtap-research/PACMAN-charge/)
data_2019[Cu][sql]2[ASR]11
_chemical_formula_sum              "Cu4 H48 C58 N12 O12"
_cell_length_a       8.738
_cell_length_b       11.61
_cell_length_c       16.083
_cell_angle_alpha    101.83
_cell_angle_beta     91.448
_cell_angle_gamma    101.403

_symmetry_space_group_name_H-M    "P 1"
_symmetry_Int_Tables_number       1

loop_
  _symmetry_equiv_pos_as_xyz
  'x, y, z'

loop_
  _atom_site_type_symbol
  _atom_site_label
  _atom_site_symmetry_multiplicity
  _atom_site_fract_x
  _atom_site_fract_y
  _atom_site_fract_z
  _atom_site_occupancy
  _atom_site_charge
Cu  Cu1       1.0  0.55275  0.33690  0.30190  1.0000 0.7747685957
Cu  Cu2       1.0  0.77950  0.61761  0.64964  1.0000 0.7583360124
Cu  Cu3       1.0  0.44725  0.66310  0.69810  1.0000 0.7747685957
Cu  Cu4       1.0  0.22050  0.38239  0.35036  1.0000 0.7583360124
H   H1        1.0  0.97500  0.21800  0.42890  1.0000 0.2635844398
H   H2        1.0  0.03300  0.30100  0.54680  1.0000 0.2724869895
H   H3        1.0  0.61360  0.57760  0.45780  1.0000 0.1105501976
H   H4        1.0  0.76200  0.13820  0.19950  1.0000 0.1003606084
H   H5        1.0  0.58740  0.07900  0.21700  1.0000 0.1003606084
H   H6        1.0  0.68210  0.99030  0.32090  1.0000 0.1200121398
H   H7        1.0  0.76560  0.95270  0.23470  1.0000 0.1200121398
H   H8        1.0  0.94690  0.02150  0.35950  1.0000 0.1105501976
H   H9        1.0  0.99230  0.09420  0.28580  1.0000 0.1003606084
H   H10       1.0  0.94390  0.54190  0.79230  1.0000 0.1105501976
H   H11       1.0  0.10420  0.55940  0.74580  1.0000 0.1003606084
H   H12       1.0  0.91370  0.33270  0.75660  1.0000 0.1105501976
H   H13       1.0  0.08490  0.38820  0.80290  1.0000 0.1200121398
H   H14       1.0  0.20160  0.36390  0.67430  1.0000 0.1003606084
H   H15       1.0  0.08440  0.23830  0.67280  1.0000 0.1105501976
H   H16       1.0  0.44140  0.68210  0.14040  1.0000 0.1200121398
H   H17       1.0  0.37320  0.86810  0.16720  1.0000 0.1200121398
H   H18       1.0  0.32570  0.04860  0.27400  1.0000 0.1200121398
H   H19       1.0  0.28100  0.02490  0.52120  1.0000 0.1105501976
H   H20       1.0  0.34750  0.83810  0.49270  1.0000 0.1105501976
H   H21       1.0  0.42070  0.67000  0.39040  1.0000 0.1200121398
H   H22       1.0  0.61410  0.93530  0.91900  1.0000 0.1200121398
H   H23       1.0  0.74220  0.08820  0.03010  1.0000 0.1200121398
H   H24       1.0  0.01540  0.81230  0.87650  1.0000 0.1200121398
H   H25       1.0  0.02500  0.78200  0.57110  1.0000 0.2635844398
H   H26       1.0  0.96700  0.69900  0.45320  1.0000 0.2724869895
H   H27       1.0  0.38640  0.42240  0.54220  1.0000 0.1105501976
H   H28       1.0  0.23800  0.86180  0.80050  1.0000 0.1003606084
H   H29       1.0  0.41260  0.92100  0.78300  1.0000 0.1003606084
H   H30       1.0  0.31790  0.00970  0.67910  1.0000 0.1200121398
H   H31       1.0  0.23440  0.04730  0.76530  1.0000 0.1200121398
H   H32       1.0  0.05310  0.97850  0.64050  1.0000 0.1105501976
H   H33       1.0  0.00770  0.90580  0.71420  1.0000 0.1003606084
H   H34       1.0  0.05610  0.45810  0.20770  1.0000 0.1105501976
H   H35       1.0  0.89580  0.44060  0.25420  1.0000 0.1003606084
H   H36       1.0  0.08630  0.66730  0.24340  1.0000 0.1105501976
H   H37       1.0  0.91510  0.61180  0.19710  1.0000 0.1200121398
H   H38       1.0  0.79840  0.63610  0.32570  1.0000 0.1003606084
H   H39       1.0  0.91560  0.76170  0.32720  1.0000 0.1105501976
H   H40       1.0  0.55860  0.31790  0.85960  1.0000 0.1200121398
H   H41       1.0  0.62680  0.13190  0.83280  1.0000 0.1200121398
H   H42       1.0  0.67430  0.95140  0.72600  1.0000 0.1200121398
H   H43       1.0  0.71900  0.97510  0.47880  1.0000 0.1105501976
H   H44       1.0  0.65250  0.16190  0.50730  1.0000 0.1105501976
H   H45       1.0  0.57930  0.33000  0.60960  1.0000 0.1200121398
H   H46       1.0  0.38590  0.06470  0.08100  1.0000 0.1200121398
H   H47       1.0  0.25780  0.91180  0.96990  1.0000 0.1200121398
H   H48       1.0  0.98460  0.18770  0.12350  1.0000 0.1200121398
C   C1        1.0  0.67420  0.52010  0.46428  1.0000 0.1884635437
C   C2        1.0  0.83070  0.42720  0.51965  1.0000 -0.0200131885
C   C3        1.0  0.77970  0.36282  0.43682  1.0000 -0.0099960846
C   C4        1.0  0.79160  0.25151  0.37491  1.0000 0.3275126863
C   C5        1.0  0.69400  0.11453  0.24406  1.0000 -0.0294351227
C   C6        1.0  0.75580  0.02120  0.28099  1.0000 -0.211181606
C   C7        1.0  0.91350  0.07740  0.32726  1.0000 -0.0294351227
C   C8        1.0  0.92330  0.42082  0.59664  1.0000 0.3225560832
C   C9        1.0  0.99930  0.50700  0.74358  1.0000 -0.0294351227
C   C10       1.0  0.01740  0.38250  0.75127  1.0000 -0.1969423842
C   C11       1.0  0.09000  0.32430  0.67302  1.0000 -0.0294351227
C   C12       1.0  0.48910  0.53831  0.24664  1.0000 0.5506727743
C   C13       1.0  0.43930  0.65825  0.26405  1.0000 -0.0099960846
C   C14       1.0  0.42400  0.71860  0.19691  1.0000 -0.1201844466
C   C15       1.0  0.38440  0.82928  0.21293  1.0000 -0.1617837053
C   C16       1.0  0.35970  0.88665  0.29708  1.0000 0.0686559763
C   C17       1.0  0.32880  0.00472  0.31763  1.0000 -0.1805156719
C   C18       1.0  0.30320  0.05652  0.39999  1.0000 -0.0200131885
C   C19       1.0  0.30520  0.99123  0.46535  1.0000 -0.1080090505
C   C20       1.0  0.34180  0.87975  0.44808  1.0000 -0.1521875512
C   C21       1.0  0.37150  0.82567  0.36402  1.0000 0.0756142038
C   C22       1.0  0.41210  0.71107  0.34561  1.0000 -0.1706492331
C   C23       1.0  0.26500  0.17999  0.42188  1.0000 0.5616070676
C   C24       1.0  0.72690  0.76874  0.80987  1.0000 0.5822746802
C   C25       1.0  0.80600  0.86116  0.88636  1.0000 -0.0200131885
C   C26       1.0  0.72230  0.94255  0.93332  1.0000 -0.1201844466
C   C27       1.0  0.79780  0.03230  0.99975  1.0000 -0.1617837053
C   C28       1.0  0.04130  0.95843  0.97688  1.0000 0.0756142038
C   C29       1.0  0.96120  0.86834  0.90803  1.0000 -0.1617837053
C   C30       1.0  0.32580  0.47990  0.53572  1.0000 0.1884635437
C   C31       1.0  0.16930  0.57280  0.48035  1.0000 -0.0200131885
C   C32       1.0  0.22030  0.63718  0.56318  1.0000 -0.0099960846
C   C33       1.0  0.20840  0.74849  0.62509  1.0000 0.3275126863
C   C34       1.0  0.30600  0.88547  0.75594  1.0000 -0.0294351227
C   C35       1.0  0.24420  0.97880  0.71901  1.0000 -0.211181606
C   C36       1.0  0.08650  0.92260  0.67274  1.0000 -0.0294351227
C   C37       1.0  0.07670  0.57918  0.40336  1.0000 0.3225560832
C   C38       1.0  0.00070  0.49300  0.25642  1.0000 -0.0294351227
C   C39       1.0  0.98260  0.61750  0.24873  1.0000 -0.1969423842
C   C40       1.0  0.91000  0.67570  0.32698  1.0000 -0.0294351227
C   C41       1.0  0.51090  0.46169  0.75336  1.0000 0.5506727743
C   C42       1.0  0.56070  0.34175  0.73595  1.0000 -0.0099960846
C   C43       1.0  0.57600  0.28140  0.80309  1.0000 -0.1201844466
C   C44       1.0  0.61560  0.17072  0.78707  1.0000 -0.1617837053
C   C45       1.0  0.64030  0.11335  0.70292  1.0000 0.0686559763
C   C46       1.0  0.67120  0.99528  0.68237  1.0000 -0.1805156719
C   C47       1.0  0.69680  0.94348  0.60001  1.0000 -0.0200131885
C   C48       1.0  0.69480  0.00877  0.53465  1.0000 -0.1080090505
C   C49       1.0  0.65820  0.12025  0.55192  1.0000 -0.1521875512
C   C50       1.0  0.62850  0.17433  0.63598  1.0000 0.0756142038
C   C51       1.0  0.58790  0.28893  0.65439  1.0000 -0.1706492331
C   C52       1.0  0.73500  0.82001  0.57812  1.0000 0.5616070676
C   C53       1.0  0.27310  0.23126  0.19013  1.0000 0.5822746802
C   C54       1.0  0.19400  0.13884  0.11364  1.0000 -0.0200131885
C   C55       1.0  0.27770  0.05745  0.06668  1.0000 -0.1201844466
C   C56       1.0  0.20220  0.96770  0.00025  1.0000 -0.1617837053
C   C57       1.0  0.95870  0.04157  0.02312  1.0000 0.0756142038
C   C58       1.0  0.03880  0.13166  0.09197  1.0000 -0.1617837053
N   N1        1.0  0.68120  0.42383  0.40452  1.0000 -0.3217171904
N   N2        1.0  0.76210  0.52610  0.53412  1.0000 -0.3393476856
N   N3        1.0  0.68880  0.22185  0.30990  1.0000 -0.3703436356
N   N4        1.0  0.90210  0.19004  0.38603  1.0000 -0.3217171904
N   N5        1.0  0.91170  0.50357  0.66390  1.0000 -0.382750566
N   N6        1.0  0.00640  0.33556  0.59593  1.0000 -0.293775956
N   N7        1.0  0.31880  0.57617  0.59548  1.0000 -0.3217171904
N   N8        1.0  0.23790  0.47390  0.46588  1.0000 -0.3393476856
N   N9        1.0  0.31120  0.77815  0.69010  1.0000 -0.3703436356
N   N10       1.0  0.09790  0.80996  0.61397  1.0000 -0.3217171904
N   N11       1.0  0.08830  0.49643  0.33610  1.0000 -0.382750566
N   N12       1.0  0.99360  0.66444  0.40407  1.0000 -0.293775956
O   O1        1.0  0.46040  0.47770  0.30584  1.0000 -0.5972003293
O   O2        1.0  0.55730  0.50780  0.18257  1.0000 -0.5227213603
O   O3        1.0  0.31941  0.25311  0.37490  1.0000 -0.5880005312
O   O4        1.0  0.17924  0.20003  0.48138  1.0000 -0.5590902519
O   O5        1.0  0.81424  0.70777  0.76678  1.0000 -0.5355592918
O   O6        1.0  0.58281  0.76266  0.79525  1.0000 -0.5227213603
O   O7        1.0  0.53960  0.52230  0.69416  1.0000 -0.5972003293
O   O8        1.0  0.44270  0.49220  0.81743  1.0000 -0.5227213603
O   O9        1.0  0.68059  0.74689  0.62510  1.0000 -0.5880005312
O   O10       1.0  0.82076  0.79997  0.51862  1.0000 -0.5590902519
O   O11       1.0  0.18576  0.29223  0.23322  1.0000 -0.5355592918
O   O12       1.0  0.41719  0.23734  0.20475  1.0000 -0.5227213603
