# DDEC6 charges by PACMAN v1.1 (https://github.com/mtap-research/PACMAN-charge/)
data_2019[Co][tts]2[ASR]1
_chemical_formula_sum              "Co8 H96 C168 N16 O48"
_cell_length_a       19.0192
_cell_length_b       19.0192
_cell_length_c       19.0192
_cell_angle_alpha    110.207
_cell_angle_beta     110.207
_cell_angle_gamma    108.01

_symmetry_space_group_name_H-M    "P 1"
_symmetry_Int_Tables_number       1

loop_
  _symmetry_equiv_pos_as_xyz
  'x, y, z'

loop_
  _atom_site_type_symbol
  _atom_site_label
  _atom_site_symmetry_multiplicity
  _atom_site_fract_x
  _atom_site_fract_y
  _atom_site_fract_z
  _atom_site_occupancy
  _atom_site_charge
Co  Co1       1.0  0.21300  0.16484  0.50000  1.0000 0.8429294666
Co  Co2       1.0  0.66484  0.71300  0.50000  1.0000 0.8429294666
Co  Co3       1.0  0.71300  0.21300  0.04816  1.0000 0.8429294666
Co  Co4       1.0  0.16484  0.66484  0.95184  1.0000 0.8429294666
Co  Co5       1.0  0.28700  0.78700  0.95184  1.0000 0.8429294666
Co  Co6       1.0  0.83516  0.33516  0.04816  1.0000 0.8429294666
Co  Co7       1.0  0.78700  0.83516  0.50000  1.0000 0.8429294666
Co  Co8       1.0  0.33516  0.28700  0.50000  1.0000 0.8429294666
H   H1        1.0  0.16522  0.32432  0.31070  1.0000 0.1192517966
H   H2        1.0  0.06088  0.34314  0.22486  1.0000 0.1192517966
H   H3        1.0  0.99229  0.86319  0.37028  1.0000 0.1480272701
H   H4        1.0  0.00035  0.84644  0.55103  1.0000 0.1316778613
H   H5        1.0  0.02631  0.60223  0.29074  1.0000 0.1316778613
H   H6        1.0  0.06093  0.98824  0.37365  1.0000 0.1192517966
H   H7        1.0  0.01362  0.85452  0.68930  1.0000 0.1192517966
H   H8        1.0  0.11828  0.83602  0.77514  1.0000 0.1192517966
H   H9        1.0  0.49291  0.62201  0.62972  1.0000 0.1480272701
H   H10       1.0  0.29541  0.44932  0.44897  1.0000 0.1316778613
H   H11       1.0  0.31149  0.73557  0.70926  1.0000 0.1316778613
H   H12       1.0  0.61459  0.68728  0.62635  1.0000 0.1192517966
H   H13       1.0  0.85452  0.16522  0.84090  1.0000 0.1192517966
H   H14       1.0  0.83602  0.06088  0.71774  1.0000 0.1192517966
H   H15       1.0  0.62201  0.99229  0.12910  1.0000 0.1480272701
H   H16       1.0  0.44932  0.00035  0.15391  1.0000 0.1316778613
H   H17       1.0  0.73557  0.02631  0.42408  1.0000 0.1316778613
H   H18       1.0  0.68728  0.06093  0.07269  1.0000 0.1192517966
H   H19       1.0  0.32432  0.01362  0.15910  1.0000 0.1192517966
H   H20       1.0  0.34314  0.11828  0.28226  1.0000 0.1192517966
H   H21       1.0  0.86319  0.49291  0.87090  1.0000 0.1480272701
H   H22       1.0  0.84644  0.29541  0.84609  1.0000 0.1316778613
H   H23       1.0  0.60223  0.31149  0.57592  1.0000 0.1316778613
H   H24       1.0  0.98824  0.61459  0.92731  1.0000 0.1192517966
H   H25       1.0  0.33478  0.64548  0.15910  1.0000 0.1192517966
H   H26       1.0  0.43912  0.66398  0.28226  1.0000 0.1192517966
H   H27       1.0  0.50771  0.87799  0.87090  1.0000 0.1480272701
H   H28       1.0  0.49965  0.05068  0.84609  1.0000 0.1316778613
H   H29       1.0  0.47369  0.76443  0.57592  1.0000 0.1316778613
H   H30       1.0  0.43907  0.81272  0.92731  1.0000 0.1192517966
H   H31       1.0  0.48638  0.17568  0.84090  1.0000 0.1192517966
H   H32       1.0  0.38172  0.15686  0.71774  1.0000 0.1192517966
H   H33       1.0  0.00709  0.63681  0.12910  1.0000 0.1480272701
H   H34       1.0  0.20459  0.65356  0.15391  1.0000 0.1316778613
H   H35       1.0  0.18851  0.89777  0.42408  1.0000 0.1316778613
H   H36       1.0  0.88541  0.51176  0.07269  1.0000 0.1192517966
H   H37       1.0  0.64548  0.48638  0.31070  1.0000 0.1192517966
H   H38       1.0  0.66398  0.38172  0.22486  1.0000 0.1192517966
H   H39       1.0  0.87799  0.00709  0.37028  1.0000 0.1480272701
H   H40       1.0  0.05068  0.20459  0.55103  1.0000 0.1316778613
H   H41       1.0  0.76443  0.18851  0.29074  1.0000 0.1316778613
H   H42       1.0  0.81272  0.88541  0.37365  1.0000 0.1192517966
H   H43       1.0  0.17568  0.33478  0.68930  1.0000 0.1192517966
H   H44       1.0  0.15686  0.43912  0.77514  1.0000 0.1192517966
H   H45       1.0  0.63681  0.50771  0.62972  1.0000 0.1480272701
H   H46       1.0  0.65356  0.49965  0.44897  1.0000 0.1316778613
H   H47       1.0  0.89777  0.47369  0.70926  1.0000 0.1316778613
H   H48       1.0  0.51176  0.43907  0.62635  1.0000 0.1192517966
H   H49       1.0  0.83478  0.67568  0.68930  1.0000 0.1192517966
H   H50       1.0  0.93912  0.65686  0.77514  1.0000 0.1192517966
H   H51       1.0  0.00771  0.13681  0.62972  1.0000 0.1480272701
H   H52       1.0  0.99965  0.15356  0.44897  1.0000 0.1316778613
H   H53       1.0  0.97369  0.39777  0.70926  1.0000 0.1316778613
H   H54       1.0  0.93907  0.01176  0.62635  1.0000 0.1192517966
H   H55       1.0  0.98638  0.14548  0.31070  1.0000 0.1192517966
H   H56       1.0  0.88172  0.16398  0.22486  1.0000 0.1192517966
H   H57       1.0  0.50709  0.37799  0.37028  1.0000 0.1480272701
H   H58       1.0  0.70459  0.55068  0.55103  1.0000 0.1316778613
H   H59       1.0  0.68851  0.26443  0.29074  1.0000 0.1316778613
H   H60       1.0  0.38541  0.31272  0.37365  1.0000 0.1192517966
H   H61       1.0  0.14548  0.83478  0.15910  1.0000 0.1192517966
H   H62       1.0  0.16398  0.93912  0.28226  1.0000 0.1192517966
H   H63       1.0  0.37799  0.00771  0.87090  1.0000 0.1480272701
H   H64       1.0  0.55068  0.99965  0.84609  1.0000 0.1316778613
H   H65       1.0  0.26443  0.97369  0.57592  1.0000 0.1316778613
H   H66       1.0  0.31272  0.93907  0.92731  1.0000 0.1192517966
H   H67       1.0  0.67568  0.98638  0.84090  1.0000 0.1192517966
H   H68       1.0  0.65686  0.88172  0.71774  1.0000 0.1192517966
H   H69       1.0  0.13681  0.50709  0.12910  1.0000 0.1480272701
H   H70       1.0  0.15356  0.70459  0.15391  1.0000 0.1316778613
H   H71       1.0  0.39777  0.68851  0.42408  1.0000 0.1316778613
H   H72       1.0  0.01176  0.38541  0.07269  1.0000 0.1192517966
H   H73       1.0  0.66522  0.35452  0.84090  1.0000 0.1192517966
H   H74       1.0  0.56088  0.33602  0.71774  1.0000 0.1192517966
H   H75       1.0  0.49229  0.12201  0.12910  1.0000 0.1480272701
H   H76       1.0  0.50035  0.94932  0.15391  1.0000 0.1316778613
H   H77       1.0  0.52631  0.23557  0.42408  1.0000 0.1316778613
H   H78       1.0  0.56093  0.18728  0.07269  1.0000 0.1192517966
H   H79       1.0  0.51362  0.82432  0.15910  1.0000 0.1192517966
H   H80       1.0  0.61828  0.84314  0.28226  1.0000 0.1192517966
H   H81       1.0  0.99291  0.36319  0.87090  1.0000 0.1480272701
H   H82       1.0  0.79541  0.34644  0.84609  1.0000 0.1316778613
H   H83       1.0  0.81149  0.10223  0.57592  1.0000 0.1316778613
H   H84       1.0  0.11459  0.48824  0.92731  1.0000 0.1192517966
H   H85       1.0  0.35452  0.51362  0.68930  1.0000 0.1192517966
H   H86       1.0  0.33602  0.61828  0.77514  1.0000 0.1192517966
H   H87       1.0  0.12201  0.99291  0.62972  1.0000 0.1480272701
H   H88       1.0  0.94932  0.79541  0.44897  1.0000 0.1316778613
H   H89       1.0  0.23557  0.81149  0.70926  1.0000 0.1316778613
H   H90       1.0  0.18728  0.11459  0.62635  1.0000 0.1192517966
H   H91       1.0  0.82432  0.66522  0.31070  1.0000 0.1192517966
H   H92       1.0  0.84314  0.56088  0.22486  1.0000 0.1192517966
H   H93       1.0  0.36319  0.49229  0.37028  1.0000 0.1480272701
H   H94       1.0  0.34644  0.50035  0.55103  1.0000 0.1316778613
H   H95       1.0  0.10223  0.52631  0.29074  1.0000 0.1316778613
H   H96       1.0  0.48824  0.56093  0.37365  1.0000 0.1192517966
C   C1        1.0  0.10833  0.29286  0.29447  1.0000 -0.1008443544
C   C2        1.0  0.04578  0.30370  0.24248  1.0000 -0.1057131579
C   C3        1.0  0.03227  0.91355  0.42332  1.0000 -0.2011403749
C   C4        1.0  0.08574  0.67575  0.42003  1.0000 -0.0535830958
C   C5        1.0  0.03897  0.72674  0.41997  1.0000 0.4312786301
C   C6        1.0  0.06833  0.61400  0.34305  1.0000 -0.0913222125
C   C7        1.0  0.07391  0.98909  0.42588  1.0000 0.0932944193
C   C8        1.0  0.99839  0.81386  0.70553  1.0000 -0.1008443544
C   C9        1.0  0.06122  0.80330  0.75752  1.0000 -0.1057131579
C   C10       1.0  0.49023  0.60895  0.57668  1.0000 -0.2011403749
C   C11       1.0  0.25572  0.66571  0.57997  1.0000 -0.0535830958
C   C12       1.0  0.30677  0.61900  0.58003  1.0000 0.4312786301
C   C13       1.0  0.27095  0.72528  0.65695  1.0000 -0.0913222125
C   C14       1.0  0.56321  0.64803  0.57412  1.0000 0.0932944193
C   C15       1.0  0.81386  0.10833  0.81547  1.0000 -0.1008443544
C   C16       1.0  0.80330  0.04578  0.74208  1.0000 -0.1057131579
C   C17       1.0  0.60895  0.03227  0.11872  1.0000 -0.2011403749
C   C18       1.0  0.66571  0.08574  0.40999  1.0000 -0.0535830958
C   C19       1.0  0.61900  0.03897  0.31223  1.0000 0.4312786301
C   C20       1.0  0.72528  0.06833  0.45433  1.0000 -0.0913222125
C   C21       1.0  0.64803  0.07391  0.08482  1.0000 0.0932944193
C   C22       1.0  0.29286  0.99839  0.18453  1.0000 -0.1008443544
C   C23       1.0  0.30370  0.06122  0.25792  1.0000 -0.1057131579
C   C24       1.0  0.91355  0.49023  0.88128  1.0000 -0.2011403749
C   C25       1.0  0.67575  0.25572  0.59001  1.0000 -0.0535830958
C   C26       1.0  0.72674  0.30677  0.68777  1.0000 0.4312786301
C   C27       1.0  0.61400  0.27095  0.54567  1.0000 -0.0913222125
C   C28       1.0  0.98909  0.56321  0.91518  1.0000 0.0932944193
C   C29       1.0  0.39167  0.68614  0.18453  1.0000 -0.1008443544
C   C30       1.0  0.45422  0.69670  0.25792  1.0000 -0.1057131579
C   C31       1.0  0.46773  0.89105  0.88128  1.0000 -0.2011403749
C   C32       1.0  0.41426  0.83429  0.59001  1.0000 -0.0535830958
C   C33       1.0  0.46103  0.88100  0.68777  1.0000 0.4312786301
C   C34       1.0  0.43167  0.77472  0.54567  1.0000 -0.0913222125
C   C35       1.0  0.42609  0.85197  0.91518  1.0000 0.0932944193
C   C36       1.0  0.50161  0.20714  0.81547  1.0000 -0.1008443544
C   C37       1.0  0.43878  0.19630  0.74208  1.0000 -0.1057131579
C   C38       1.0  0.00977  0.58645  0.11872  1.0000 -0.2011403749
C   C39       1.0  0.24428  0.82425  0.40999  1.0000 -0.0535830958
C   C40       1.0  0.19323  0.77326  0.31223  1.0000 0.4312786301
C   C41       1.0  0.22905  0.88600  0.45433  1.0000 -0.0913222125
C   C42       1.0  0.93679  0.51091  0.08482  1.0000 0.0932944193
C   C43       1.0  0.68614  0.50161  0.29447  1.0000 -0.1008443544
C   C44       1.0  0.69670  0.43878  0.24248  1.0000 -0.1057131579
C   C45       1.0  0.89105  0.00977  0.42332  1.0000 -0.2011403749
C   C46       1.0  0.83429  0.24428  0.42003  1.0000 -0.0535830958
C   C47       1.0  0.88100  0.19323  0.41997  1.0000 0.4312786301
C   C48       1.0  0.77472  0.22905  0.34305  1.0000 -0.0913222125
C   C49       1.0  0.85197  0.93679  0.42588  1.0000 0.0932944193
C   C50       1.0  0.20714  0.39167  0.70553  1.0000 -0.1008443544
C   C51       1.0  0.19630  0.45422  0.75752  1.0000 -0.1057131579
C   C52       1.0  0.58645  0.46773  0.57668  1.0000 -0.2011403749
C   C53       1.0  0.82425  0.41426  0.57997  1.0000 -0.0535830958
C   C54       1.0  0.77326  0.46103  0.58003  1.0000 0.4312786301
C   C55       1.0  0.88600  0.43167  0.65695  1.0000 -0.0913222125
C   C56       1.0  0.51091  0.42609  0.57412  1.0000 0.0932944193
C   C57       1.0  0.89167  0.70714  0.70553  1.0000 -0.1008443544
C   C58       1.0  0.95422  0.69630  0.75752  1.0000 -0.1057131579
C   C59       1.0  0.96773  0.08645  0.57668  1.0000 -0.2011403749
C   C60       1.0  0.91426  0.32425  0.57997  1.0000 -0.0535830958
C   C61       1.0  0.96103  0.27326  0.58003  1.0000 0.4312786301
C   C62       1.0  0.93167  0.38600  0.65695  1.0000 -0.0913222125
C   C63       1.0  0.92609  0.01091  0.57412  1.0000 0.0932944193
C   C64       1.0  0.00161  0.18614  0.29447  1.0000 -0.1008443544
C   C65       1.0  0.93878  0.19670  0.24248  1.0000 -0.1057131579
C   C66       1.0  0.50977  0.39105  0.42332  1.0000 -0.2011403749
C   C67       1.0  0.74428  0.33429  0.42003  1.0000 -0.0535830958
C   C68       1.0  0.69323  0.38100  0.41997  1.0000 0.4312786301
C   C69       1.0  0.72905  0.27472  0.34305  1.0000 -0.0913222125
C   C70       1.0  0.43679  0.35197  0.42588  1.0000 0.0932944193
C   C71       1.0  0.18614  0.89167  0.18453  1.0000 -0.1008443544
C   C72       1.0  0.19670  0.95422  0.25792  1.0000 -0.1057131579
C   C73       1.0  0.39105  0.96773  0.88128  1.0000 -0.2011403749
C   C74       1.0  0.33429  0.91426  0.59001  1.0000 -0.0535830958
C   C75       1.0  0.38100  0.96103  0.68777  1.0000 0.4312786301
C   C76       1.0  0.27472  0.93167  0.54567  1.0000 -0.0913222125
C   C77       1.0  0.35197  0.92609  0.91518  1.0000 0.0932944193
C   C78       1.0  0.70714  0.00161  0.81547  1.0000 -0.1008443544
C   C79       1.0  0.69630  0.93878  0.74208  1.0000 -0.1057131579
C   C80       1.0  0.08645  0.50977  0.11872  1.0000 -0.2011403749
C   C81       1.0  0.32425  0.74428  0.40999  1.0000 -0.0535830958
C   C82       1.0  0.27326  0.69323  0.31223  1.0000 0.4312786301
C   C83       1.0  0.38600  0.72905  0.45433  1.0000 -0.0913222125
C   C84       1.0  0.01091  0.43679  0.08482  1.0000 0.0932944193
C   C85       1.0  0.60833  0.31386  0.81547  1.0000 -0.1008443544
C   C86       1.0  0.54578  0.30330  0.74208  1.0000 -0.1057131579
C   C87       1.0  0.53227  0.10895  0.11872  1.0000 -0.2011403749
C   C88       1.0  0.58574  0.16571  0.40999  1.0000 -0.0535830958
C   C89       1.0  0.53897  0.11900  0.31223  1.0000 0.4312786301
C   C90       1.0  0.56833  0.22528  0.45433  1.0000 -0.0913222125
C   C91       1.0  0.57391  0.14803  0.08482  1.0000 0.0932944193
C   C92       1.0  0.49839  0.79286  0.18453  1.0000 -0.1008443544
C   C93       1.0  0.56122  0.80370  0.25792  1.0000 -0.1057131579
C   C94       1.0  0.99023  0.41355  0.88128  1.0000 -0.2011403749
C   C95       1.0  0.75572  0.17575  0.59001  1.0000 -0.0535830958
C   C96       1.0  0.80677  0.22674  0.68777  1.0000 0.4312786301
C   C97       1.0  0.77095  0.11400  0.54567  1.0000 -0.0913222125
C   C98       1.0  0.06321  0.48909  0.91518  1.0000 0.0932944193
C   C99       1.0  0.31386  0.49839  0.70553  1.0000 -0.1008443544
C   C100      1.0  0.30330  0.56122  0.75752  1.0000 -0.1057131579
C   C101      1.0  0.10895  0.99023  0.57668  1.0000 -0.2011403749
C   C102      1.0  0.16571  0.75572  0.57997  1.0000 -0.0535830958
C   C103      1.0  0.11900  0.80677  0.58003  1.0000 0.4312786301
C   C104      1.0  0.22528  0.77095  0.65695  1.0000 -0.0913222125
C   C105      1.0  0.14803  0.06321  0.57412  1.0000 0.0932944193
C   C106      1.0  0.79286  0.60833  0.29447  1.0000 -0.1008443544
C   C107      1.0  0.80370  0.54578  0.24248  1.0000 -0.1057131579
C   C108      1.0  0.41355  0.53227  0.42332  1.0000 -0.2011403749
C   C109      1.0  0.17575  0.58574  0.42003  1.0000 -0.0535830958
C   C110      1.0  0.22674  0.53897  0.41997  1.0000 0.4312786301
C   C111      1.0  0.11400  0.56833  0.34305  1.0000 -0.0913222125
C   C112      1.0  0.48909  0.57391  0.42588  1.0000 0.0932944193
C   C113      1.0  0.14716  0.69444  0.50000  1.0000 0.0173780287
C   C114      1.0  0.05060  0.91360  0.50000  1.0000 0.1415855391
C   C115      1.0  0.00629  0.83211  0.50000  1.0000 -0.1359413872
C   C116      1.0  0.19444  0.64716  0.50000  1.0000 0.0173780287
C   C117      1.0  0.41360  0.55060  0.50000  1.0000 0.1415855391
C   C118      1.0  0.33211  0.50629  0.50000  1.0000 -0.1359413872
C   C119      1.0  0.64716  0.14716  0.45272  1.0000 0.0173780287
C   C120      1.0  0.55060  0.05060  0.13700  1.0000 0.1415855391
C   C121      1.0  0.50629  0.00629  0.17418  1.0000 -0.1359413872
C   C122      1.0  0.69444  0.19444  0.54728  1.0000 0.0173780287
C   C123      1.0  0.91360  0.41360  0.86300  1.0000 0.1415855391
C   C124      1.0  0.83211  0.33211  0.82582  1.0000 -0.1359413872
C   C125      1.0  0.35284  0.85284  0.54728  1.0000 0.0173780287
C   C126      1.0  0.44940  0.94940  0.86300  1.0000 0.1415855391
C   C127      1.0  0.49371  0.99371  0.82582  1.0000 -0.1359413872
C   C128      1.0  0.30556  0.80556  0.45272  1.0000 0.0173780287
C   C129      1.0  0.08640  0.58640  0.13700  1.0000 0.1415855391
C   C130      1.0  0.16789  0.66789  0.17418  1.0000 -0.1359413872
C   C131      1.0  0.85284  0.30556  0.50000  1.0000 0.0173780287
C   C132      1.0  0.94940  0.08640  0.50000  1.0000 0.1415855391
C   C133      1.0  0.99371  0.16789  0.50000  1.0000 -0.1359413872
C   C134      1.0  0.80556  0.35284  0.50000  1.0000 0.0173780287
C   C135      1.0  0.58640  0.44940  0.50000  1.0000 0.1415855391
C   C136      1.0  0.66789  0.49371  0.50000  1.0000 -0.1359413872
C   C137      1.0  0.89260  0.26670  0.15930  1.0000 0.5747318705
C   C138      1.0  0.15570  0.22860  0.38430  1.0000 0.5759113868
C   C139      1.0  0.08690  0.23550  0.32240  1.0000 -0.0182974739
C   C140      1.0  0.96080  0.25580  0.21660  1.0000 -0.0182974739
C   C141      1.0  0.10740  0.73330  0.84070  1.0000 0.5747318705
C   C142      1.0  0.84430  0.77140  0.61570  1.0000 0.5759113868
C   C143      1.0  0.91310  0.76450  0.67760  1.0000 -0.0182974739
C   C144      1.0  0.03920  0.74420  0.78340  1.0000 -0.0182974739
C   C145      1.0  0.73330  0.89260  0.62590  1.0000 0.5747318705
C   C146      1.0  0.77140  0.15570  0.92710  1.0000 0.5759113868
C   C147      1.0  0.76450  0.08690  0.85140  1.0000 -0.0182974739
C   C148      1.0  0.74420  0.96080  0.70500  1.0000 -0.0182974739
C   C149      1.0  0.26670  0.10740  0.37410  1.0000 0.5747318705
C   C150      1.0  0.22860  0.84430  0.07290  1.0000 0.5759113868
C   C151      1.0  0.23550  0.91310  0.14860  1.0000 -0.0182974739
C   C152      1.0  0.25580  0.03920  0.29500  1.0000 -0.0182974739
C   C153      1.0  0.60740  0.76670  0.37410  1.0000 0.5747318705
C   C154      1.0  0.34430  0.72860  0.07290  1.0000 0.5759113868
C   C155      1.0  0.41310  0.73550  0.14860  1.0000 -0.0182974739
C   C156      1.0  0.53920  0.75580  0.29500  1.0000 -0.0182974739
C   C157      1.0  0.39260  0.23330  0.62590  1.0000 0.5747318705
C   C158      1.0  0.65570  0.27140  0.92710  1.0000 0.5759113868
C   C159      1.0  0.58690  0.26450  0.85140  1.0000 -0.0182974739
C   C160      1.0  0.46080  0.24420  0.70500  1.0000 -0.0182974739
C   C161      1.0  0.76670  0.39260  0.15930  1.0000 0.5747318705
C   C162      1.0  0.72860  0.65570  0.38430  1.0000 0.5759113868
C   C163      1.0  0.73550  0.58690  0.32240  1.0000 -0.0182974739
C   C164      1.0  0.75580  0.46080  0.21660  1.0000 -0.0182974739
C   C165      1.0  0.23330  0.60740  0.84070  1.0000 0.5747318705
C   C166      1.0  0.27140  0.34430  0.61570  1.0000 0.5759113868
C   C167      1.0  0.26450  0.41310  0.67760  1.0000 -0.0182974739
C   C168      1.0  0.24420  0.53920  0.78340  1.0000 -0.0182974739
N   N1        1.0  0.13183  0.06309  0.50000  1.0000 -0.233158798
N   N2        1.0  0.05606  0.78576  0.50000  1.0000 -0.1731310347
N   N3        1.0  0.56309  0.63183  0.50000  1.0000 -0.233158798
N   N4        1.0  0.28576  0.55606  0.50000  1.0000 -0.1731310347
N   N5        1.0  0.63183  0.13183  0.06874  1.0000 -0.233158798
N   N6        1.0  0.55606  0.05606  0.27030  1.0000 -0.1731310347
N   N7        1.0  0.06309  0.56309  0.93126  1.0000 -0.233158798
N   N8        1.0  0.78576  0.28576  0.72970  1.0000 -0.1731310347
N   N9        1.0  0.36817  0.86817  0.93126  1.0000 -0.233158798
N   N10       1.0  0.44394  0.94394  0.72970  1.0000 -0.1731310347
N   N11       1.0  0.93691  0.43691  0.06874  1.0000 -0.233158798
N   N12       1.0  0.21424  0.71424  0.27030  1.0000 -0.1731310347
N   N13       1.0  0.86817  0.93691  0.50000  1.0000 -0.233158798
N   N14       1.0  0.94394  0.21424  0.50000  1.0000 -0.1731310347
N   N15       1.0  0.43691  0.36817  0.50000  1.0000 -0.233158798
N   N16       1.0  0.71424  0.44394  0.50000  1.0000 -0.1731310347
O   O1        1.0  0.13154  0.17584  0.40796  1.0000 -0.5501693795
O   O2        1.0  0.81668  0.22236  0.13862  1.0000 -0.5501693795
O   O3        1.0  0.98878  0.71843  0.35305  1.0000 -0.4276245395
O   O4        1.0  0.76788  0.72358  0.59204  1.0000 -0.5501693795
O   O5        1.0  0.08374  0.67806  0.86138  1.0000 -0.5501693795
O   O6        1.0  0.36538  0.63573  0.64695  1.0000 -0.4276245395
O   O7        1.0  0.72358  0.13154  0.95570  1.0000 -0.5501693795
O   O8        1.0  0.67806  0.81668  0.59432  1.0000 -0.5501693795
O   O9        1.0  0.63573  0.98878  0.27035  1.0000 -0.4276245395
O   O10       1.0  0.17584  0.76788  0.04430  1.0000 -0.5501693795
O   O11       1.0  0.22236  0.08374  0.40568  1.0000 -0.5501693795
O   O12       1.0  0.71843  0.36538  0.72965  1.0000 -0.4276245395
O   O13       1.0  0.36846  0.77642  0.04430  1.0000 -0.5501693795
O   O14       1.0  0.68332  0.82194  0.40568  1.0000 -0.5501693795
O   O15       1.0  0.51122  0.86427  0.72965  1.0000 -0.4276245395
O   O16       1.0  0.73212  0.32416  0.95570  1.0000 -0.5501693795
O   O17       1.0  0.41626  0.27764  0.59432  1.0000 -0.5501693795
O   O18       1.0  0.13462  0.78157  0.27035  1.0000 -0.4276245395
O   O19       1.0  0.77642  0.73212  0.40796  1.0000 -0.5501693795
O   O20       1.0  0.82194  0.41626  0.13862  1.0000 -0.5501693795
O   O21       1.0  0.86427  0.13462  0.35305  1.0000 -0.4276245395
O   O22       1.0  0.32416  0.36846  0.59204  1.0000 -0.5501693795
O   O23       1.0  0.27764  0.68332  0.86138  1.0000 -0.5501693795
O   O24       1.0  0.78157  0.51122  0.64695  1.0000 -0.4276245395
O   O25       1.0  0.86846  0.82416  0.59204  1.0000 -0.5501693795
O   O26       1.0  0.18332  0.77764  0.86138  1.0000 -0.5501693795
O   O27       1.0  0.01122  0.28157  0.64695  1.0000 -0.4276245395
O   O28       1.0  0.23212  0.27642  0.40796  1.0000 -0.5501693795
O   O29       1.0  0.91626  0.32194  0.13862  1.0000 -0.5501693795
O   O30       1.0  0.63462  0.36427  0.35305  1.0000 -0.4276245395
O   O31       1.0  0.27642  0.86846  0.04430  1.0000 -0.5501693795
O   O32       1.0  0.32194  0.18332  0.40568  1.0000 -0.5501693795
O   O33       1.0  0.36427  0.01122  0.72965  1.0000 -0.4276245395
O   O34       1.0  0.82416  0.23212  0.95570  1.0000 -0.5501693795
O   O35       1.0  0.77764  0.91626  0.59432  1.0000 -0.5501693795
O   O36       1.0  0.28157  0.63462  0.27035  1.0000 -0.4276245395
O   O37       1.0  0.63154  0.22358  0.95570  1.0000 -0.5501693795
O   O38       1.0  0.31668  0.17806  0.59432  1.0000 -0.5501693795
O   O39       1.0  0.48878  0.13573  0.27035  1.0000 -0.4276245395
O   O40       1.0  0.26788  0.67584  0.04430  1.0000 -0.5501693795
O   O41       1.0  0.58374  0.72236  0.40568  1.0000 -0.5501693795
O   O42       1.0  0.86538  0.21843  0.72965  1.0000 -0.4276245395
O   O43       1.0  0.22358  0.26788  0.59204  1.0000 -0.5501693795
O   O44       1.0  0.17806  0.58374  0.86138  1.0000 -0.5501693795
O   O45       1.0  0.13573  0.86538  0.64695  1.0000 -0.4276245395
O   O46       1.0  0.67584  0.63154  0.40796  1.0000 -0.5501693795
O   O47       1.0  0.72236  0.31668  0.13862  1.0000 -0.5501693795
O   O48       1.0  0.21843  0.48878  0.35305  1.0000 -0.4276245395
