# DDEC6 charges by PACMAN v1.1 (https://github.com/mtap-research/PACMAN-charge/)
data_2019[Y][nan]3[ASR]1
_chemical_formula_sum              "Y4 H36 C72 O24"
_cell_length_a       12.4262
_cell_length_b       12.6835
_cell_length_c       18.0111
_cell_angle_alpha    74.078
_cell_angle_beta     83.157
_cell_angle_gamma    65.184

_symmetry_space_group_name_H-M    "P 1"
_symmetry_Int_Tables_number       1

loop_
  _symmetry_equiv_pos_as_xyz
  'x, y, z'

loop_
  _atom_site_type_symbol
  _atom_site_label
  _atom_site_symmetry_multiplicity
  _atom_site_fract_x
  _atom_site_fract_y
  _atom_site_fract_z
  _atom_site_occupancy
  _atom_site_charge
Y   Y1        1.0  0.47635  0.87356  0.61916  1.0000 1.7820724202
Y   Y2        1.0  0.53113  0.62866  0.88486  1.0000 1.7820724202
Y   Y3        1.0  0.52365  0.12644  0.38084  1.0000 1.7820724202
Y   Y4        1.0  0.46887  0.37134  0.11514  1.0000 1.7820724202
H   H1        1.0  0.86067  0.68598  0.85734  1.0000 0.1221343896
H   H2        1.0  0.92187  0.91606  0.61988  1.0000 0.1221343896
H   H3        1.0  0.74061  0.91034  0.64939  1.0000 0.1221343896
H   H4        1.0  0.07202  0.61861  0.89360  1.0000 0.1221343896
H   H5        1.0  0.25645  0.61510  0.85972  1.0000 0.1221343896
H   H6        1.0  0.13589  0.84017  0.65228  1.0000 0.1221343896
H   H7        1.0  0.50529  0.36157  0.54940  1.0000 0.1289123676
H   H8        1.0  0.49585  0.45218  0.64509  1.0000 0.1289123676
H   H9        1.0  0.51129  0.06505  0.70790  1.0000 0.1221343896
H   H10       1.0  0.48254  0.44845  0.78577  1.0000 0.1221343896
H   H11       1.0  0.48381  0.15299  0.94360  1.0000 0.1221343896
H   H12       1.0  0.49940  0.06000  0.84809  1.0000 0.1289123676
H   H13       1.0  0.84175  0.48275  0.67039  1.0000 0.1289123676
H   H14       1.0  0.02251  0.35009  0.63763  1.0000 0.1221343896
H   H15       1.0  0.81815  0.71090  0.46239  1.0000 0.1289123676
H   H16       1.0  0.24819  0.04099  0.91904  1.0000 0.1289123676
H   H17       1.0  0.08050  0.17080  0.96403  1.0000 0.1221343896
H   H18       1.0  0.12324  0.78404  0.97726  1.0000 0.1289123676
H   H19       1.0  0.13933  0.31402  0.14266  1.0000 0.1221343896
H   H20       1.0  0.07813  0.08394  0.38012  1.0000 0.1221343896
H   H21       1.0  0.25939  0.08966  0.35061  1.0000 0.1221343896
H   H22       1.0  0.92798  0.38139  0.10640  1.0000 0.1221343896
H   H23       1.0  0.74355  0.38490  0.14028  1.0000 0.1221343896
H   H24       1.0  0.86411  0.15983  0.34772  1.0000 0.1221343896
H   H25       1.0  0.49471  0.63843  0.45060  1.0000 0.1289123676
H   H26       1.0  0.50415  0.54782  0.35491  1.0000 0.1289123676
H   H27       1.0  0.48871  0.93495  0.29210  1.0000 0.1221343896
H   H28       1.0  0.51746  0.55155  0.21423  1.0000 0.1221343896
H   H29       1.0  0.51619  0.84701  0.05640  1.0000 0.1221343896
H   H30       1.0  0.50060  0.94000  0.15191  1.0000 0.1289123676
H   H31       1.0  0.15825  0.51725  0.32961  1.0000 0.1289123676
H   H32       1.0  0.97749  0.64991  0.36237  1.0000 0.1221343896
H   H33       1.0  0.18185  0.28910  0.53761  1.0000 0.1289123676
H   H34       1.0  0.75181  0.95901  0.08096  1.0000 0.1289123676
H   H35       1.0  0.91950  0.82920  0.03597  1.0000 0.1221343896
H   H36       1.0  0.87676  0.21596  0.02274  1.0000 0.1289123676
C   C1        1.0  0.66550  0.78530  0.77480  1.0000 0.6261984064
C   C2        1.0  0.78240  0.79530  0.75680  1.0000 -0.0295690209
C   C3        1.0  0.87440  0.73040  0.80960  1.0000 -0.1578384188
C   C4        1.0  0.98740  0.73030  0.79250  1.0000 0.0694704196
C   C5        1.0  0.00760  0.79990  0.71860  1.0000 0.0694704196
C   C6        1.0  0.91080  0.86830  0.66700  1.0000 -0.1424955077
C   C7        1.0  0.80220  0.86570  0.68470  1.0000 -0.1079963579
C   C8        1.0  0.08410  0.66230  0.84520  1.0000 -0.1488022342
C   C9        1.0  0.19410  0.66080  0.82510  1.0000 -0.1079963579
C   C10       1.0  0.21430  0.72880  0.75160  1.0000 -0.0295690209
C   C11       1.0  0.12210  0.79620  0.70020  1.0000 -0.1488022342
C   C12       1.0  0.33480  0.72900  0.73020  1.0000 0.6261984064
C   C13       1.0  0.51620  0.14230  0.55730  1.0000 0.6261984064
C   C14       1.0  0.50900  0.20250  0.61980  1.0000 -0.0295690209
C   C15       1.0  0.50410  0.32100  0.60080  1.0000 -0.1079963579
C   C16       1.0  0.49780  0.37520  0.65820  1.0000 -0.1424955077
C   C17       1.0  0.49420  0.31650  0.73720  1.0000 0.0694704196
C   C18       1.0  0.49920  0.19720  0.75630  1.0000 0.0759800999
C   C19       1.0  0.50720  0.14280  0.69590  1.0000 -0.1578384188
C   C20       1.0  0.48600  0.37100  0.79760  1.0000 -0.1578384188
C   C21       1.0  0.48310  0.31090  0.87370  1.0000 -0.0295690209
C   C22       1.0  0.48710  0.19280  0.89220  1.0000 -0.1079963579
C   C23       1.0  0.49570  0.13760  0.83510  1.0000 -0.1488022342
C   C24       1.0  0.47200  0.37070  0.93700  1.0000 0.6261984064
C   C25       1.0  0.69750  0.70320  0.58970  1.0000 0.5444450332
C   C26       1.0  0.81330  0.61140  0.56840  1.0000 -0.0054008039
C   C27       1.0  0.87420  0.50110  0.62180  1.0000 -0.1079963579
C   C28       1.0  0.98150  0.42110  0.60160  1.0000 -0.1488022342
C   C29       1.0  0.03080  0.44440  0.52740  1.0000 0.0694704196
C   C30       1.0  0.85920  0.63780  0.49660  1.0000 -0.1488022342
C   C31       1.0  0.31500  0.81050  0.91690  1.0000 0.5454148604
C   C32       1.0  0.20190  0.89830  0.94410  1.0000 -0.0014491375
C   C33       1.0  0.18790  0.01640  0.94010  1.0000 -0.1079963579
C   C34       1.0  0.08810  0.09380  0.96650  1.0000 -0.1488022342
C   C35       1.0  0.99390  0.05830  0.99830  1.0000 0.0636666258
C   C36       1.0  0.11330  0.86190  0.97440  1.0000 -0.1424955077
C   C37       1.0  0.33450  0.21470  0.22520  1.0000 0.6261984064
C   C38       1.0  0.21760  0.20470  0.24320  1.0000 -0.0295690209
C   C39       1.0  0.12560  0.26960  0.19040  1.0000 -0.1578384188
C   C40       1.0  0.01260  0.26970  0.20750  1.0000 0.0694704196
C   C41       1.0  0.99240  0.20010  0.28140  1.0000 0.0694704196
C   C42       1.0  0.08920  0.13170  0.33300  1.0000 -0.1424955077
C   C43       1.0  0.19780  0.13430  0.31530  1.0000 -0.1079963579
C   C44       1.0  0.91590  0.33770  0.15480  1.0000 -0.1488022342
C   C45       1.0  0.80590  0.33920  0.17490  1.0000 -0.1079963579
C   C46       1.0  0.78570  0.27120  0.24840  1.0000 -0.0295690209
C   C47       1.0  0.87790  0.20380  0.29980  1.0000 -0.1488022342
C   C48       1.0  0.66520  0.27100  0.26980  1.0000 0.624227996
C   C49       1.0  0.48380  0.85770  0.44270  1.0000 0.624227996
C   C50       1.0  0.49100  0.79750  0.38020  1.0000 -0.0295690209
C   C51       1.0  0.49590  0.67900  0.39920  1.0000 -0.1079963579
C   C52       1.0  0.50220  0.62480  0.34180  1.0000 -0.1424955077
C   C53       1.0  0.50580  0.68350  0.26280  1.0000 0.0694704196
C   C54       1.0  0.50080  0.80280  0.24370  1.0000 0.0759800999
C   C55       1.0  0.49280  0.85720  0.30410  1.0000 -0.1578384188
C   C56       1.0  0.51400  0.62900  0.20240  1.0000 -0.1578384188
C   C57       1.0  0.51690  0.68910  0.12630  1.0000 -0.0295690209
C   C58       1.0  0.51290  0.80720  0.10780  1.0000 -0.1079963579
C   C59       1.0  0.50430  0.86240  0.16490  1.0000 -0.1488022342
C   C60       1.0  0.52800  0.62930  0.06300  1.0000 0.6261984064
C   C61       1.0  0.30250  0.29680  0.41030  1.0000 0.5454148604
C   C62       1.0  0.18670  0.38860  0.43160  1.0000 -0.0054008039
C   C63       1.0  0.12580  0.49890  0.37820  1.0000 -0.1079963579
C   C64       1.0  0.01850  0.57890  0.39840  1.0000 -0.1488022342
C   C65       1.0  0.96920  0.55560  0.47260  1.0000 0.0694704196
C   C66       1.0  0.14080  0.36220  0.50340  1.0000 -0.1488022342
C   C67       1.0  0.68500  0.18950  0.08310  1.0000 0.5454148604
C   C68       1.0  0.79810  0.10170  0.05590  1.0000 -0.0014491375
C   C69       1.0  0.81210  0.98360  0.05990  1.0000 -0.1079963579
C   C70       1.0  0.91190  0.90620  0.03350  1.0000 -0.1488022342
C   C71       1.0  0.00610  0.94170  0.00170  1.0000 0.0636666258
C   C72       1.0  0.88670  0.13810  0.02560  1.0000 -0.1424955077
O   O1        1.0  0.58820  0.83370  0.72290  1.0000 -0.6355179595
O   O2        1.0  0.65140  0.72790  0.84180  1.0000 -0.6185511696
O   O3        1.0  0.35130  0.77730  0.66070  1.0000 -0.6146758841
O   O4        1.0  0.41240  0.68510  0.78140  1.0000 -0.6347734975
O   O5        1.0  0.50510  0.04340  0.57680  1.0000 -0.6603198396
O   O6        1.0  0.53280  0.19270  0.48950  1.0000 -0.5675186562
O   O7        1.0  0.48310  0.46820  0.92130  1.0000 -0.6476959037
O   O8        1.0  0.45130  0.31850  0.00410  1.0000 -0.589509015
O   O9        1.0  0.62950  0.66420  0.63660  1.0000 -0.5823492255
O   O10       1.0  0.66940  0.81080  0.56000  1.0000 -0.5494278418
O   O11       1.0  0.33820  0.70020  0.94120  1.0000 -0.589509015
O   O12       1.0  0.38480  0.84800  0.87270  1.0000 -0.5675186562
O   O13       1.0  0.41180  0.16630  0.27710  1.0000 -0.6347734975
O   O14       1.0  0.34860  0.27210  0.15820  1.0000 -0.6185511696
O   O15       1.0  0.64870  0.22270  0.33930  1.0000 -0.6146758841
O   O16       1.0  0.58760  0.31490  0.21860  1.0000 -0.6355179595
O   O17       1.0  0.49490  0.95660  0.42320  1.0000 -0.6603198396
O   O18       1.0  0.46720  0.80730  0.51050  1.0000 -0.5675186562
O   O19       1.0  0.51690  0.53180  0.07870  1.0000 -0.6476959037
O   O20       1.0  0.54870  0.68150  0.99590  1.0000 -0.589509015
O   O21       1.0  0.37050  0.33580  0.36340  1.0000 -0.5823492255
O   O22       1.0  0.33060  0.18920  0.44000  1.0000 -0.5494278418
O   O23       1.0  0.66180  0.29980  0.05880  1.0000 -0.5823492255
O   O24       1.0  0.61520  0.15200  0.12730  1.0000 -0.5675186562
