# DDEC6 charges by PACMAN v1.1 (https://github.com/mtap-research/PACMAN-charge/)
data_2019[Zn][utp]3[ASR]2
_chemical_formula_sum              "Zn8 H144 C192 N80"
_cell_length_a       9.6693
_cell_length_b       27.79
_cell_length_c       28.58
_cell_angle_alpha    90
_cell_angle_beta     90
_cell_angle_gamma    90

_symmetry_space_group_name_H-M    "P 1"
_symmetry_Int_Tables_number       1

loop_
  _symmetry_equiv_pos_as_xyz
  'x, y, z'

loop_
  _atom_site_type_symbol
  _atom_site_label
  _atom_site_symmetry_multiplicity
  _atom_site_fract_x
  _atom_site_fract_y
  _atom_site_fract_z
  _atom_site_occupancy
  _atom_site_charge
Zn  Zn1       1.0  0.09119  0.51179  0.36779  1.0000 0.4916421926
Zn  Zn2       1.0  0.40881  0.01179  0.13221  1.0000 0.4916421926
Zn  Zn3       1.0  0.90881  0.51179  0.86779  1.0000 0.4916421926
Zn  Zn4       1.0  0.59119  0.01179  0.63221  1.0000 0.4916421926
Zn  Zn5       1.0  0.09119  0.48821  0.13221  1.0000 0.4916421926
Zn  Zn6       1.0  0.40881  0.98821  0.36779  1.0000 0.4916421926
Zn  Zn7       1.0  0.90881  0.48821  0.63221  1.0000 0.4916421926
Zn  Zn8       1.0  0.59119  0.98821  0.86779  1.0000 0.4916421926
H   H1        1.0  0.19865  0.45572  0.27856  1.0000 0.1193094499
H   H2        1.0  0.57735  0.46114  0.33034  1.0000 0.1280657182
H   H3        1.0  0.65081  0.44482  0.25369  1.0000 0.1193094499
H   H4        1.0  0.73083  0.40046  0.19086  1.0000 0.1193094499
H   H5        1.0  0.35022  0.35085  0.16835  1.0000 0.1193094499
H   H6        1.0  0.27154  0.39174  0.23294  1.0000 0.1193094499
H   H7        1.0  0.49645  0.30438  0.05830  1.0000 0.1193094499
H   H8        1.0  0.41101  0.22741  0.04737  1.0000 0.1193094499
H   H9        1.0  0.47515  0.19886  0.18309  1.0000 0.1193094499
H   H10       1.0  0.57356  0.27370  0.19226  1.0000 0.1280657182
H   H11       1.0  0.24668  0.16249  0.05191  1.0000 0.1111616877
H   H12       1.0  0.49119  0.11782  0.15426  1.0000 0.1111616877
H   H13       1.0  0.77827  0.30627  0.07716  1.0000 0.1193094499
H   H14       1.0  0.89987  0.34118  0.01733  1.0000 0.1111616877
H   H15       1.0  0.74360  0.46958  0.05047  1.0000 0.1280657182
H   H16       1.0  0.61043  0.43380  0.10824  1.0000 0.1280657182
H   H17       1.0  0.09527  0.39735  0.98718  1.0000 0.1193094499
H   H18       1.0  0.76443  0.47603  0.96243  1.0000 0.1280657182
H   H19       1.0  0.30135  0.95572  0.22144  1.0000 0.1193094499
H   H20       1.0  0.92265  0.96114  0.16966  1.0000 0.1280657182
H   H21       1.0  0.84919  0.94482  0.24631  1.0000 0.1193094499
H   H22       1.0  0.76917  0.90046  0.30914  1.0000 0.1193094499
H   H23       1.0  0.14978  0.85085  0.33165  1.0000 0.1193094499
H   H24       1.0  0.22846  0.89174  0.26706  1.0000 0.1193094499
H   H25       1.0  0.00355  0.80438  0.44170  1.0000 0.1193094499
H   H26       1.0  0.08899  0.72741  0.45263  1.0000 0.1193094499
H   H27       1.0  0.02485  0.69886  0.31691  1.0000 0.1193094499
H   H28       1.0  0.92644  0.77370  0.30774  1.0000 0.1280657182
H   H29       1.0  0.25332  0.66249  0.44809  1.0000 0.1111616877
H   H30       1.0  0.00881  0.61782  0.34574  1.0000 0.1111616877
H   H31       1.0  0.72173  0.80627  0.42284  1.0000 0.1193094499
H   H32       1.0  0.60013  0.84118  0.48267  1.0000 0.1111616877
H   H33       1.0  0.75640  0.96958  0.44953  1.0000 0.1280657182
H   H34       1.0  0.88957  0.93380  0.39176  1.0000 0.1280657182
H   H35       1.0  0.40473  0.89735  0.51282  1.0000 0.1193094499
H   H36       1.0  0.73557  0.97603  0.53757  1.0000 0.1280657182
H   H37       1.0  0.80135  0.45572  0.77856  1.0000 0.1193094499
H   H38       1.0  0.42265  0.46114  0.83034  1.0000 0.1280657182
H   H39       1.0  0.34919  0.44482  0.75369  1.0000 0.1193094499
H   H40       1.0  0.26917  0.40046  0.69086  1.0000 0.1193094499
H   H41       1.0  0.64978  0.35085  0.66835  1.0000 0.1193094499
H   H42       1.0  0.72846  0.39174  0.73294  1.0000 0.1193094499
H   H43       1.0  0.50355  0.30438  0.55830  1.0000 0.1193094499
H   H44       1.0  0.58899  0.22741  0.54737  1.0000 0.1193094499
H   H45       1.0  0.52485  0.19886  0.68309  1.0000 0.1193094499
H   H46       1.0  0.42644  0.27370  0.69226  1.0000 0.1280657182
H   H47       1.0  0.75332  0.16249  0.55191  1.0000 0.1111616877
H   H48       1.0  0.50881  0.11782  0.65426  1.0000 0.1111616877
H   H49       1.0  0.22173  0.30627  0.57716  1.0000 0.1193094499
H   H50       1.0  0.10013  0.34118  0.51733  1.0000 0.1111616877
H   H51       1.0  0.25640  0.46958  0.55047  1.0000 0.1280657182
H   H52       1.0  0.38957  0.43380  0.60824  1.0000 0.1280657182
H   H53       1.0  0.90473  0.39735  0.48718  1.0000 0.1193094499
H   H54       1.0  0.23557  0.47603  0.46243  1.0000 0.1280657182
H   H55       1.0  0.69865  0.95572  0.72144  1.0000 0.1193094499
H   H56       1.0  0.07735  0.96114  0.66966  1.0000 0.1280657182
H   H57       1.0  0.15081  0.94482  0.74631  1.0000 0.1193094499
H   H58       1.0  0.23083  0.90046  0.80914  1.0000 0.1193094499
H   H59       1.0  0.85022  0.85085  0.83165  1.0000 0.1193094499
H   H60       1.0  0.77154  0.89174  0.76706  1.0000 0.1193094499
H   H61       1.0  0.99645  0.80438  0.94170  1.0000 0.1193094499
H   H62       1.0  0.91101  0.72741  0.95263  1.0000 0.1193094499
H   H63       1.0  0.97515  0.69886  0.81691  1.0000 0.1193094499
H   H64       1.0  0.07356  0.77370  0.80774  1.0000 0.1280657182
H   H65       1.0  0.74668  0.66249  0.94809  1.0000 0.1111616877
H   H66       1.0  0.99119  0.61782  0.84574  1.0000 0.1111616877
H   H67       1.0  0.27827  0.80627  0.92284  1.0000 0.1193094499
H   H68       1.0  0.39987  0.84118  0.98267  1.0000 0.1111616877
H   H69       1.0  0.24360  0.96958  0.94953  1.0000 0.1280657182
H   H70       1.0  0.11043  0.93380  0.89176  1.0000 0.1280657182
H   H71       1.0  0.59527  0.89735  0.01282  1.0000 0.1193094499
H   H72       1.0  0.26443  0.97603  0.03757  1.0000 0.1280657182
H   H73       1.0  0.19865  0.54428  0.22144  1.0000 0.1193094499
H   H74       1.0  0.57735  0.53886  0.16966  1.0000 0.1280657182
H   H75       1.0  0.65081  0.55518  0.24631  1.0000 0.1193094499
H   H76       1.0  0.73083  0.59954  0.30914  1.0000 0.1193094499
H   H77       1.0  0.35022  0.64915  0.33165  1.0000 0.1193094499
H   H78       1.0  0.27154  0.60826  0.26706  1.0000 0.1193094499
H   H79       1.0  0.49645  0.69562  0.44170  1.0000 0.1193094499
H   H80       1.0  0.41101  0.77259  0.45263  1.0000 0.1193094499
H   H81       1.0  0.47515  0.80114  0.31691  1.0000 0.1193094499
H   H82       1.0  0.57356  0.72630  0.30774  1.0000 0.1280657182
H   H83       1.0  0.24668  0.83751  0.44809  1.0000 0.1111616877
H   H84       1.0  0.49119  0.88218  0.34574  1.0000 0.1111616877
H   H85       1.0  0.77827  0.69373  0.42284  1.0000 0.1193094499
H   H86       1.0  0.89987  0.65882  0.48267  1.0000 0.1111616877
H   H87       1.0  0.74360  0.53042  0.44953  1.0000 0.1280657182
H   H88       1.0  0.61043  0.56620  0.39176  1.0000 0.1280657182
H   H89       1.0  0.09527  0.60265  0.51282  1.0000 0.1193094499
H   H90       1.0  0.76443  0.52397  0.53757  1.0000 0.1280657182
H   H91       1.0  0.30135  0.04428  0.27856  1.0000 0.1193094499
H   H92       1.0  0.92265  0.03886  0.33034  1.0000 0.1280657182
H   H93       1.0  0.84919  0.05518  0.25369  1.0000 0.1193094499
H   H94       1.0  0.76917  0.09954  0.19086  1.0000 0.1193094499
H   H95       1.0  0.14978  0.14915  0.16835  1.0000 0.1193094499
H   H96       1.0  0.22846  0.10826  0.23294  1.0000 0.1193094499
H   H97       1.0  0.00355  0.19562  0.05830  1.0000 0.1193094499
H   H98       1.0  0.08899  0.27259  0.04737  1.0000 0.1193094499
H   H99       1.0  0.02485  0.30114  0.18309  1.0000 0.1193094499
H   H100      1.0  0.92644  0.22630  0.19226  1.0000 0.1280657182
H   H101      1.0  0.25332  0.33751  0.05191  1.0000 0.1111616877
H   H102      1.0  0.00881  0.38218  0.15426  1.0000 0.1111616877
H   H103      1.0  0.72173  0.19373  0.07716  1.0000 0.1193094499
H   H104      1.0  0.60013  0.15882  0.01733  1.0000 0.1111616877
H   H105      1.0  0.75640  0.03042  0.05047  1.0000 0.1280657182
H   H106      1.0  0.88957  0.06620  0.10824  1.0000 0.1280657182
H   H107      1.0  0.40473  0.10265  0.98718  1.0000 0.1193094499
H   H108      1.0  0.73557  0.02397  0.96243  1.0000 0.1280657182
H   H109      1.0  0.80135  0.54428  0.72144  1.0000 0.1193094499
H   H110      1.0  0.42265  0.53886  0.66966  1.0000 0.1280657182
H   H111      1.0  0.34919  0.55518  0.74631  1.0000 0.1193094499
H   H112      1.0  0.26917  0.59954  0.80914  1.0000 0.1193094499
H   H113      1.0  0.64978  0.64915  0.83165  1.0000 0.1193094499
H   H114      1.0  0.72846  0.60826  0.76706  1.0000 0.1193094499
H   H115      1.0  0.50355  0.69562  0.94170  1.0000 0.1193094499
H   H116      1.0  0.58899  0.77259  0.95263  1.0000 0.1193094499
H   H117      1.0  0.52485  0.80114  0.81691  1.0000 0.1193094499
H   H118      1.0  0.42644  0.72630  0.80774  1.0000 0.1280657182
H   H119      1.0  0.75332  0.83751  0.94809  1.0000 0.1111616877
H   H120      1.0  0.50881  0.88218  0.84574  1.0000 0.1111616877
H   H121      1.0  0.22173  0.69373  0.92284  1.0000 0.1193094499
H   H122      1.0  0.10013  0.65882  0.98267  1.0000 0.1111616877
H   H123      1.0  0.25640  0.53042  0.94953  1.0000 0.1280657182
H   H124      1.0  0.38957  0.56620  0.89176  1.0000 0.1280657182
H   H125      1.0  0.90473  0.60265  0.01282  1.0000 0.1193094499
H   H126      1.0  0.23557  0.52397  0.03757  1.0000 0.1280657182
H   H127      1.0  0.69865  0.04428  0.77856  1.0000 0.1193094499
H   H128      1.0  0.07735  0.03886  0.83034  1.0000 0.1280657182
H   H129      1.0  0.15081  0.05518  0.75369  1.0000 0.1193094499
H   H130      1.0  0.23083  0.09954  0.69086  1.0000 0.1193094499
H   H131      1.0  0.85022  0.14915  0.66835  1.0000 0.1193094499
H   H132      1.0  0.77154  0.10826  0.73294  1.0000 0.1193094499
H   H133      1.0  0.99645  0.19562  0.55830  1.0000 0.1193094499
H   H134      1.0  0.91101  0.27259  0.54737  1.0000 0.1193094499
H   H135      1.0  0.97515  0.30114  0.68309  1.0000 0.1193094499
H   H136      1.0  0.07356  0.22630  0.69226  1.0000 0.1280657182
H   H137      1.0  0.74668  0.33751  0.55191  1.0000 0.1111616877
H   H138      1.0  0.99119  0.38218  0.65426  1.0000 0.1111616877
H   H139      1.0  0.27827  0.19373  0.57716  1.0000 0.1193094499
H   H140      1.0  0.39987  0.15882  0.51733  1.0000 0.1111616877
H   H141      1.0  0.24360  0.03042  0.55047  1.0000 0.1280657182
H   H142      1.0  0.11043  0.06620  0.60824  1.0000 0.1280657182
H   H143      1.0  0.59527  0.10265  0.48718  1.0000 0.1193094499
H   H144      1.0  0.26443  0.02397  0.46243  1.0000 0.1280657182
C   C1        1.0  0.27290  0.46223  0.29826  1.0000 0.0014078597
C   C2        1.0  0.48240  0.46466  0.32634  1.0000 0.0140014467
C   C3        1.0  0.45270  0.42272  0.24945  1.0000 0.1280657182
C   C4        1.0  0.59030  0.42543  0.23684  1.0000 -0.188276083
C   C5        1.0  0.63770  0.39908  0.19893  1.0000 -0.1702548055
C   C6        1.0  0.54940  0.37097  0.17311  1.0000 0.1619976504
C   C7        1.0  0.41160  0.36921  0.18591  1.0000 -0.1702548055
C   C8        1.0  0.36390  0.39417  0.22417  1.0000 -0.1820061475
C   C9        1.0  0.54400  0.29703  0.12673  1.0000 0.1619976504
C   C10       1.0  0.49420  0.28289  0.08323  1.0000 -0.188276083
C   C11       1.0  0.44160  0.23718  0.07673  1.0000 -0.188276083
C   C12       1.0  0.43490  0.20589  0.11482  1.0000 0.1280657182
C   C13       1.0  0.48160  0.21970  0.15772  1.0000 -0.188276083
C   C14       1.0  0.53830  0.26482  0.16323  1.0000 -0.1820061475
C   C15       1.0  0.29160  0.14286  0.07344  1.0000 -0.0221529217
C   C16       1.0  0.42700  0.11797  0.13001  1.0000 -0.0075579303
C   C17       1.0  0.67890  0.36635  0.09894  1.0000 0.1619976504
C   C18       1.0  0.76860  0.33903  0.07140  1.0000 -0.1820061475
C   C19       1.0  0.84250  0.35999  0.03598  1.0000 -0.1702548055
C   C20       1.0  0.83270  0.40818  0.02781  1.0000 0.1193094499
C   C21       1.0  0.74810  0.43652  0.05532  1.0000 -0.188276083
C   C22       1.0  0.66990  0.41502  0.09033  1.0000 -0.1820061475
C   C23       1.0  0.03390  0.41888  0.97339  1.0000 0.0588177509
C   C24       1.0  0.85200  0.46251  0.95952  1.0000 0.0721054577
C   C25       1.0  0.22710  0.96223  0.20174  1.0000 0.0014078597
C   C26       1.0  0.01760  0.96466  0.17366  1.0000 0.0140014467
C   C27       1.0  0.04730  0.92272  0.25055  1.0000 0.1280657182
C   C28       1.0  0.90970  0.92543  0.26316  1.0000 -0.188276083
C   C29       1.0  0.86230  0.89908  0.30107  1.0000 -0.1702548055
C   C30       1.0  0.95060  0.87097  0.32689  1.0000 0.1619976504
C   C31       1.0  0.08840  0.86921  0.31409  1.0000 -0.1702548055
C   C32       1.0  0.13610  0.89417  0.27583  1.0000 -0.1820061475
C   C33       1.0  0.95600  0.79703  0.37327  1.0000 0.1619976504
C   C34       1.0  0.00580  0.78289  0.41677  1.0000 -0.188276083
C   C35       1.0  0.05840  0.73718  0.42327  1.0000 -0.188276083
C   C36       1.0  0.06510  0.70589  0.38518  1.0000 0.1280657182
C   C37       1.0  0.01840  0.71970  0.34228  1.0000 -0.188276083
C   C38       1.0  0.96170  0.76482  0.33677  1.0000 -0.1820061475
C   C39       1.0  0.20840  0.64286  0.42656  1.0000 -0.0221529217
C   C40       1.0  0.07300  0.61797  0.36999  1.0000 -0.0075579303
C   C41       1.0  0.82110  0.86635  0.40106  1.0000 0.1619976504
C   C42       1.0  0.73140  0.83903  0.42860  1.0000 -0.1820061475
C   C43       1.0  0.65750  0.85999  0.46402  1.0000 -0.1702548055
C   C44       1.0  0.66730  0.90818  0.47219  1.0000 0.1193094499
C   C45       1.0  0.75190  0.93652  0.44468  1.0000 -0.188276083
C   C46       1.0  0.83010  0.91502  0.40967  1.0000 -0.1820061475
C   C47       1.0  0.46610  0.91888  0.52661  1.0000 0.0588177509
C   C48       1.0  0.64800  0.96251  0.54048  1.0000 0.0721054577
C   C49       1.0  0.72710  0.46223  0.79826  1.0000 0.0014078597
C   C50       1.0  0.51760  0.46466  0.82634  1.0000 0.0140014467
C   C51       1.0  0.54730  0.42272  0.74945  1.0000 0.1280657182
C   C52       1.0  0.40970  0.42543  0.73684  1.0000 -0.188276083
C   C53       1.0  0.36230  0.39908  0.69893  1.0000 -0.1702548055
C   C54       1.0  0.45060  0.37097  0.67311  1.0000 0.1619976504
C   C55       1.0  0.58840  0.36921  0.68591  1.0000 -0.1702548055
C   C56       1.0  0.63610  0.39417  0.72417  1.0000 -0.1820061475
C   C57       1.0  0.45600  0.29703  0.62673  1.0000 0.1619976504
C   C58       1.0  0.50580  0.28289  0.58323  1.0000 -0.188276083
C   C59       1.0  0.55840  0.23718  0.57673  1.0000 -0.188276083
C   C60       1.0  0.56510  0.20589  0.61482  1.0000 0.1280657182
C   C61       1.0  0.51840  0.21970  0.65772  1.0000 -0.188276083
C   C62       1.0  0.46170  0.26482  0.66323  1.0000 -0.1820061475
C   C63       1.0  0.70840  0.14286  0.57344  1.0000 -0.0221529217
C   C64       1.0  0.57300  0.11797  0.63001  1.0000 -0.0075579303
C   C65       1.0  0.32110  0.36635  0.59894  1.0000 0.1619976504
C   C66       1.0  0.23140  0.33903  0.57140  1.0000 -0.1820061475
C   C67       1.0  0.15750  0.35999  0.53598  1.0000 -0.1702548055
C   C68       1.0  0.16730  0.40818  0.52781  1.0000 0.1193094499
C   C69       1.0  0.25190  0.43652  0.55532  1.0000 -0.188276083
C   C70       1.0  0.33010  0.41502  0.59033  1.0000 -0.1820061475
C   C71       1.0  0.96610  0.41888  0.47339  1.0000 0.0588177509
C   C72       1.0  0.14800  0.46251  0.45952  1.0000 0.0721054577
C   C73       1.0  0.77290  0.96223  0.70174  1.0000 0.0014078597
C   C74       1.0  0.98240  0.96466  0.67366  1.0000 0.0140014467
C   C75       1.0  0.95270  0.92272  0.75055  1.0000 0.1280657182
C   C76       1.0  0.09030  0.92543  0.76316  1.0000 -0.188276083
C   C77       1.0  0.13770  0.89908  0.80107  1.0000 -0.1702548055
C   C78       1.0  0.04940  0.87097  0.82689  1.0000 0.1619976504
C   C79       1.0  0.91160  0.86921  0.81409  1.0000 -0.1702548055
C   C80       1.0  0.86390  0.89417  0.77583  1.0000 -0.1820061475
C   C81       1.0  0.04400  0.79703  0.87327  1.0000 0.1619976504
C   C82       1.0  0.99420  0.78289  0.91677  1.0000 -0.188276083
C   C83       1.0  0.94160  0.73718  0.92327  1.0000 -0.188276083
C   C84       1.0  0.93490  0.70589  0.88518  1.0000 0.1280657182
C   C85       1.0  0.98160  0.71970  0.84228  1.0000 -0.188276083
C   C86       1.0  0.03830  0.76482  0.83677  1.0000 -0.1820061475
C   C87       1.0  0.79160  0.64286  0.92656  1.0000 -0.0221529217
C   C88       1.0  0.92700  0.61797  0.86999  1.0000 -0.0044947865
C   C89       1.0  0.17890  0.86635  0.90106  1.0000 0.1619976504
C   C90       1.0  0.26860  0.83903  0.92860  1.0000 -0.1820061475
C   C91       1.0  0.34250  0.85999  0.96402  1.0000 -0.1702548055
C   C92       1.0  0.33270  0.90818  0.97219  1.0000 0.1193094499
C   C93       1.0  0.24810  0.93652  0.94468  1.0000 -0.188276083
C   C94       1.0  0.16990  0.91502  0.90967  1.0000 -0.1820061475
C   C95       1.0  0.53390  0.91888  0.02661  1.0000 0.0588177509
C   C96       1.0  0.35200  0.96251  0.04048  1.0000 0.0721054577
C   C97       1.0  0.27290  0.53777  0.20174  1.0000 0.0014078597
C   C98       1.0  0.48240  0.53534  0.17366  1.0000 0.0140014467
C   C99       1.0  0.45270  0.57728  0.25055  1.0000 0.1280657182
C   C100      1.0  0.59030  0.57457  0.26316  1.0000 -0.188276083
C   C101      1.0  0.63770  0.60092  0.30107  1.0000 -0.1702548055
C   C102      1.0  0.54940  0.62903  0.32689  1.0000 0.1619976504
C   C103      1.0  0.41160  0.63079  0.31409  1.0000 -0.1702548055
C   C104      1.0  0.36390  0.60583  0.27583  1.0000 -0.1820061475
C   C105      1.0  0.54400  0.70297  0.37327  1.0000 0.1619976504
C   C106      1.0  0.49420  0.71711  0.41677  1.0000 -0.188276083
C   C107      1.0  0.44160  0.76282  0.42327  1.0000 -0.188276083
C   C108      1.0  0.43490  0.79411  0.38518  1.0000 0.1280657182
C   C109      1.0  0.48160  0.78030  0.34228  1.0000 -0.188276083
C   C110      1.0  0.53830  0.73518  0.33677  1.0000 -0.1820061475
C   C111      1.0  0.29160  0.85714  0.42656  1.0000 -0.0221529217
C   C112      1.0  0.42700  0.88203  0.36999  1.0000 -0.0075579303
C   C113      1.0  0.67890  0.63365  0.40106  1.0000 0.1619976504
C   C114      1.0  0.76860  0.66097  0.42860  1.0000 -0.1820061475
C   C115      1.0  0.84250  0.64001  0.46402  1.0000 -0.1702548055
C   C116      1.0  0.83270  0.59182  0.47219  1.0000 0.1193094499
C   C117      1.0  0.74810  0.56348  0.44468  1.0000 -0.188276083
C   C118      1.0  0.66990  0.58498  0.40967  1.0000 -0.1820061475
C   C119      1.0  0.03390  0.58112  0.52661  1.0000 0.0588177509
C   C120      1.0  0.85200  0.53749  0.54048  1.0000 0.0721054577
C   C121      1.0  0.22710  0.03777  0.29826  1.0000 0.0014078597
C   C122      1.0  0.01760  0.03534  0.32634  1.0000 0.0140014467
C   C123      1.0  0.04730  0.07728  0.24945  1.0000 0.1280657182
C   C124      1.0  0.90970  0.07457  0.23684  1.0000 -0.188276083
C   C125      1.0  0.86230  0.10092  0.19893  1.0000 -0.1702548055
C   C126      1.0  0.95060  0.12903  0.17311  1.0000 0.1619976504
C   C127      1.0  0.08840  0.13079  0.18591  1.0000 -0.1702548055
C   C128      1.0  0.13610  0.10583  0.22417  1.0000 -0.1820061475
C   C129      1.0  0.95600  0.20297  0.12673  1.0000 0.1619976504
C   C130      1.0  0.00580  0.21711  0.08323  1.0000 -0.188276083
C   C131      1.0  0.05840  0.26282  0.07673  1.0000 -0.188276083
C   C132      1.0  0.06510  0.29411  0.11482  1.0000 0.1280657182
C   C133      1.0  0.01840  0.28030  0.15772  1.0000 -0.188276083
C   C134      1.0  0.96170  0.23518  0.16323  1.0000 -0.1820061475
C   C135      1.0  0.20840  0.35714  0.07344  1.0000 -0.0221529217
C   C136      1.0  0.07300  0.38203  0.13001  1.0000 -0.0075579303
C   C137      1.0  0.82110  0.13365  0.09894  1.0000 0.1619976504
C   C138      1.0  0.73140  0.16097  0.07140  1.0000 -0.1820061475
C   C139      1.0  0.65750  0.14001  0.03598  1.0000 -0.1702548055
C   C140      1.0  0.66730  0.09182  0.02781  1.0000 0.1193094499
C   C141      1.0  0.75190  0.06348  0.05532  1.0000 -0.188276083
C   C142      1.0  0.83010  0.08498  0.09033  1.0000 -0.1820061475
C   C143      1.0  0.46610  0.08112  0.97339  1.0000 0.0588177509
C   C144      1.0  0.64800  0.03749  0.95952  1.0000 0.0721054577
C   C145      1.0  0.72710  0.53777  0.70174  1.0000 0.0014078597
C   C146      1.0  0.51760  0.53534  0.67366  1.0000 0.0140014467
C   C147      1.0  0.54730  0.57728  0.75055  1.0000 0.1280657182
C   C148      1.0  0.40970  0.57457  0.76316  1.0000 -0.188276083
C   C149      1.0  0.36230  0.60092  0.80107  1.0000 -0.1702548055
C   C150      1.0  0.45060  0.62903  0.82689  1.0000 0.1619976504
C   C151      1.0  0.58840  0.63079  0.81409  1.0000 -0.1702548055
C   C152      1.0  0.63610  0.60583  0.77583  1.0000 -0.1820061475
C   C153      1.0  0.45600  0.70297  0.87327  1.0000 0.1619976504
C   C154      1.0  0.50580  0.71711  0.91677  1.0000 -0.188276083
C   C155      1.0  0.55840  0.76282  0.92327  1.0000 -0.188276083
C   C156      1.0  0.56510  0.79411  0.88518  1.0000 0.1280657182
C   C157      1.0  0.51840  0.78030  0.84228  1.0000 -0.188276083
C   C158      1.0  0.46170  0.73518  0.83677  1.0000 -0.1820061475
C   C159      1.0  0.70840  0.85714  0.92656  1.0000 -0.0221529217
C   C160      1.0  0.57300  0.88203  0.86999  1.0000 -0.0075579303
C   C161      1.0  0.32110  0.63365  0.90106  1.0000 0.1619976504
C   C162      1.0  0.23140  0.66097  0.92860  1.0000 -0.1820061475
C   C163      1.0  0.15750  0.64001  0.96402  1.0000 -0.1702548055
C   C164      1.0  0.16730  0.59182  0.97219  1.0000 0.1193094499
C   C165      1.0  0.25190  0.56348  0.94468  1.0000 -0.188276083
C   C166      1.0  0.33010  0.58498  0.90967  1.0000 -0.1820061475
C   C167      1.0  0.96610  0.58112  0.02661  1.0000 0.0588177509
C   C168      1.0  0.14800  0.53749  0.04048  1.0000 0.0721054577
C   C169      1.0  0.77290  0.03777  0.79826  1.0000 0.0014078597
C   C170      1.0  0.98240  0.03534  0.82634  1.0000 0.0140014467
C   C171      1.0  0.95270  0.07728  0.74945  1.0000 0.1280657182
C   C172      1.0  0.09030  0.07457  0.73684  1.0000 -0.188276083
C   C173      1.0  0.13770  0.10092  0.69893  1.0000 -0.1702548055
C   C174      1.0  0.04940  0.12903  0.67311  1.0000 0.1619976504
C   C175      1.0  0.91160  0.13079  0.68591  1.0000 -0.1702548055
C   C176      1.0  0.86390  0.10583  0.72417  1.0000 -0.1820061475
C   C177      1.0  0.04400  0.20297  0.62673  1.0000 0.1619976504
C   C178      1.0  0.99420  0.21711  0.58323  1.0000 -0.188276083
C   C179      1.0  0.94160  0.26282  0.57673  1.0000 -0.188276083
C   C180      1.0  0.93490  0.29411  0.61482  1.0000 0.1280657182
C   C181      1.0  0.98160  0.28030  0.65772  1.0000 -0.188276083
C   C182      1.0  0.03830  0.23518  0.66323  1.0000 -0.1820061475
C   C183      1.0  0.79160  0.35714  0.57344  1.0000 -0.0221529217
C   C184      1.0  0.92700  0.38203  0.63001  1.0000 -0.0075579303
C   C185      1.0  0.17890  0.13365  0.59894  1.0000 0.1619976504
C   C186      1.0  0.26860  0.16097  0.57140  1.0000 -0.1820061475
C   C187      1.0  0.34250  0.14001  0.53598  1.0000 -0.1702548055
C   C188      1.0  0.33270  0.09182  0.52781  1.0000 0.1193094499
C   C189      1.0  0.24810  0.06348  0.55532  1.0000 -0.188276083
C   C190      1.0  0.16990  0.08498  0.59033  1.0000 -0.1820061475
C   C191      1.0  0.53390  0.08112  0.47339  1.0000 0.0588177509
C   C192      1.0  0.35200  0.03749  0.45952  1.0000 0.0721054577
N   N1        1.0  0.26270  0.48548  0.33815  1.0000 -0.1702548055
N   N2        1.0  0.39290  0.48660  0.35624  1.0000 -0.2114573376
N   N3        1.0  0.40580  0.44888  0.28938  1.0000 -0.0075579303
N   N4        1.0  0.59760  0.34401  0.13371  1.0000 -0.2031089303
N   N5        1.0  0.38430  0.15753  0.10729  1.0000 -0.0221529217
N   N6        1.0  0.27850  0.09516  0.07743  1.0000 -0.2290886476
N   N7        1.0  0.36550  0.07943  0.11321  1.0000 -0.188276083
N   N8        1.0  0.90462  0.42963  0.98870  1.0000 -0.0075579303
N   N9        1.0  0.94070  0.47319  0.92613  1.0000 -0.188276083
N   N10       1.0  0.05720  0.44534  0.93425  1.0000 -0.2290886476
N   N11       1.0  0.23730  0.98548  0.16185  1.0000 -0.1702548055
N   N12       1.0  0.10710  0.98660  0.14376  1.0000 -0.2114573376
N   N13       1.0  0.09420  0.94888  0.21062  1.0000 -0.0075579303
N   N14       1.0  0.90240  0.84401  0.36629  1.0000 -0.2031089303
N   N15       1.0  0.11570  0.65753  0.39271  1.0000 -0.0221529217
N   N16       1.0  0.22150  0.59516  0.42257  1.0000 -0.2290886476
N   N17       1.0  0.13450  0.57943  0.38679  1.0000 -0.188276083
N   N18       1.0  0.59538  0.92963  0.51130  1.0000 -0.0075579303
N   N19       1.0  0.55930  0.97319  0.57387  1.0000 -0.188276083
N   N20       1.0  0.44280  0.94534  0.56575  1.0000 -0.2290886476
N   N21       1.0  0.73730  0.48548  0.83815  1.0000 -0.1702548055
N   N22       1.0  0.60710  0.48660  0.85624  1.0000 -0.2114573376
N   N23       1.0  0.59420  0.44888  0.78938  1.0000 -0.0075579303
N   N24       1.0  0.40240  0.34401  0.63371  1.0000 -0.2031089303
N   N25       1.0  0.61570  0.15753  0.60729  1.0000 -0.0221529217
N   N26       1.0  0.72150  0.09516  0.57743  1.0000 -0.2290886476
N   N27       1.0  0.63450  0.07943  0.61321  1.0000 -0.188276083
N   N28       1.0  0.09538  0.42963  0.48870  1.0000 -0.0075579303
N   N29       1.0  0.05930  0.47319  0.42613  1.0000 -0.188276083
N   N30       1.0  0.94280  0.44534  0.43425  1.0000 -0.2290886476
N   N31       1.0  0.76270  0.98548  0.66185  1.0000 -0.1702548055
N   N32       1.0  0.89290  0.98660  0.64376  1.0000 -0.2114573376
N   N33       1.0  0.90580  0.94888  0.71062  1.0000 -0.0075579303
N   N34       1.0  0.09760  0.84401  0.86629  1.0000 -0.2031089303
N   N35       1.0  0.88430  0.65753  0.89271  1.0000 -0.0221529217
N   N36       1.0  0.77850  0.59516  0.92257  1.0000 -0.2290886476
N   N37       1.0  0.86550  0.57943  0.88679  1.0000 -0.188276083
N   N38       1.0  0.40462  0.92963  0.01130  1.0000 -0.0075579303
N   N39       1.0  0.44070  0.97319  0.07387  1.0000 -0.188276083
N   N40       1.0  0.55720  0.94534  0.06575  1.0000 -0.2290886476
N   N41       1.0  0.26270  0.51452  0.16185  1.0000 -0.1702548055
N   N42       1.0  0.39290  0.51340  0.14376  1.0000 -0.2114573376
N   N43       1.0  0.40580  0.55112  0.21062  1.0000 -0.0075579303
N   N44       1.0  0.59760  0.65599  0.36629  1.0000 -0.2031089303
N   N45       1.0  0.38430  0.84247  0.39271  1.0000 -0.0221529217
N   N46       1.0  0.27850  0.90484  0.42257  1.0000 -0.2290886476
N   N47       1.0  0.36550  0.92057  0.38679  1.0000 -0.188276083
N   N48       1.0  0.90462  0.57037  0.51130  1.0000 -0.0075579303
N   N49       1.0  0.94070  0.52681  0.57387  1.0000 -0.188276083
N   N50       1.0  0.05720  0.55466  0.56575  1.0000 -0.2290886476
N   N51       1.0  0.23730  0.01452  0.33815  1.0000 -0.1702548055
N   N52       1.0  0.10710  0.01340  0.35624  1.0000 -0.2114573376
N   N53       1.0  0.09420  0.05112  0.28938  1.0000 -0.0075579303
N   N54       1.0  0.90240  0.15599  0.13371  1.0000 -0.2031089303
N   N55       1.0  0.11570  0.34247  0.10729  1.0000 -0.0221529217
N   N56       1.0  0.22150  0.40484  0.07743  1.0000 -0.2290886476
N   N57       1.0  0.13450  0.42057  0.11321  1.0000 -0.188276083
N   N58       1.0  0.59538  0.07037  0.98870  1.0000 -0.0075579303
N   N59       1.0  0.55930  0.02681  0.92613  1.0000 -0.188276083
N   N60       1.0  0.44280  0.05466  0.93425  1.0000 -0.2290886476
N   N61       1.0  0.73730  0.51452  0.66185  1.0000 -0.1702548055
N   N62       1.0  0.60710  0.51340  0.64376  1.0000 -0.2114573376
N   N63       1.0  0.59420  0.55112  0.71062  1.0000 -0.0075579303
N   N64       1.0  0.40240  0.65599  0.86629  1.0000 -0.2031089303
N   N65       1.0  0.61570  0.84247  0.89271  1.0000 -0.0221529217
N   N66       1.0  0.72150  0.90484  0.92257  1.0000 -0.2290886476
N   N67       1.0  0.63450  0.92057  0.88679  1.0000 -0.188276083
N   N68       1.0  0.09538  0.57037  0.01130  1.0000 -0.0075579303
N   N69       1.0  0.05930  0.52681  0.07387  1.0000 -0.188276083
N   N70       1.0  0.94280  0.55466  0.06575  1.0000 -0.2290886476
N   N71       1.0  0.76270  0.01452  0.83815  1.0000 -0.1702548055
N   N72       1.0  0.89290  0.01340  0.85624  1.0000 -0.2114573376
N   N73       1.0  0.90580  0.05112  0.78938  1.0000 -0.0075579303
N   N74       1.0  0.09760  0.15599  0.63371  1.0000 -0.2031089303
N   N75       1.0  0.88430  0.34247  0.60729  1.0000 -0.0221529217
N   N76       1.0  0.77850  0.40484  0.57743  1.0000 -0.2290886476
N   N77       1.0  0.86550  0.42057  0.61321  1.0000 -0.188276083
N   N78       1.0  0.40462  0.07037  0.48870  1.0000 -0.0075579303
N   N79       1.0  0.44070  0.02681  0.42613  1.0000 -0.188276083
N   N80       1.0  0.55720  0.05466  0.43425  1.0000 -0.2290886476
