# DDEC6 charges by PACMAN v1.1 (https://github.com/mtap-research/PACMAN-charge/)
data_2020[Zn][nan]2[ASR]5
_chemical_formula_sum              "Zn12 H144 C240 N32 O48"
_cell_length_a       21.001
_cell_length_b       21.001
_cell_length_c       25.7766
_cell_angle_alpha    59.4837
_cell_angle_beta     120.516
_cell_angle_gamma    110.127

_symmetry_space_group_name_H-M    "P 1"
_symmetry_Int_Tables_number       1

loop_
  _symmetry_equiv_pos_as_xyz
  'x, y, z'

loop_
  _atom_site_type_symbol
  _atom_site_label
  _atom_site_symmetry_multiplicity
  _atom_site_fract_x
  _atom_site_fract_y
  _atom_site_fract_z
  _atom_site_occupancy
  _atom_site_charge
Zn  Zn1       1.0  0.22239  0.35373  0.45159  1.0000 0.8625956152
Zn  Zn2       1.0  0.91245  0.66907  0.80843  1.0000 0.8013341848
Zn  Zn3       1.0  0.04093  0.45509  0.36608  1.0000 0.8398585145
Zn  Zn4       1.0  0.35373  0.22239  0.04841  1.0000 0.8625956152
Zn  Zn5       1.0  0.66907  0.91245  0.69157  1.0000 0.8013341848
Zn  Zn6       1.0  0.45509  0.04093  0.13392  1.0000 0.8398585145
Zn  Zn7       1.0  0.77761  0.64627  0.54841  1.0000 0.8625956152
Zn  Zn8       1.0  0.08755  0.33093  0.19157  1.0000 0.8013341848
Zn  Zn9       1.0  0.95907  0.54491  0.63392  1.0000 0.8398585145
Zn  Zn10      1.0  0.64627  0.77761  0.95159  1.0000 0.8625956152
Zn  Zn11      1.0  0.33093  0.08755  0.30843  1.0000 0.8013341848
Zn  Zn12      1.0  0.54491  0.95907  0.86608  1.0000 0.8398585145
H   H1        1.0  0.13200  0.40200  0.30420  1.0000 0.1209917602
H   H2        1.0  0.31430  0.59830  0.31330  1.0000 0.1383308534
H   H3        1.0  0.12900  0.50220  0.20700  1.0000 0.1383308534
H   H4        1.0  0.57140  0.67480  0.75900  1.0000 0.1285182696
H   H5        1.0  0.98650  0.05910  0.52660  1.0000 0.1285182696
H   H6        1.0  0.30820  0.85620  0.03830  1.0000 0.1383308534
H   H7        1.0  0.31290  0.49530  0.40720  1.0000 0.1209917602
H   H8        1.0  0.82630  0.18750  0.37340  1.0000 0.1209917602
H   H9        1.0  0.06900  0.57420  0.05090  1.0000 0.1457696084
H   H10       1.0  0.07520  0.15880  0.50780  1.0000 0.1209917602
H   H11       1.0  0.43110  0.76910  0.57060  1.0000 0.111474992
H   H12       1.0  0.29950  0.49530  0.52000  1.0000 0.1209917602
H   H13       1.0  0.03070  0.78310  0.85740  1.0000 0.1209917602
H   H14       1.0  0.49000  0.56680  0.77220  1.0000 0.1209917602
H   H15       1.0  0.31840  0.39960  0.73770  1.0000 0.1209917602
H   H16       1.0  0.13150  0.78750  0.95250  1.0000 0.1383308534
H   H17       1.0  0.85140  0.91660  0.49010  1.0000 0.1285182696
H   H18       1.0  0.91590  0.28550  0.35330  1.0000 0.111474992
H   H19       1.0  0.97200  0.57480  0.95340  1.0000 0.1209917602
H   H20       1.0  0.34610  0.66510  0.58440  1.0000 0.1209917602
H   H21       1.0  0.12890  0.47770  0.55650  1.0000 0.1209917602
H   H22       1.0  0.38100  0.52880  0.60730  1.0000 0.1285182696
H   H23       1.0  0.71300  0.99700  0.46660  1.0000 0.1209917602
H   H24       1.0  0.31810  0.32030  0.84080  1.0000 0.1209917602
H   H25       1.0  0.80510  0.09050  0.33710  1.0000 0.1209917602
H   H26       1.0  0.87530  0.81210  0.58880  1.0000 0.1209917602
H   H27       1.0  0.87440  0.03640  0.58080  1.0000 0.1209917602
H   H28       1.0  0.89480  0.93040  0.67880  1.0000 0.1285182696
H   H29       1.0  0.21050  0.51150  0.64370  1.0000 0.1209917602
H   H30       1.0  0.37680  0.57300  0.78410  1.0000 0.1209917602
H   H31       1.0  0.38570  0.76590  0.23570  1.0000 0.1383308534
H   H32       1.0  0.45960  0.87620  0.23540  1.0000 0.1209917602
H   H33       1.0  0.59830  0.98430  0.38400  1.0000 0.1209917602
H   H34       1.0  0.38160  0.49260  0.88830  1.0000 0.1209917602
H   H35       1.0  0.68970  0.08050  0.25480  1.0000 0.1285182696
H   H36       1.0  0.38650  0.96270  0.04370  1.0000 0.1209917602
H   H37       1.0  0.40200  0.13200  0.19580  1.0000 0.1209917602
H   H38       1.0  0.59830  0.31430  0.18670  1.0000 0.1383308534
H   H39       1.0  0.50220  0.12900  0.29300  1.0000 0.1383308534
H   H40       1.0  0.67480  0.57140  0.74100  1.0000 0.1285182696
H   H41       1.0  0.05910  0.98650  0.97340  1.0000 0.1285182696
H   H42       1.0  0.85620  0.30820  0.46170  1.0000 0.1383308534
H   H43       1.0  0.49530  0.31290  0.09280  1.0000 0.1209917602
H   H44       1.0  0.18750  0.82630  0.12660  1.0000 0.1209917602
H   H45       1.0  0.57420  0.06900  0.44910  1.0000 0.1457696084
H   H46       1.0  0.15880  0.07520  0.99220  1.0000 0.1209917602
H   H47       1.0  0.76910  0.43110  0.92940  1.0000 0.111474992
H   H48       1.0  0.49530  0.29950  0.98000  1.0000 0.1209917602
H   H49       1.0  0.78310  0.03070  0.64260  1.0000 0.1209917602
H   H50       1.0  0.56680  0.49000  0.72780  1.0000 0.1209917602
H   H51       1.0  0.39960  0.31840  0.76230  1.0000 0.1209917602
H   H52       1.0  0.78750  0.13150  0.54750  1.0000 0.1383308534
H   H53       1.0  0.91660  0.85140  0.00990  1.0000 0.1285182696
H   H54       1.0  0.28550  0.91590  0.14670  1.0000 0.111474992
H   H55       1.0  0.57480  0.97200  0.54660  1.0000 0.1209917602
H   H56       1.0  0.66510  0.34610  0.91560  1.0000 0.1209917602
H   H57       1.0  0.47770  0.12890  0.94350  1.0000 0.1209917602
H   H58       1.0  0.52880  0.38100  0.89270  1.0000 0.1285182696
H   H59       1.0  0.99700  0.71300  0.03340  1.0000 0.1209917602
H   H60       1.0  0.32030  0.31810  0.65920  1.0000 0.1209917602
H   H61       1.0  0.09050  0.80510  0.16290  1.0000 0.1209917602
H   H62       1.0  0.81210  0.87530  0.91120  1.0000 0.1209917602
H   H63       1.0  0.03640  0.87440  0.91920  1.0000 0.1209917602
H   H64       1.0  0.93040  0.89480  0.82120  1.0000 0.1285182696
H   H65       1.0  0.51150  0.21050  0.85630  1.0000 0.1209917602
H   H66       1.0  0.57300  0.37680  0.71590  1.0000 0.1209917602
H   H67       1.0  0.76590  0.38570  0.26430  1.0000 0.1383308534
H   H68       1.0  0.87620  0.45960  0.26460  1.0000 0.1209917602
H   H69       1.0  0.98430  0.59830  0.11600  1.0000 0.1209917602
H   H70       1.0  0.49260  0.38160  0.61170  1.0000 0.1209917602
H   H71       1.0  0.08050  0.68970  0.24520  1.0000 0.1285182696
H   H72       1.0  0.96270  0.38650  0.45630  1.0000 0.1209917602
H   H73       1.0  0.86800  0.59800  0.69580  1.0000 0.1209917602
H   H74       1.0  0.68570  0.40170  0.68670  1.0000 0.1383308534
H   H75       1.0  0.87100  0.49780  0.79300  1.0000 0.1383308534
H   H76       1.0  0.42860  0.32520  0.24100  1.0000 0.1285182696
H   H77       1.0  0.01350  0.94090  0.47340  1.0000 0.1285182696
H   H78       1.0  0.69180  0.14380  0.96170  1.0000 0.1383308534
H   H79       1.0  0.68710  0.50470  0.59280  1.0000 0.1209917602
H   H80       1.0  0.17370  0.81250  0.62660  1.0000 0.1209917602
H   H81       1.0  0.93100  0.42580  0.94910  1.0000 0.1457696084
H   H82       1.0  0.92480  0.84120  0.49220  1.0000 0.1209917602
H   H83       1.0  0.56890  0.23090  0.42940  1.0000 0.111474992
H   H84       1.0  0.70050  0.50470  0.48000  1.0000 0.1209917602
H   H85       1.0  0.96930  0.21690  0.14260  1.0000 0.1209917602
H   H86       1.0  0.51000  0.43320  0.22780  1.0000 0.1209917602
H   H87       1.0  0.68160  0.60040  0.26230  1.0000 0.1209917602
H   H88       1.0  0.86850  0.21250  0.04750  1.0000 0.1383308534
H   H89       1.0  0.14860  0.08340  0.50990  1.0000 0.1285182696
H   H90       1.0  0.08410  0.71450  0.64670  1.0000 0.111474992
H   H91       1.0  0.02800  0.42520  0.04660  1.0000 0.1209917602
H   H92       1.0  0.65390  0.33490  0.41560  1.0000 0.1209917602
H   H93       1.0  0.87110  0.52230  0.44350  1.0000 0.1209917602
H   H94       1.0  0.61900  0.47120  0.39270  1.0000 0.1285182696
H   H95       1.0  0.28700  0.00300  0.53340  1.0000 0.1209917602
H   H96       1.0  0.68190  0.67970  0.15920  1.0000 0.1209917602
H   H97       1.0  0.19490  0.90950  0.66290  1.0000 0.1209917602
H   H98       1.0  0.12470  0.18790  0.41120  1.0000 0.1209917602
H   H99       1.0  0.12560  0.96360  0.41920  1.0000 0.1209917602
H   H100      1.0  0.10520  0.06960  0.32120  1.0000 0.1285182696
H   H101      1.0  0.78950  0.48850  0.35630  1.0000 0.1209917602
H   H102      1.0  0.62320  0.42700  0.21590  1.0000 0.1209917602
H   H103      1.0  0.61430  0.23410  0.76430  1.0000 0.1383308534
H   H104      1.0  0.54040  0.12380  0.76460  1.0000 0.1209917602
H   H105      1.0  0.40170  0.01570  0.61600  1.0000 0.1209917602
H   H106      1.0  0.61840  0.50740  0.11170  1.0000 0.1209917602
H   H107      1.0  0.31030  0.91950  0.74520  1.0000 0.1285182696
H   H108      1.0  0.61350  0.03730  0.95630  1.0000 0.1209917602
H   H109      1.0  0.59800  0.86800  0.80420  1.0000 0.1209917602
H   H110      1.0  0.40170  0.68570  0.81330  1.0000 0.1383308534
H   H111      1.0  0.49780  0.87100  0.70700  1.0000 0.1383308534
H   H112      1.0  0.32520  0.42860  0.25900  1.0000 0.1285182696
H   H113      1.0  0.94090  0.01350  0.02660  1.0000 0.1285182696
H   H114      1.0  0.14380  0.69180  0.53830  1.0000 0.1383308534
H   H115      1.0  0.50470  0.68710  0.90720  1.0000 0.1209917602
H   H116      1.0  0.81250  0.17370  0.87340  1.0000 0.1209917602
H   H117      1.0  0.42580  0.93100  0.55090  1.0000 0.1457696084
H   H118      1.0  0.84120  0.92480  0.00780  1.0000 0.1209917602
H   H119      1.0  0.23090  0.56890  0.07060  1.0000 0.111474992
H   H120      1.0  0.50470  0.70050  0.02000  1.0000 0.1209917602
H   H121      1.0  0.21690  0.96930  0.35740  1.0000 0.1209917602
H   H122      1.0  0.43320  0.51000  0.27220  1.0000 0.1209917602
H   H123      1.0  0.60040  0.68160  0.23770  1.0000 0.1209917602
H   H124      1.0  0.21250  0.86850  0.45250  1.0000 0.1383308534
H   H125      1.0  0.08340  0.14860  0.99010  1.0000 0.1285182696
H   H126      1.0  0.71450  0.08410  0.85330  1.0000 0.111474992
H   H127      1.0  0.42520  0.02800  0.45340  1.0000 0.1209917602
H   H128      1.0  0.33490  0.65390  0.08440  1.0000 0.1209917602
H   H129      1.0  0.52230  0.87110  0.05650  1.0000 0.1209917602
H   H130      1.0  0.47120  0.61900  0.10730  1.0000 0.1285182696
H   H131      1.0  0.00300  0.28700  0.96660  1.0000 0.1209917602
H   H132      1.0  0.67970  0.68190  0.34080  1.0000 0.1209917602
H   H133      1.0  0.90950  0.19490  0.83710  1.0000 0.1209917602
H   H134      1.0  0.18790  0.12470  0.08880  1.0000 0.1209917602
H   H135      1.0  0.96360  0.12560  0.08080  1.0000 0.1209917602
H   H136      1.0  0.06960  0.10520  0.17880  1.0000 0.1285182696
H   H137      1.0  0.48850  0.78950  0.14370  1.0000 0.1209917602
H   H138      1.0  0.42700  0.62320  0.28410  1.0000 0.1209917602
H   H139      1.0  0.23410  0.61430  0.73570  1.0000 0.1383308534
H   H140      1.0  0.12380  0.54040  0.73540  1.0000 0.1209917602
H   H141      1.0  0.01570  0.40170  0.88400  1.0000 0.1209917602
H   H142      1.0  0.50740  0.61840  0.38830  1.0000 0.1209917602
H   H143      1.0  0.91950  0.31030  0.75480  1.0000 0.1285182696
H   H144      1.0  0.03730  0.61350  0.54370  1.0000 0.1209917602
C   C1        1.0  0.22248  0.56118  0.24929  1.0000 0.0598449942
C   C2        1.0  0.17196  0.68166  0.07633  1.0000 0.3629256163
C   C3        1.0  0.16917  0.44189  0.30571  1.0000 0.101335007
C   C4        1.0  0.27711  0.55865  0.31037  1.0000 -0.1709266269
C   C5        1.0  0.22342  0.62522  0.18744  1.0000 0.3742625241
C   C6        1.0  0.16699  0.50175  0.24718  1.0000 -0.1491774588
C   C7        1.0  0.27719  0.73545  0.13427  1.0000 0.3500037019
C   C8        1.0  0.85958  0.98692  0.52515  1.0000 0.1794187913
C   C9        1.0  0.52617  0.67285  0.72369  1.0000 -0.0861780163
C   C10       1.0  0.89644  0.11158  0.45168  1.0000 0.1979694192
C   C11       1.0  0.11072  0.68138  0.01273  1.0000 0.0667439804
C   C12       1.0  0.20582  0.48328  0.52921  1.0000 -0.031147965
C   C13       1.0  0.06251  0.29781  0.41483  1.0000 0.586699528
C   C14       1.0  0.15363  0.46241  0.47211  1.0000 0.5719920222
C   C15       1.0  0.97180  0.10462  0.49170  1.0000 -0.1913405086
C   C16       1.0  0.33753  0.85955  0.07880  1.0000 -0.1709266269
C   C17       1.0  0.30367  0.52319  0.63414  1.0000 0.1794187913
C   C18       1.0  0.00516  0.23308  0.42805  1.0000 -0.0484300356
C   C19       1.0  0.27569  0.49695  0.36646  1.0000 0.101335007
C   C20       1.0  0.87633  0.18101  0.40010  1.0000 -0.1913405086
C   C21       1.0  0.06241  0.61739  0.01212  1.0000 -0.1491774588
C   C22       1.0  0.77152  0.04532  0.41075  1.0000 0.1794187913
C   C23       1.0  0.02515  0.16455  0.48018  1.0000 -0.0861780163
C   C24       1.0  0.50949  0.73447  0.66391  1.0000 -0.031147965
C   C25       1.0  0.44219  0.72925  0.61185  1.0000 -0.0806948853
C   C26       1.0  0.35101  0.49437  0.75115  1.0000 0.1794187913
C   C27       1.0  0.28138  0.49852  0.54476  1.0000 -0.0806948853
C   C28       1.0  0.03871  0.74063  0.89679  1.0000 0.0901861091
C   C29       1.0  0.40752  0.60510  0.68074  1.0000 0.1881463502
C   C30       1.0  0.47680  0.60824  0.73208  1.0000 -0.1913405086
C   C31       1.0  0.33165  0.41861  0.76797  1.0000 -0.1962540026
C   C32       1.0  0.09917  0.74385  0.95391  1.0000 -0.1821949895
C   C33       1.0  0.86029  0.91975  0.52799  1.0000 -0.1821949895
C   C34       1.0  0.93027  0.24007  0.38848  1.0000 -0.0806948853
C   C35       1.0  0.00418  0.61834  0.95337  1.0000 0.0777108802
C   C36       1.0  0.39139  0.66657  0.61980  1.0000 -0.1913405086
C   C37       1.0  0.17956  0.48808  0.56657  1.0000 -0.0806948853
C   C38       1.0  0.33476  0.80068  0.13634  1.0000 0.0598449942
C   C39       1.0  0.33030  0.51852  0.59714  1.0000 -0.1821949895
C   C40       1.0  0.70883  0.01357  0.42406  1.0000 -0.1913405086
C   C41       1.0  0.33202  0.37096  0.83013  1.0000 -0.0806948853
C   C42       1.0  0.88672  0.86004  0.64386  1.0000 -0.0213832005
C   C43       1.0  0.76358  0.06968  0.34682  1.0000 -0.1913405086
C   C44       1.0  0.87429  0.85697  0.58724  1.0000 -0.0806948853
C   C45       1.0  0.87355  0.99109  0.58204  1.0000 -0.1913405086
C   C46       1.0  0.88637  0.92747  0.64093  1.0000 -0.0806948853
C   C47       1.0  0.22841  0.50817  0.61889  1.0000 -0.1913405086
C   C48       1.0  0.36724  0.52192  0.79592  1.0000 -0.1962540026
C   C49       1.0  0.63162  0.03148  0.31077  1.0000 -0.031147965
C   C50       1.0  0.35270  0.39770  0.87612  1.0000 -0.031147965
C   C51       1.0  0.38323  0.80615  0.19591  1.0000 -0.1709266269
C   C52       1.0  0.42791  0.87243  0.19526  1.0000 0.0901861091
C   C53       1.0  0.55636  0.02206  0.25752  1.0000 0.5501765931
C   C54       1.0  0.63979  0.00643  0.37423  1.0000 -0.0861780163
C   C55       1.0  0.55909  0.80649  0.65388  1.0000 0.5501765931
C   C56       1.0  0.36914  0.47366  0.85815  1.0000 -0.0861780163
C   C57       1.0  0.69422  0.06320  0.29756  1.0000 -0.0806948853
C   C58       1.0  0.36027  0.34617  0.94530  1.0000 0.5501765931
C   C59       1.0  0.38453  0.92327  0.08251  1.0000 0.0777108802
C   C60       1.0  0.89958  0.79018  0.70744  1.0000 0.5446121518
C   C61       1.0  0.56118  0.22248  0.25071  1.0000 0.0598449942
C   C62       1.0  0.68166  0.17196  0.42367  1.0000 0.3629256163
C   C63       1.0  0.44189  0.16917  0.19429  1.0000 0.101335007
C   C64       1.0  0.55865  0.27711  0.18963  1.0000 -0.1709266269
C   C65       1.0  0.62522  0.22342  0.31256  1.0000 0.3742625241
C   C66       1.0  0.50175  0.16699  0.25282  1.0000 -0.1491774588
C   C67       1.0  0.73545  0.27719  0.36573  1.0000 0.3500037019
C   C68       1.0  0.98692  0.85958  0.97485  1.0000 0.1794187913
C   C69       1.0  0.67285  0.52617  0.77631  1.0000 -0.0861780163
C   C70       1.0  0.11158  0.89644  0.04832  1.0000 0.1979694192
C   C71       1.0  0.68138  0.11072  0.48727  1.0000 0.0667439804
C   C72       1.0  0.48328  0.20582  0.97079  1.0000 -0.031147965
C   C73       1.0  0.29781  0.06251  0.08517  1.0000 0.586699528
C   C74       1.0  0.46241  0.15363  0.02789  1.0000 0.5719920222
C   C75       1.0  0.10462  0.97180  0.00830  1.0000 -0.1913405086
C   C76       1.0  0.85955  0.33753  0.42120  1.0000 -0.1709266269
C   C77       1.0  0.52319  0.30367  0.86586  1.0000 0.1794187913
C   C78       1.0  0.23308  0.00516  0.07195  1.0000 -0.0484300356
C   C79       1.0  0.49695  0.27569  0.13354  1.0000 0.101335007
C   C80       1.0  0.18101  0.87633  0.09990  1.0000 -0.1913405086
C   C81       1.0  0.61739  0.06241  0.48788  1.0000 -0.1491774588
C   C82       1.0  0.04532  0.77152  0.08925  1.0000 0.1794187913
C   C83       1.0  0.16455  0.02515  0.01982  1.0000 -0.0861780163
C   C84       1.0  0.73447  0.50949  0.83609  1.0000 -0.031147965
C   C85       1.0  0.72925  0.44219  0.88815  1.0000 -0.0806948853
C   C86       1.0  0.49437  0.35101  0.74885  1.0000 0.1794187913
C   C87       1.0  0.49852  0.28138  0.95524  1.0000 -0.0806948853
C   C88       1.0  0.74063  0.03871  0.60321  1.0000 0.0901861091
C   C89       1.0  0.60510  0.40752  0.81926  1.0000 0.1881463502
C   C90       1.0  0.60824  0.47680  0.76792  1.0000 -0.1913405086
C   C91       1.0  0.41861  0.33165  0.73203  1.0000 -0.1962540026
C   C92       1.0  0.74385  0.09917  0.54609  1.0000 -0.1821949895
C   C93       1.0  0.91975  0.86029  0.97201  1.0000 -0.1821949895
C   C94       1.0  0.24007  0.93027  0.11152  1.0000 -0.0806948853
C   C95       1.0  0.61834  0.00418  0.54663  1.0000 0.0777108802
C   C96       1.0  0.66657  0.39139  0.88020  1.0000 -0.1913405086
C   C97       1.0  0.48808  0.17956  0.93343  1.0000 -0.0806948853
C   C98       1.0  0.80068  0.33476  0.36366  1.0000 0.0598449942
C   C99       1.0  0.51852  0.33030  0.90286  1.0000 -0.1821949895
C   C100      1.0  0.01357  0.70883  0.07594  1.0000 -0.1913405086
C   C101      1.0  0.37096  0.33202  0.66987  1.0000 -0.0806948853
C   C102      1.0  0.86004  0.88672  0.85614  1.0000 -0.0213832005
C   C103      1.0  0.06968  0.76358  0.15318  1.0000 -0.1913405086
C   C104      1.0  0.85697  0.87429  0.91276  1.0000 -0.0806948853
C   C105      1.0  0.99109  0.87355  0.91796  1.0000 -0.1913405086
C   C106      1.0  0.92747  0.88637  0.85907  1.0000 -0.0806948853
C   C107      1.0  0.50817  0.22841  0.88111  1.0000 -0.1913405086
C   C108      1.0  0.52192  0.36724  0.70408  1.0000 -0.1962540026
C   C109      1.0  0.03148  0.63162  0.18923  1.0000 -0.031147965
C   C110      1.0  0.39770  0.35270  0.62388  1.0000 -0.031147965
C   C111      1.0  0.80615  0.38323  0.30409  1.0000 -0.1709266269
C   C112      1.0  0.87243  0.42791  0.30474  1.0000 0.0901861091
C   C113      1.0  0.02206  0.55636  0.24248  1.0000 0.5501765931
C   C114      1.0  0.00643  0.63979  0.12577  1.0000 -0.0806948853
C   C115      1.0  0.80649  0.55909  0.84612  1.0000 0.5501765931
C   C116      1.0  0.47366  0.36914  0.64185  1.0000 -0.0861780163
C   C117      1.0  0.06320  0.69422  0.20244  1.0000 -0.0806948853
C   C118      1.0  0.34617  0.36027  0.55470  1.0000 0.5501765931
C   C119      1.0  0.92327  0.38453  0.41749  1.0000 0.0777108802
C   C120      1.0  0.79018  0.89958  0.79256  1.0000 0.5446121518
C   C121      1.0  0.77752  0.43882  0.75071  1.0000 0.0598449942
C   C122      1.0  0.82804  0.31834  0.92367  1.0000 0.3629256163
C   C123      1.0  0.83083  0.55811  0.69429  1.0000 0.101335007
C   C124      1.0  0.72289  0.44135  0.68963  1.0000 -0.1709266269
C   C125      1.0  0.77658  0.37478  0.81256  1.0000 0.3742625241
C   C126      1.0  0.83301  0.49825  0.75282  1.0000 -0.1491774588
C   C127      1.0  0.72281  0.26455  0.86573  1.0000 0.3500037019
C   C128      1.0  0.14042  0.01308  0.47485  1.0000 0.1794187913
C   C129      1.0  0.47383  0.32715  0.27631  1.0000 -0.0861780163
C   C130      1.0  0.10356  0.88842  0.54832  1.0000 0.1979694192
C   C131      1.0  0.88928  0.31862  0.98727  1.0000 0.0667439804
C   C132      1.0  0.79418  0.51672  0.47079  1.0000 -0.031147965
C   C133      1.0  0.93749  0.70219  0.58517  1.0000 0.586699528
C   C134      1.0  0.84637  0.53759  0.52789  1.0000 0.5719920222
C   C135      1.0  0.02820  0.89538  0.50830  1.0000 -0.1913405086
C   C136      1.0  0.66247  0.14045  0.92120  1.0000 -0.1709266269
C   C137      1.0  0.69633  0.47681  0.36586  1.0000 0.1794187913
C   C138      1.0  0.99484  0.76692  0.57195  1.0000 -0.0484300356
C   C139      1.0  0.72431  0.50305  0.63354  1.0000 0.101335007
C   C140      1.0  0.12367  0.81899  0.59990  1.0000 -0.1913405086
C   C141      1.0  0.93759  0.38261  0.98788  1.0000 -0.1491774588
C   C142      1.0  0.22848  0.95468  0.58925  1.0000 0.1794187913
C   C143      1.0  0.97485  0.83545  0.51982  1.0000 -0.0861780163
C   C144      1.0  0.49051  0.26553  0.33609  1.0000 -0.031147965
C   C145      1.0  0.55781  0.27075  0.38815  1.0000 -0.0806948853
C   C146      1.0  0.64899  0.50563  0.24885  1.0000 0.1794187913
C   C147      1.0  0.71862  0.50148  0.45524  1.0000 -0.0806948853
C   C148      1.0  0.96129  0.25937  0.10321  1.0000 0.0901861091
C   C149      1.0  0.59248  0.39490  0.31926  1.0000 0.1881463502
C   C150      1.0  0.52320  0.39176  0.26792  1.0000 -0.1913405086
C   C151      1.0  0.66835  0.58139  0.23203  1.0000 -0.1962540026
C   C152      1.0  0.90083  0.25615  0.04609  1.0000 -0.1821949895
C   C153      1.0  0.13971  0.08025  0.47201  1.0000 -0.1821949895
C   C154      1.0  0.06973  0.75993  0.61152  1.0000 -0.0806948853
C   C155      1.0  0.99582  0.38166  0.04663  1.0000 0.0777108802
C   C156      1.0  0.60861  0.33343  0.38020  1.0000 -0.1913405086
C   C157      1.0  0.82044  0.51192  0.43343  1.0000 -0.0806948853
C   C158      1.0  0.66524  0.19932  0.86366  1.0000 0.0598449942
C   C159      1.0  0.66970  0.48148  0.40286  1.0000 -0.1821949895
C   C160      1.0  0.29117  0.98643  0.57594  1.0000 -0.1913405086
C   C161      1.0  0.66798  0.62904  0.16987  1.0000 -0.0806948853
C   C162      1.0  0.11328  0.13996  0.35614  1.0000 -0.0213832005
C   C163      1.0  0.23642  0.93032  0.65318  1.0000 -0.1913405086
C   C164      1.0  0.12571  0.14303  0.41276  1.0000 -0.0806948853
C   C165      1.0  0.12645  0.00891  0.41796  1.0000 -0.1913405086
C   C166      1.0  0.11363  0.07253  0.35907  1.0000 -0.0806948853
C   C167      1.0  0.77159  0.49183  0.38111  1.0000 -0.1913405086
C   C168      1.0  0.63276  0.47808  0.20408  1.0000 -0.1962540026
C   C169      1.0  0.36838  0.96852  0.68923  1.0000 -0.031147965
C   C170      1.0  0.64730  0.60230  0.12388  1.0000 -0.031147965
C   C171      1.0  0.61677  0.19385  0.80409  1.0000 -0.1709266269
C   C172      1.0  0.57209  0.12757  0.80474  1.0000 0.0901861091
C   C173      1.0  0.44364  0.97794  0.74248  1.0000 0.5501765931
C   C174      1.0  0.36021  0.99357  0.62577  1.0000 -0.0861780163
C   C175      1.0  0.44091  0.19351  0.34612  1.0000 0.5501765931
C   C176      1.0  0.63086  0.52634  0.14185  1.0000 -0.0861780163
C   C177      1.0  0.30578  0.93680  0.70244  1.0000 -0.0806948853
C   C178      1.0  0.63973  0.65383  0.05470  1.0000 0.5501765931
C   C179      1.0  0.61547  0.07673  0.91749  1.0000 0.0777108802
C   C180      1.0  0.10042  0.20982  0.29256  1.0000 0.5446121518
C   C181      1.0  0.43882  0.77752  0.74929  1.0000 0.0598449942
C   C182      1.0  0.31834  0.82804  0.57633  1.0000 0.3629256163
C   C183      1.0  0.55811  0.83083  0.80571  1.0000 0.101335007
C   C184      1.0  0.44135  0.72289  0.81037  1.0000 -0.1709266269
C   C185      1.0  0.37478  0.77658  0.68744  1.0000 0.3742625241
C   C186      1.0  0.49825  0.83301  0.74718  1.0000 -0.1491774588
C   C187      1.0  0.26455  0.72281  0.63427  1.0000 0.3500037019
C   C188      1.0  0.01308  0.14042  0.02515  1.0000 0.1794187913
C   C189      1.0  0.32715  0.47383  0.22369  1.0000 -0.0861780163
C   C190      1.0  0.88842  0.10356  0.95168  1.0000 0.1979694192
C   C191      1.0  0.31862  0.88928  0.51273  1.0000 0.0667439804
C   C192      1.0  0.51672  0.79418  0.02921  1.0000 -0.031147965
C   C193      1.0  0.70219  0.93749  0.91483  1.0000 0.586699528
C   C194      1.0  0.53759  0.84637  0.97211  1.0000 0.5719920222
C   C195      1.0  0.89538  0.02820  0.99170  1.0000 -0.1913405086
C   C196      1.0  0.14045  0.66247  0.57880  1.0000 -0.1709266269
C   C197      1.0  0.47681  0.69633  0.13414  1.0000 0.1794187913
C   C198      1.0  0.76692  0.99484  0.92805  1.0000 -0.0484300356
C   C199      1.0  0.50305  0.72431  0.86646  1.0000 0.101335007
C   C200      1.0  0.81899  0.12367  0.90010  1.0000 -0.1913405086
C   C201      1.0  0.38261  0.93759  0.51212  1.0000 -0.1491774588
C   C202      1.0  0.95468  0.22848  0.91075  1.0000 0.1794187913
C   C203      1.0  0.83545  0.97485  0.98018  1.0000 -0.0861780163
C   C204      1.0  0.26553  0.49051  0.16391  1.0000 -0.031147965
C   C205      1.0  0.27075  0.55781  0.11185  1.0000 -0.0806948853
C   C206      1.0  0.50563  0.64899  0.25115  1.0000 0.1794187913
C   C207      1.0  0.50148  0.71862  0.04476  1.0000 -0.0806948853
C   C208      1.0  0.25937  0.96129  0.39679  1.0000 0.0901861091
C   C209      1.0  0.39490  0.59248  0.18074  1.0000 0.1881463502
C   C210      1.0  0.39176  0.52320  0.23208  1.0000 -0.1913405086
C   C211      1.0  0.58139  0.66835  0.26797  1.0000 -0.1962540026
C   C212      1.0  0.25615  0.90083  0.45391  1.0000 -0.1821949895
C   C213      1.0  0.08025  0.13971  0.02799  1.0000 -0.1821949895
C   C214      1.0  0.75993  0.06973  0.88848  1.0000 -0.0806948853
C   C215      1.0  0.38166  0.99582  0.45337  1.0000 0.0777108802
C   C216      1.0  0.33343  0.60861  0.11980  1.0000 -0.1913405086
C   C217      1.0  0.51192  0.82044  0.06657  1.0000 -0.0806948853
C   C218      1.0  0.19932  0.66524  0.63634  1.0000 0.0598449942
C   C219      1.0  0.48148  0.66970  0.09714  1.0000 -0.1821949895
C   C220      1.0  0.98643  0.29117  0.92406  1.0000 -0.1913405086
C   C221      1.0  0.62904  0.66798  0.33013  1.0000 -0.0806948853
C   C222      1.0  0.13996  0.11328  0.14386  1.0000 -0.0213832005
C   C223      1.0  0.93032  0.23642  0.84682  1.0000 -0.1913405086
C   C224      1.0  0.14303  0.12571  0.08724  1.0000 -0.0806948853
C   C225      1.0  0.00891  0.12645  0.08204  1.0000 -0.1913405086
C   C226      1.0  0.07253  0.11363  0.14093  1.0000 -0.0806948853
C   C227      1.0  0.49183  0.77159  0.11889  1.0000 -0.1913405086
C   C228      1.0  0.47808  0.63276  0.29592  1.0000 -0.1962540026
C   C229      1.0  0.96852  0.36838  0.81077  1.0000 -0.031147965
C   C230      1.0  0.60230  0.64730  0.37612  1.0000 -0.031147965
C   C231      1.0  0.19385  0.61677  0.69591  1.0000 -0.1709266269
C   C232      1.0  0.12757  0.57209  0.69526  1.0000 0.0901861091
C   C233      1.0  0.97794  0.44364  0.75752  1.0000 0.5501765931
C   C234      1.0  0.99357  0.36021  0.87423  1.0000 -0.0861780163
C   C235      1.0  0.19351  0.44091  0.15388  1.0000 0.5501765931
C   C236      1.0  0.52634  0.63086  0.35815  1.0000 -0.0861780163
C   C237      1.0  0.93680  0.30578  0.79756  1.0000 -0.0806948853
C   C238      1.0  0.65383  0.63973  0.44530  1.0000 0.5501765931
C   C239      1.0  0.07673  0.61547  0.58251  1.0000 0.0777108802
C   C240      1.0  0.20982  0.10042  0.20744  1.0000 0.5446121518
N   N1        1.0  0.22271  0.43883  0.36474  1.0000 -0.2324095593
N   N2        1.0  0.27948  0.67998  0.19201  1.0000 -0.4141740415
N   N3        1.0  0.99172  0.67900  0.89612  1.0000 -0.2324095593
N   N4        1.0  0.16784  0.62390  0.13079  1.0000 -0.3884267013
N   N5        1.0  0.22528  0.73936  0.07458  1.0000 -0.4141740415
N   N6        1.0  0.84199  0.05087  0.46286  1.0000 -0.1821949895
N   N7        1.0  0.35368  0.54248  0.68883  1.0000 -0.1821949895
N   N8        1.0  0.42764  0.93126  0.13957  1.0000 -0.2324095593
N   N9        1.0  0.43883  0.22271  0.13526  1.0000 -0.2324095593
N   N10       1.0  0.67998  0.27948  0.30799  1.0000 -0.4141740415
N   N11       1.0  0.67900  0.99172  0.60388  1.0000 -0.2324095593
N   N12       1.0  0.62390  0.16784  0.36921  1.0000 -0.3884267013
N   N13       1.0  0.73936  0.22528  0.42542  1.0000 -0.4141740415
N   N14       1.0  0.05087  0.84199  0.03714  1.0000 -0.1821949895
N   N15       1.0  0.54248  0.35368  0.81117  1.0000 -0.1821949895
N   N16       1.0  0.93126  0.42764  0.36043  1.0000 -0.2324095593
N   N17       1.0  0.77729  0.56117  0.63526  1.0000 -0.2324095593
N   N18       1.0  0.72052  0.32002  0.80799  1.0000 -0.4141740415
N   N19       1.0  0.00828  0.32100  0.10388  1.0000 -0.2324095593
N   N20       1.0  0.83216  0.37610  0.86921  1.0000 -0.3884267013
N   N21       1.0  0.77472  0.26064  0.92542  1.0000 -0.4141740415
N   N22       1.0  0.15801  0.94913  0.53714  1.0000 -0.1821949895
N   N23       1.0  0.64632  0.45752  0.31117  1.0000 -0.1821949895
N   N24       1.0  0.57236  0.06874  0.86043  1.0000 -0.2324095593
N   N25       1.0  0.56117  0.77729  0.86474  1.0000 -0.2324095593
N   N26       1.0  0.32002  0.72052  0.69201  1.0000 -0.4141740415
N   N27       1.0  0.32100  0.00828  0.39612  1.0000 -0.2324095593
N   N28       1.0  0.37610  0.83216  0.63079  1.0000 -0.3884267013
N   N29       1.0  0.26064  0.77472  0.57458  1.0000 -0.4141740415
N   N30       1.0  0.94913  0.15801  0.96286  1.0000 -0.1821949895
N   N31       1.0  0.45752  0.64632  0.18883  1.0000 -0.1821949895
N   N32       1.0  0.06874  0.57236  0.63957  1.0000 -0.2324095593
O   O1        1.0  0.04029  0.35937  0.36826  1.0000 -0.5499226626
O   O2        1.0  0.08495  0.45879  0.45422  1.0000 -0.5396933842
O   O3        1.0  0.12944  0.28660  0.45037  1.0000 -0.5223932441
O   O4        1.0  0.55191  0.05637  0.19873  1.0000 -0.5396933842
O   O5        1.0  0.17831  0.45271  0.44231  1.0000 -0.5663512226
O   O6        1.0  0.61566  0.81302  0.70463  1.0000 -0.5396933842
O   O7        1.0  0.50426  0.98224  0.27177  1.0000 -0.5499226626
O   O8        1.0  0.32988  0.27976  0.95473  1.0000 -0.5294439222
O   O9        1.0  0.90151  0.73103  0.70844  1.0000 -0.5396933842
O   O10       1.0  0.90676  0.79192  0.75751  1.0000 -0.5294439222
O   O11       1.0  0.39553  0.36799  0.98953  1.0000 -0.5589514102
O   O12       1.0  0.54382  0.85594  0.59791  1.0000 -0.5589514102
O   O13       1.0  0.35937  0.04029  0.13174  1.0000 -0.5499226626
O   O14       1.0  0.45879  0.08495  0.04578  1.0000 -0.5396933842
O   O15       1.0  0.28660  0.12944  0.04963  1.0000 -0.5223932441
O   O16       1.0  0.05637  0.55191  0.30127  1.0000 -0.5396933842
O   O17       1.0  0.45271  0.17831  0.05769  1.0000 -0.5663512226
O   O18       1.0  0.81302  0.61566  0.79537  1.0000 -0.5396933842
O   O19       1.0  0.98224  0.50426  0.22823  1.0000 -0.5499226626
O   O20       1.0  0.27976  0.32988  0.54527  1.0000 -0.5294439222
O   O21       1.0  0.73103  0.90151  0.79156  1.0000 -0.5396933842
O   O22       1.0  0.79192  0.90676  0.74249  1.0000 -0.5294439222
O   O23       1.0  0.36799  0.39553  0.51047  1.0000 -0.5589514102
O   O24       1.0  0.85594  0.54382  0.90209  1.0000 -0.5589514102
O   O25       1.0  0.95971  0.64063  0.63174  1.0000 -0.5499226626
O   O26       1.0  0.91505  0.54121  0.54578  1.0000 -0.5396933842
O   O27       1.0  0.87056  0.71340  0.54963  1.0000 -0.5223932441
O   O28       1.0  0.44809  0.94363  0.80127  1.0000 -0.5396933842
O   O29       1.0  0.82169  0.54729  0.55769  1.0000 -0.5663512226
O   O30       1.0  0.38434  0.18698  0.29537  1.0000 -0.5396933842
O   O31       1.0  0.49574  0.01776  0.72823  1.0000 -0.5499226626
O   O32       1.0  0.67012  0.72024  0.04527  1.0000 -0.5294439222
O   O33       1.0  0.09849  0.26897  0.29156  1.0000 -0.5396933842
O   O34       1.0  0.09324  0.20808  0.24249  1.0000 -0.5294439222
O   O35       1.0  0.60447  0.63201  0.01047  1.0000 -0.5589514102
O   O36       1.0  0.45618  0.14406  0.40209  1.0000 -0.5589514102
O   O37       1.0  0.64063  0.95971  0.86826  1.0000 -0.5499226626
O   O38       1.0  0.54121  0.91505  0.95422  1.0000 -0.5396933842
O   O39       1.0  0.71340  0.87056  0.95037  1.0000 -0.5223932441
O   O40       1.0  0.94363  0.44809  0.69873  1.0000 -0.5396933842
O   O41       1.0  0.54729  0.82169  0.94231  1.0000 -0.5663512226
O   O42       1.0  0.18698  0.38434  0.20463  1.0000 -0.5396933842
O   O43       1.0  0.01776  0.49574  0.77177  1.0000 -0.5499226626
O   O44       1.0  0.72024  0.67012  0.45473  1.0000 -0.5294439222
O   O45       1.0  0.26897  0.09849  0.20844  1.0000 -0.5396933842
O   O46       1.0  0.20808  0.09324  0.25751  1.0000 -0.5294439222
O   O47       1.0  0.63201  0.60447  0.48953  1.0000 -0.5589514102
O   O48       1.0  0.14406  0.45618  0.09791  1.0000 -0.5589514102
