# DDEC6 charges by PACMAN v1.1 (https://github.com/mtap-research/PACMAN-charge/)
data_2020[Fe][nan]3[ASR]4
_chemical_formula_sum              "Fe8 H32 C64 O40"
_cell_length_a       15.1225
_cell_length_b       15.1225
_cell_length_c       12.0913
_cell_angle_alpha    90
_cell_angle_beta     90
_cell_angle_gamma    90

_symmetry_space_group_name_H-M    "P 1"
_symmetry_Int_Tables_number       1

loop_
  _symmetry_equiv_pos_as_xyz
  'x, y, z'

loop_
  _atom_site_type_symbol
  _atom_site_label
  _atom_site_symmetry_multiplicity
  _atom_site_fract_x
  _atom_site_fract_y
  _atom_site_fract_z
  _atom_site_occupancy
  _atom_site_charge
Fe  Fe1       1.0  0.05885  0.94115  0.12500  1.0000 0.9895741362
Fe  Fe2       1.0  0.94115  0.05885  0.62500  1.0000 0.9895741362
Fe  Fe3       1.0  0.94115  0.94115  0.37500  1.0000 0.9895741362
Fe  Fe4       1.0  0.05885  0.05885  0.87500  1.0000 0.9895741362
Fe  Fe5       1.0  0.56022  0.56022  0.37500  1.0000 1.2697852272
Fe  Fe6       1.0  0.43978  0.43978  0.87500  1.0000 1.2697852272
Fe  Fe7       1.0  0.56022  0.43978  0.62500  1.0000 1.2697852272
Fe  Fe8       1.0  0.43978  0.56022  0.12500  1.0000 1.2697852272
H   H1        1.0  0.25180  0.75100  0.25570  1.0000 0.1411901751
H   H2        1.0  0.13960  0.82500  0.54680  1.0000 0.1411901751
H   H3        1.0  0.36410  0.67720  0.54680  1.0000 0.1239753906
H   H4        1.0  0.74820  0.24900  0.75570  1.0000 0.1411901751
H   H5        1.0  0.86040  0.17500  0.04680  1.0000 0.1411901751
H   H6        1.0  0.63590  0.32280  0.04680  1.0000 0.1239753906
H   H7        1.0  0.75100  0.74820  0.50570  1.0000 0.1411901751
H   H8        1.0  0.82500  0.86040  0.79680  1.0000 0.1411901751
H   H9        1.0  0.67720  0.63590  0.79680  1.0000 0.1239753906
H   H10       1.0  0.24900  0.25180  0.00570  1.0000 0.1411901751
H   H11       1.0  0.17500  0.13960  0.29680  1.0000 0.1411901751
H   H12       1.0  0.32280  0.36410  0.29680  1.0000 0.1239753906
H   H13       1.0  0.25180  0.24900  0.74430  1.0000 0.1411901751
H   H14       1.0  0.13960  0.17500  0.45320  1.0000 0.1411901751
H   H15       1.0  0.36410  0.32280  0.45320  1.0000 0.1239753906
H   H16       1.0  0.74820  0.75100  0.24430  1.0000 0.1411901751
H   H17       1.0  0.86040  0.82500  0.95320  1.0000 0.1411901751
H   H18       1.0  0.63590  0.67720  0.95320  1.0000 0.1239753906
H   H19       1.0  0.75100  0.25180  0.49430  1.0000 0.1411901751
H   H20       1.0  0.82500  0.13960  0.20320  1.0000 0.1411901751
H   H21       1.0  0.67720  0.36410  0.20320  1.0000 0.1239753906
H   H22       1.0  0.24900  0.74820  0.99430  1.0000 0.1452288795
H   H23       1.0  0.17500  0.86040  0.70320  1.0000 0.1411901751
H   H24       1.0  0.32280  0.63590  0.70320  1.0000 0.1239753906
H   H25       1.0  0.00000  0.95200  0.25000  1.0000 0.2922074217
H   H26       1.0  0.00000  0.04800  0.75000  1.0000 0.2922074217
H   H27       1.0  0.95200  0.00000  0.50000  1.0000 0.2922074217
H   H28       1.0  0.04800  0.00000  0.00000  1.0000 0.2922074217
H   H29       1.0  0.50000  0.44900  0.25000  1.0000 0.3957235534
H   H30       1.0  0.50000  0.55100  0.75000  1.0000 0.3957235534
H   H31       1.0  0.44900  0.50000  0.50000  1.0000 0.3957235534
H   H32       1.0  0.55100  0.50000  0.00000  1.0000 0.3957235534
C   C1        1.0  0.11330  0.84220  0.33010  1.0000 0.568299802
C   C2        1.0  0.18400  0.79570  0.39120  1.0000 -0.0412239376
C   C3        1.0  0.25180  0.75100  0.33260  1.0000 -0.0937286057
C   C4        1.0  0.18400  0.79570  0.50840  1.0000 -0.1205710899
C   C5        1.0  0.31960  0.70640  0.39120  1.0000 -0.048429681
C   C6        1.0  0.25180  0.75110  0.56696  1.0000 0.0586474221
C   C7        1.0  0.31960  0.70650  0.50840  1.0000 -0.1350984257
C   C8        1.0  0.39020  0.65990  0.33010  1.0000 0.604846539
C   C9        1.0  0.88670  0.15780  0.83010  1.0000 0.568299802
C   C10       1.0  0.81600  0.20430  0.89120  1.0000 -0.0412239376
C   C11       1.0  0.74820  0.24900  0.83260  1.0000 -0.0937286057
C   C12       1.0  0.81600  0.20430  0.00840  1.0000 -0.1205710899
C   C13       1.0  0.68040  0.29360  0.89120  1.0000 -0.048429681
C   C14       1.0  0.74820  0.24890  0.06696  1.0000 0.0586474221
C   C15       1.0  0.68040  0.29350  0.00840  1.0000 -0.1350984257
C   C16       1.0  0.60980  0.34010  0.83010  1.0000 0.604846539
C   C17       1.0  0.84220  0.88670  0.58010  1.0000 0.568299802
C   C18       1.0  0.79570  0.81600  0.64120  1.0000 -0.0412239376
C   C19       1.0  0.75100  0.74820  0.58260  1.0000 -0.0937286057
C   C20       1.0  0.79570  0.81600  0.75840  1.0000 -0.1205710899
C   C21       1.0  0.70640  0.68040  0.64120  1.0000 -0.048429681
C   C22       1.0  0.75110  0.74820  0.81696  1.0000 0.0586474221
C   C23       1.0  0.70650  0.68040  0.75840  1.0000 -0.1350984257
C   C24       1.0  0.65990  0.60980  0.58010  1.0000 0.604846539
C   C25       1.0  0.15780  0.11330  0.08010  1.0000 0.568299802
C   C26       1.0  0.20430  0.18400  0.14120  1.0000 -0.0412239376
C   C27       1.0  0.24900  0.25180  0.08260  1.0000 -0.0937286057
C   C28       1.0  0.20430  0.18400  0.25840  1.0000 -0.1205710899
C   C29       1.0  0.29360  0.31960  0.14120  1.0000 -0.048429681
C   C30       1.0  0.24890  0.25180  0.31696  1.0000 0.0586474221
C   C31       1.0  0.29350  0.31960  0.25840  1.0000 -0.1350984257
C   C32       1.0  0.34010  0.39020  0.08010  1.0000 0.604846539
C   C33       1.0  0.11330  0.15780  0.66990  1.0000 0.568299802
C   C34       1.0  0.18400  0.20430  0.60880  1.0000 -0.0412239376
C   C35       1.0  0.25180  0.24900  0.66740  1.0000 -0.0937286057
C   C36       1.0  0.18400  0.20430  0.49160  1.0000 -0.1205710899
C   C37       1.0  0.31960  0.29360  0.60880  1.0000 -0.048429681
C   C38       1.0  0.25180  0.24890  0.43304  1.0000 0.0586474221
C   C39       1.0  0.31960  0.29350  0.49160  1.0000 -0.1350984257
C   C40       1.0  0.39020  0.34010  0.66990  1.0000 0.604846539
C   C41       1.0  0.88670  0.84220  0.16990  1.0000 0.568299802
C   C42       1.0  0.81600  0.79570  0.10880  1.0000 -0.0412239376
C   C43       1.0  0.74820  0.75100  0.16740  1.0000 -0.0937286057
C   C44       1.0  0.81600  0.79570  0.99160  1.0000 -0.1205710899
C   C45       1.0  0.68040  0.70640  0.10880  1.0000 -0.048429681
C   C46       1.0  0.74820  0.75110  0.93304  1.0000 0.0586474221
C   C47       1.0  0.68040  0.70650  0.99160  1.0000 -0.1350984257
C   C48       1.0  0.60980  0.65990  0.16990  1.0000 0.604846539
C   C49       1.0  0.84220  0.11330  0.41990  1.0000 0.568299802
C   C50       1.0  0.79570  0.18400  0.35880  1.0000 -0.0412239376
C   C51       1.0  0.75100  0.25180  0.41740  1.0000 -0.0937286057
C   C52       1.0  0.79570  0.18400  0.24160  1.0000 -0.1205710899
C   C53       1.0  0.70640  0.31960  0.35880  1.0000 -0.048429681
C   C54       1.0  0.75110  0.25180  0.18304  1.0000 0.0586474221
C   C55       1.0  0.70650  0.31960  0.24160  1.0000 -0.1350984257
C   C56       1.0  0.65990  0.39020  0.41990  1.0000 0.604846539
C   C57       1.0  0.15780  0.88670  0.91990  1.0000 0.568299802
C   C58       1.0  0.20430  0.81600  0.85880  1.0000 -0.0412239376
C   C59       1.0  0.24900  0.74820  0.91740  1.0000 -0.0937286057
C   C60       1.0  0.20430  0.81600  0.74160  1.0000 -0.1205710899
C   C61       1.0  0.29360  0.68040  0.85880  1.0000 -0.048429681
C   C62       1.0  0.24890  0.74820  0.68304  1.0000 0.0586474221
C   C63       1.0  0.29350  0.68040  0.74160  1.0000 -0.1350984257
C   C64       1.0  0.34010  0.60980  0.91990  1.0000 0.604846539
O   O1        1.0  0.13110  0.86870  0.23120  1.0000 -0.4740133863
O   O2        1.0  0.03870  0.85310  0.37990  1.0000 -0.4784873966
O   O3        1.0  0.46430  0.64800  0.38050  1.0000 -0.5367182326
O   O4        1.0  0.37290  0.63470  0.23050  1.0000 -0.5100884419
O   O5        1.0  0.86890  0.13130  0.73120  1.0000 -0.4740133863
O   O6        1.0  0.96130  0.14690  0.87990  1.0000 -0.4784873966
O   O7        1.0  0.53570  0.35200  0.88050  1.0000 -0.5367182326
O   O8        1.0  0.62710  0.36530  0.73050  1.0000 -0.5100884419
O   O9        1.0  0.86870  0.86890  0.48120  1.0000 -0.4740133863
O   O10       1.0  0.85310  0.96130  0.62990  1.0000 -0.4784873966
O   O11       1.0  0.64800  0.53570  0.63050  1.0000 -0.5367182326
O   O12       1.0  0.63470  0.62710  0.48050  1.0000 -0.5100884419
O   O13       1.0  0.13130  0.13110  0.98120  1.0000 -0.4740133863
O   O14       1.0  0.14690  0.03870  0.12990  1.0000 -0.4784873966
O   O15       1.0  0.35200  0.46430  0.13050  1.0000 -0.5367182326
O   O16       1.0  0.36530  0.37290  0.98050  1.0000 -0.5100884419
O   O17       1.0  0.13110  0.13130  0.76880  1.0000 -0.4740133863
O   O18       1.0  0.03870  0.14690  0.62010  1.0000 -0.4784873966
O   O19       1.0  0.46430  0.35200  0.61950  1.0000 -0.5367182326
O   O20       1.0  0.37290  0.36530  0.76950  1.0000 -0.5100884419
O   O21       1.0  0.86890  0.86870  0.26880  1.0000 -0.4740133863
O   O22       1.0  0.96130  0.85310  0.12010  1.0000 -0.4784873966
O   O23       1.0  0.53570  0.64800  0.11950  1.0000 -0.5367182326
O   O24       1.0  0.62710  0.63470  0.26950  1.0000 -0.5100884419
O   O25       1.0  0.86870  0.13110  0.51880  1.0000 -0.4740133863
O   O26       1.0  0.85310  0.03870  0.37010  1.0000 -0.4784873966
O   O27       1.0  0.64800  0.46430  0.36950  1.0000 -0.5367182326
O   O28       1.0  0.63470  0.37290  0.51950  1.0000 -0.5100884419
O   O29       1.0  0.13130  0.86890  0.01880  1.0000 -0.4740133863
O   O30       1.0  0.14690  0.96130  0.87010  1.0000 -0.4784873966
O   O31       1.0  0.35200  0.53570  0.86950  1.0000 -0.5367182326
O   O32       1.0  0.36530  0.62710  0.01950  1.0000 -0.5100884419
O   O33       1.0  0.00000  0.00500  0.25000  1.0000 -0.568506686
O   O34       1.0  0.00000  0.99500  0.75000  1.0000 -0.568506686
O   O35       1.0  0.00500  0.00000  0.50000  1.0000 -0.568506686
O   O36       1.0  0.99500  0.00000  0.00000  1.0000 -0.568506686
O   O37       1.0  0.50000  0.50240  0.25000  1.0000 -0.7793739419
O   O38       1.0  0.50000  0.49760  0.75000  1.0000 -0.7793739419
O   O39       1.0  0.50240  0.50000  0.50000  1.0000 -0.7793739419
O   O40       1.0  0.49760  0.50000  0.00000  1.0000 -0.7793739419
