# DDEC6 charges by PACMAN v1.1 (https://github.com/mtap-research/PACMAN-charge/)
data_2020[Gd][nan]3[ASR]4
_chemical_formula_sum              "Gd4 H88 C132 O32"
_cell_length_a       17.5528
_cell_length_b       17.5528
_cell_length_c       28.2902
_cell_angle_alpha    72.1922
_cell_angle_beta     107.808
_cell_angle_gamma    147.752

_symmetry_space_group_name_H-M    "P 1"
_symmetry_Int_Tables_number       1

loop_
  _symmetry_equiv_pos_as_xyz
  'x, y, z'

loop_
  _atom_site_type_symbol
  _atom_site_label
  _atom_site_symmetry_multiplicity
  _atom_site_fract_x
  _atom_site_fract_y
  _atom_site_fract_z
  _atom_site_occupancy
  _atom_site_charge
Gd  Gd1       1.0  0.66709  0.56445  0.50772  1.0000 2.0267793856
Gd  Gd2       1.0  0.56445  0.66709  0.99228  1.0000 2.0267793856
Gd  Gd3       1.0  0.33291  0.43555  0.49228  1.0000 2.0267793856
Gd  Gd4       1.0  0.43555  0.33291  0.00772  1.0000 2.0267793856
H   H1        1.0  0.44056  0.25642  0.44900  1.0000 0.128605204
H   H2        1.0  0.37236  0.10730  0.40809  1.0000 0.1120125084
H   H3        1.0  0.01999  0.94257  0.34493  1.0000 0.1182371575
H   H4        1.0  0.08839  0.09213  0.38552  1.0000 0.1182371575
H   H5        1.0  0.23354  0.88856  0.39888  1.0000 0.1120125084
H   H6        1.0  0.01739  0.65579  0.28318  1.0000 0.1120125084
H   H7        1.0  0.03936  0.90094  0.28518  1.0000 0.1120125084
H   H8        1.0  0.36935  0.89219  0.39791  1.0000 0.1120125084
H   H9        1.0  0.42167  0.80187  0.43822  1.0000 0.128605204
H   H10       1.0  0.04397  0.42561  0.38419  1.0000 0.1182371575
H   H11       1.0  0.98505  0.50997  0.34706  1.0000 0.1182371575
H   H12       1.0  0.80782  0.52706  0.23644  1.0000 0.1120125084
H   H13       1.0  0.66985  0.45393  0.16067  1.0000 0.128605204
H   H14       1.0  0.88432  0.83844  0.12549  1.0000 0.1182371575
H   H15       1.0  0.02333  0.91271  0.20043  1.0000 0.1120125084
H   H16       1.0  0.63312  0.34472  0.42973  1.0000 0.1664279199
H   H17       1.0  0.77756  0.45746  0.40770  1.0000 0.1664279199
H   H18       1.0  0.77938  0.46388  0.46216  1.0000 0.1793902203
H   H19       1.0  0.57642  0.54171  0.36349  1.0000 0.1182371575
H   H20       1.0  0.49822  0.40758  0.34758  1.0000 0.097118663
H   H21       1.0  0.33600  0.37600  0.26600  1.0000 0.1182371575
H   H22       1.0  0.77874  0.70880  0.28443  1.0000 0.1120125084
H   H23       1.0  0.25642  0.44056  0.05100  1.0000 0.128605204
H   H24       1.0  0.10730  0.37236  0.09191  1.0000 0.1120125084
H   H25       1.0  0.94257  0.01999  0.15507  1.0000 0.1182371575
H   H26       1.0  0.09213  0.08839  0.11448  1.0000 0.1182371575
H   H27       1.0  0.88856  0.23354  0.10112  1.0000 0.1120125084
H   H28       1.0  0.65579  0.01739  0.21682  1.0000 0.1120125084
H   H29       1.0  0.90094  0.03936  0.21482  1.0000 0.1120125084
H   H30       1.0  0.89219  0.36935  0.10209  1.0000 0.1120125084
H   H31       1.0  0.80187  0.42167  0.06178  1.0000 0.128605204
H   H32       1.0  0.42561  0.04397  0.11581  1.0000 0.1182371575
H   H33       1.0  0.50997  0.98505  0.15294  1.0000 0.1182371575
H   H34       1.0  0.52706  0.80782  0.26356  1.0000 0.1120125084
H   H35       1.0  0.45393  0.66985  0.33933  1.0000 0.128605204
H   H36       1.0  0.83844  0.88432  0.37451  1.0000 0.1182371575
H   H37       1.0  0.91271  0.02333  0.29957  1.0000 0.1120125084
H   H38       1.0  0.34472  0.63312  0.07027  1.0000 0.1664279199
H   H39       1.0  0.45746  0.77756  0.09230  1.0000 0.1664279199
H   H40       1.0  0.46388  0.77938  0.03784  1.0000 0.1793902203
H   H41       1.0  0.54171  0.57642  0.13651  1.0000 0.1182371575
H   H42       1.0  0.40758  0.49822  0.15242  1.0000 0.097118663
H   H43       1.0  0.37600  0.33600  0.23400  1.0000 0.1182371575
H   H44       1.0  0.70880  0.77874  0.21557  1.0000 0.1120125084
H   H45       1.0  0.55944  0.74358  0.55100  1.0000 0.128605204
H   H46       1.0  0.62764  0.89270  0.59191  1.0000 0.1120125084
H   H47       1.0  0.98001  0.05743  0.65507  1.0000 0.1182371575
H   H48       1.0  0.91161  0.90787  0.61448  1.0000 0.1182371575
H   H49       1.0  0.76646  0.11144  0.60112  1.0000 0.1120125084
H   H50       1.0  0.98261  0.34421  0.71682  1.0000 0.1120125084
H   H51       1.0  0.96064  0.09906  0.71482  1.0000 0.1120125084
H   H52       1.0  0.63065  0.10781  0.60209  1.0000 0.1120125084
H   H53       1.0  0.57833  0.19813  0.56178  1.0000 0.128605204
H   H54       1.0  0.95603  0.57439  0.61581  1.0000 0.1182371575
H   H55       1.0  0.01495  0.49003  0.65294  1.0000 0.1182371575
H   H56       1.0  0.19218  0.47294  0.76356  1.0000 0.1120125084
H   H57       1.0  0.33015  0.54607  0.83933  1.0000 0.128605204
H   H58       1.0  0.11568  0.16156  0.87451  1.0000 0.1182371575
H   H59       1.0  0.97667  0.08729  0.79957  1.0000 0.1120125084
H   H60       1.0  0.36688  0.65528  0.57027  1.0000 0.1664279199
H   H61       1.0  0.22244  0.54254  0.59230  1.0000 0.1664279199
H   H62       1.0  0.22062  0.53612  0.53784  1.0000 0.1793902203
H   H63       1.0  0.42357  0.45828  0.63651  1.0000 0.1182371575
H   H64       1.0  0.50178  0.59242  0.65242  1.0000 0.097118663
H   H65       1.0  0.66400  0.62400  0.73400  1.0000 0.1182371575
H   H66       1.0  0.22126  0.29120  0.71557  1.0000 0.1120125084
H   H67       1.0  0.74358  0.55944  0.94900  1.0000 0.128605204
H   H68       1.0  0.89270  0.62764  0.90809  1.0000 0.1120125084
H   H69       1.0  0.05743  0.98001  0.84493  1.0000 0.1182371575
H   H70       1.0  0.90787  0.91161  0.88552  1.0000 0.1182371575
H   H71       1.0  0.11144  0.76646  0.89888  1.0000 0.1120125084
H   H72       1.0  0.34421  0.98261  0.78318  1.0000 0.1120125084
H   H73       1.0  0.09906  0.96064  0.78518  1.0000 0.1120125084
H   H74       1.0  0.10781  0.63065  0.89791  1.0000 0.1120125084
H   H75       1.0  0.19813  0.57833  0.93822  1.0000 0.128605204
H   H76       1.0  0.57439  0.95603  0.88419  1.0000 0.1182371575
H   H77       1.0  0.49003  0.01495  0.84706  1.0000 0.1182371575
H   H78       1.0  0.47294  0.19218  0.73644  1.0000 0.1120125084
H   H79       1.0  0.54607  0.33015  0.66067  1.0000 0.128605204
H   H80       1.0  0.16156  0.11568  0.62549  1.0000 0.1182371575
H   H81       1.0  0.08729  0.97667  0.70043  1.0000 0.1120125084
H   H82       1.0  0.65528  0.36688  0.92973  1.0000 0.1664279199
H   H83       1.0  0.54254  0.22244  0.90770  1.0000 0.1664279199
H   H84       1.0  0.53612  0.22062  0.96216  1.0000 0.1793902203
H   H85       1.0  0.45828  0.42357  0.86349  1.0000 0.1182371575
H   H86       1.0  0.59242  0.50178  0.84758  1.0000 0.097118663
H   H87       1.0  0.62400  0.66400  0.76600  1.0000 0.1182371575
H   H88       1.0  0.29120  0.22126  0.78443  1.0000 0.1120125084
C   C1        1.0  0.31225  0.28655  0.44658  1.0000 0.6228098593
C   C2        1.0  0.27216  0.19064  0.42118  1.0000 -0.0181838858
C   C3        1.0  0.35604  0.19376  0.42799  1.0000 -0.0958590114
C   C4        1.0  0.31448  0.10352  0.40360  1.0000 -0.1531417857
C   C5        1.0  0.18754  0.00746  0.37251  1.0000 0.0714269886
C   C6        1.0  0.10468  0.00532  0.36590  1.0000 -0.1531417857
C   C7        1.0  0.14603  0.09557  0.39010  1.0000 -0.0958590114
C   C8        1.0  0.14319  0.91101  0.34630  1.0000 0.0895004257
C   C9        1.0  0.17877  0.85923  0.36827  1.0000 -0.2080198468
C   C10       1.0  0.13314  0.76486  0.34475  1.0000 0.0801786522
C   C11       1.0  0.05052  0.72108  0.29860  1.0000 -0.2023673315
C   C12       1.0  0.01743  0.77397  0.27564  1.0000 0.0895004257
C   C13       1.0  0.06304  0.86696  0.30011  1.0000 -0.2023673315
C   C14       1.0  0.16978  0.70962  0.36841  1.0000 0.0714269886
C   C15       1.0  0.30207  0.79733  0.39560  1.0000 -0.1531417857
C   C16       1.0  0.33392  0.74308  0.41950  1.0000 -0.0903803938
C   C17       1.0  0.23805  0.60475  0.41577  1.0000 -0.0289608652
C   C18       1.0  0.10876  0.51884  0.38780  1.0000 -0.0903803938
C   C19       1.0  0.07408  0.57032  0.36500  1.0000 -0.1531417857
C   C20       1.0  0.27216  0.54664  0.44202  1.0000 0.5564965031
C   C21       1.0  0.92920  0.72660  0.22672  1.0000 0.0714269886
C   C22       1.0  0.82379  0.59041  0.21410  1.0000 -0.1595997938
C   C23       1.0  0.74087  0.54633  0.16850  1.0000 -0.0903803938
C   C24       1.0  0.76384  0.63956  0.13478  1.0000 -0.0289608652
C   C25       1.0  0.86898  0.77542  0.14767  1.0000 -0.0903803938
C   C26       1.0  0.95210  0.82010  0.19280  1.0000 -0.1531417857
C   C27       1.0  0.67282  0.59238  0.08582  1.0000 0.6342149696
C   C28       1.0  0.73160  0.44240  0.42900  1.0000 -0.5623039582
C   C29       1.0  0.74120  0.54280  0.40890  1.0000 0.6112400613
C   C30       1.0  0.58090  0.51110  0.34250  1.0000 -0.0903803938
C   C31       1.0  0.56690  0.54910  0.29220  1.0000 0.0343669656
C   C32       1.0  0.43680  0.45520  0.26790  1.0000 -0.1595997938
C   C33       1.0  0.69170  0.66230  0.27130  1.0000 -0.1531417857
C   C34       1.0  0.28655  0.31225  0.05342  1.0000 0.6228098593
C   C35       1.0  0.19064  0.27216  0.07882  1.0000 -0.0181838858
C   C36       1.0  0.19376  0.35604  0.07201  1.0000 -0.0958590114
C   C37       1.0  0.10352  0.31448  0.09640  1.0000 -0.1531417857
C   C38       1.0  0.00746  0.18754  0.12749  1.0000 0.0714269886
C   C39       1.0  0.00532  0.10468  0.13410  1.0000 -0.1531417857
C   C40       1.0  0.09557  0.14603  0.10990  1.0000 -0.0958590114
C   C41       1.0  0.91101  0.14319  0.15370  1.0000 0.0895004257
C   C42       1.0  0.85923  0.17877  0.13173  1.0000 -0.2080198468
C   C43       1.0  0.76486  0.13314  0.15525  1.0000 0.0801786522
C   C44       1.0  0.72108  0.05052  0.20140  1.0000 -0.2023673315
C   C45       1.0  0.77397  0.01743  0.22436  1.0000 0.0895004257
C   C46       1.0  0.86696  0.06304  0.19989  1.0000 -0.2023673315
C   C47       1.0  0.70962  0.16978  0.13159  1.0000 0.0714269886
C   C48       1.0  0.79733  0.30207  0.10440  1.0000 -0.1531417857
C   C49       1.0  0.74308  0.33392  0.08050  1.0000 -0.0903803938
C   C50       1.0  0.60475  0.23805  0.08423  1.0000 -0.0289608652
C   C51       1.0  0.51884  0.10876  0.11220  1.0000 -0.0903803938
C   C52       1.0  0.57032  0.07408  0.13500  1.0000 -0.1531417857
C   C53       1.0  0.54664  0.27216  0.05798  1.0000 0.5564965031
C   C54       1.0  0.72660  0.92920  0.27328  1.0000 0.0714269886
C   C55       1.0  0.59041  0.82379  0.28590  1.0000 -0.1595997938
C   C56       1.0  0.54633  0.74087  0.33150  1.0000 -0.0903803938
C   C57       1.0  0.63956  0.76384  0.36522  1.0000 -0.0289608652
C   C58       1.0  0.77542  0.86898  0.35233  1.0000 -0.0903803938
C   C59       1.0  0.82010  0.95210  0.30720  1.0000 -0.1531417857
C   C60       1.0  0.59238  0.67282  0.41418  1.0000 0.6342149696
C   C61       1.0  0.44240  0.73160  0.07100  1.0000 -0.5623039582
C   C62       1.0  0.54280  0.74120  0.09110  1.0000 0.6112400613
C   C63       1.0  0.51110  0.58090  0.15750  1.0000 -0.0903803938
C   C64       1.0  0.54910  0.56690  0.20780  1.0000 0.0343669656
C   C65       1.0  0.45520  0.43680  0.23210  1.0000 -0.1595997938
C   C66       1.0  0.66230  0.69170  0.22870  1.0000 -0.1531417857
C   C67       1.0  0.68775  0.71345  0.55342  1.0000 0.6228098593
C   C68       1.0  0.72784  0.80936  0.57882  1.0000 -0.0181838858
C   C69       1.0  0.64396  0.80624  0.57201  1.0000 -0.0958590114
C   C70       1.0  0.68552  0.89648  0.59640  1.0000 -0.1531417857
C   C71       1.0  0.81246  0.99254  0.62749  1.0000 0.0714269886
C   C72       1.0  0.89532  0.99468  0.63410  1.0000 -0.1531417857
C   C73       1.0  0.85397  0.90443  0.60990  1.0000 -0.0958590114
C   C74       1.0  0.85681  0.08899  0.65370  1.0000 0.0895004257
C   C75       1.0  0.82123  0.14077  0.63173  1.0000 -0.2080198468
C   C76       1.0  0.86686  0.23514  0.65525  1.0000 0.0801786522
C   C77       1.0  0.94948  0.27892  0.70140  1.0000 -0.2023673315
C   C78       1.0  0.98257  0.22603  0.72436  1.0000 0.0895004257
C   C79       1.0  0.93696  0.13304  0.69989  1.0000 -0.2023673315
C   C80       1.0  0.83022  0.29038  0.63159  1.0000 0.0714269886
C   C81       1.0  0.69793  0.20267  0.60440  1.0000 -0.1531417857
C   C82       1.0  0.66608  0.25692  0.58050  1.0000 -0.0903803938
C   C83       1.0  0.76195  0.39525  0.58423  1.0000 -0.0289608652
C   C84       1.0  0.89124  0.48116  0.61220  1.0000 -0.0903803938
C   C85       1.0  0.92592  0.42968  0.63500  1.0000 -0.1531417857
C   C86       1.0  0.72784  0.45336  0.55798  1.0000 0.5564965031
C   C87       1.0  0.07080  0.27340  0.77328  1.0000 0.0714269886
C   C88       1.0  0.17621  0.40959  0.78590  1.0000 -0.1595997938
C   C89       1.0  0.25913  0.45367  0.83150  1.0000 -0.0903803938
C   C90       1.0  0.23616  0.36044  0.86522  1.0000 -0.0289608652
C   C91       1.0  0.13102  0.22458  0.85233  1.0000 -0.0903803938
C   C92       1.0  0.04790  0.17990  0.80720  1.0000 -0.1531417857
C   C93       1.0  0.32718  0.40762  0.91418  1.0000 0.6342149696
C   C94       1.0  0.26840  0.55760  0.57100  1.0000 -0.5623039582
C   C95       1.0  0.25880  0.45720  0.59110  1.0000 0.6112400613
C   C96       1.0  0.41910  0.48890  0.65750  1.0000 -0.0903803938
C   C97       1.0  0.43310  0.45090  0.70780  1.0000 0.0343669656
C   C98       1.0  0.56320  0.54480  0.73210  1.0000 -0.1595997938
C   C99       1.0  0.30830  0.33770  0.72870  1.0000 -0.1531417857
C   C100      1.0  0.71345  0.68775  0.94658  1.0000 0.6228098593
C   C101      1.0  0.80936  0.72784  0.92118  1.0000 -0.0181838858
C   C102      1.0  0.80624  0.64396  0.92799  1.0000 -0.0958590114
C   C103      1.0  0.89648  0.68552  0.90360  1.0000 -0.1531417857
C   C104      1.0  0.99254  0.81246  0.87251  1.0000 0.0714269886
C   C105      1.0  0.99468  0.89532  0.86590  1.0000 -0.1531417857
C   C106      1.0  0.90443  0.85397  0.89010  1.0000 -0.0958590114
C   C107      1.0  0.08899  0.85681  0.84630  1.0000 0.0895004257
C   C108      1.0  0.14077  0.82123  0.86827  1.0000 -0.2080198468
C   C109      1.0  0.23514  0.86686  0.84475  1.0000 0.0801786522
C   C110      1.0  0.27892  0.94948  0.79860  1.0000 -0.2023673315
C   C111      1.0  0.22603  0.98257  0.77564  1.0000 0.0895004257
C   C112      1.0  0.13304  0.93696  0.80011  1.0000 -0.2023673315
C   C113      1.0  0.29038  0.83022  0.86841  1.0000 0.0714269886
C   C114      1.0  0.20267  0.69793  0.89560  1.0000 -0.1531417857
C   C115      1.0  0.25692  0.66608  0.91950  1.0000 -0.0903803938
C   C116      1.0  0.39525  0.76195  0.91577  1.0000 -0.0289608652
C   C117      1.0  0.48116  0.89124  0.88780  1.0000 -0.0903803938
C   C118      1.0  0.42968  0.92592  0.86500  1.0000 -0.1531417857
C   C119      1.0  0.45336  0.72784  0.94202  1.0000 0.5564965031
C   C120      1.0  0.27340  0.07080  0.72672  1.0000 0.0714269886
C   C121      1.0  0.40959  0.17621  0.71410  1.0000 -0.1595997938
C   C122      1.0  0.45367  0.25913  0.66850  1.0000 -0.0903803938
C   C123      1.0  0.36044  0.23616  0.63478  1.0000 -0.0289608652
C   C124      1.0  0.22458  0.13102  0.64767  1.0000 -0.0903803938
C   C125      1.0  0.17990  0.04790  0.69280  1.0000 -0.1531417857
C   C126      1.0  0.40762  0.32718  0.58582  1.0000 0.6342149696
C   C127      1.0  0.55760  0.26840  0.92900  1.0000 -0.5623039582
C   C128      1.0  0.45720  0.25880  0.90890  1.0000 0.6112400613
C   C129      1.0  0.48890  0.41910  0.84250  1.0000 -0.0903803938
C   C130      1.0  0.45090  0.43310  0.79220  1.0000 0.0343669656
C   C131      1.0  0.54480  0.56320  0.76790  1.0000 -0.1595997938
C   C132      1.0  0.33770  0.30830  0.77130  1.0000 -0.1531417857
O   O1        1.0  0.43493  0.38427  0.47089  1.0000 -0.7189158478
O   O2        1.0  0.22565  0.26795  0.44289  1.0000 -0.588885171
O   O3        1.0  0.37720  0.61660  0.47472  1.0000 -0.6294731625
O   O4        1.0  0.19201  0.42759  0.43338  1.0000 -0.6066791245
O   O5        1.0  0.58354  0.47006  0.07585  1.0000 -0.6294731625
O   O6        1.0  0.69351  0.68049  0.05893  1.0000 -0.6704558857
O   O7        1.0  0.69960  0.55200  0.43180  1.0000 -0.5124277451
O   O8        1.0  0.70710  0.56690  0.36030  1.0000 -0.1891642415
O   O9        1.0  0.38427  0.43493  0.02911  1.0000 -0.7189158478
O   O10       1.0  0.26795  0.22565  0.05711  1.0000 -0.588885171
O   O11       1.0  0.61660  0.37720  0.02528  1.0000 -0.6294731625
O   O12       1.0  0.42759  0.19201  0.06662  1.0000 -0.6066791245
O   O13       1.0  0.47006  0.58354  0.42415  1.0000 -0.6294731625
O   O14       1.0  0.68049  0.69351  0.44107  1.0000 -0.6704558857
O   O15       1.0  0.55200  0.69960  0.06820  1.0000 -0.5124277451
O   O16       1.0  0.56690  0.70710  0.13970  1.0000 -0.1891642415
O   O17       1.0  0.56507  0.61573  0.52911  1.0000 -0.7189158478
O   O18       1.0  0.77435  0.73205  0.55711  1.0000 -0.588885171
O   O19       1.0  0.62280  0.38340  0.52528  1.0000 -0.6294731625
O   O20       1.0  0.80799  0.57241  0.56662  1.0000 -0.6066791245
O   O21       1.0  0.41646  0.52994  0.92415  1.0000 -0.6294731625
O   O22       1.0  0.30649  0.31951  0.94107  1.0000 -0.6704558857
O   O23       1.0  0.30040  0.44800  0.56820  1.0000 -0.5124277451
O   O24       1.0  0.29290  0.43310  0.63970  1.0000 -0.1891642415
O   O25       1.0  0.61573  0.56507  0.97089  1.0000 -0.7189158478
O   O26       1.0  0.73205  0.77435  0.94289  1.0000 -0.588885171
O   O27       1.0  0.38340  0.62280  0.97472  1.0000 -0.6294731625
O   O28       1.0  0.57241  0.80799  0.93338  1.0000 -0.6066791245
O   O29       1.0  0.52994  0.41646  0.57585  1.0000 -0.6294731625
O   O30       1.0  0.31951  0.30649  0.55893  1.0000 -0.6704558857
O   O31       1.0  0.44800  0.30040  0.93180  1.0000 -0.5124277451
O   O32       1.0  0.43310  0.29290  0.86030  1.0000 -0.1891642415
