# DDEC6 charges by PACMAN v1.1 (https://github.com/mtap-research/PACMAN-charge/)
data_2020[Nd][nan]3[ASR]4
_chemical_formula_sum              "Nd4 H40 C88 O32"
_cell_length_a       11.056
_cell_length_b       16.12
_cell_length_c       19.828
_cell_angle_alpha    74.22
_cell_angle_beta     74.16
_cell_angle_gamma    72.19

_symmetry_space_group_name_H-M    "P 1"
_symmetry_Int_Tables_number       1

loop_
  _symmetry_equiv_pos_as_xyz
  'x, y, z'

loop_
  _atom_site_type_symbol
  _atom_site_label
  _atom_site_symmetry_multiplicity
  _atom_site_fract_x
  _atom_site_fract_y
  _atom_site_fract_z
  _atom_site_occupancy
  _atom_site_charge
Nd  Nd1       1.0  0.60110  0.09892  0.26134  1.0000 2.0616862636
Nd  Nd2       1.0  0.94315  0.17745  0.72521  1.0000 2.0671450159
Nd  Nd3       1.0  0.39890  0.90108  0.73866  1.0000 2.0671450159
Nd  Nd4       1.0  0.05685  0.82255  0.27479  1.0000 2.0671450159
H   H1        1.0  0.16830  0.30300  0.23400  1.0000 0.128077266
H   H2        1.0  0.04760  0.41980  0.27040  1.0000 0.128077266
H   H3        1.0  0.63180  0.51030  0.23010  1.0000 0.128077266
H   H4        1.0  0.27680  0.16680  0.49350  1.0000 0.149083983
H   H5        1.0  0.49510  0.88530  0.24090  1.0000 0.149083983
H   H6        1.0  0.25800  0.36510  0.58470  1.0000 0.128077266
H   H7        1.0  0.51450  0.62800  0.26120  1.0000 0.1205908205
H   H8        1.0  0.93060  0.56460  0.27020  1.0000 0.1381856761
H   H9        1.0  0.84340  0.22990  0.25740  1.0000 0.1381856761
H   H10       1.0  0.18810  0.04830  0.24230  1.0000 0.1589061182
H   H11       1.0  0.84050  0.70460  0.23310  1.0000 0.1381856761
H   H12       1.0  0.51740  0.32650  0.40350  1.0000 0.128077266
H   H13       1.0  0.74810  0.36420  0.23050  1.0000 0.128077266
H   H14       1.0  0.47710  0.48600  0.39130  1.0000 0.128077266
H   H15       1.0  0.44340  0.40260  0.60460  1.0000 0.1205908205
H   H16       1.0  0.92790  0.50970  0.89830  1.0000 0.1205908205
H   H17       1.0  0.99200  0.37840  0.09420  1.0000 0.1205908205
H   H18       1.0  0.94560  0.36620  0.88550  1.0000 0.128077266
H   H19       1.0  0.80750  0.33390  0.09890  1.0000 0.1205908205
H   H20       1.0  0.76100  0.17510  0.98960  1.0000 0.149083983
H   H21       1.0  0.83170  0.69700  0.76600  1.0000 0.128077266
H   H22       1.0  0.95240  0.58020  0.72960  1.0000 0.128077266
H   H23       1.0  0.36820  0.48970  0.76990  1.0000 0.128077266
H   H24       1.0  0.72320  0.83320  0.50650  1.0000 0.149083983
H   H25       1.0  0.50490  0.11470  0.75910  1.0000 0.149083983
H   H26       1.0  0.74200  0.63490  0.41530  1.0000 0.128077266
H   H27       1.0  0.48550  0.37200  0.73880  1.0000 0.1205908205
H   H28       1.0  0.06940  0.43540  0.72980  1.0000 0.1381856761
H   H29       1.0  0.15660  0.77010  0.74260  1.0000 0.1381856761
H   H30       1.0  0.81190  0.95170  0.75770  1.0000 0.1589061182
H   H31       1.0  0.15950  0.29540  0.76690  1.0000 0.1381856761
H   H32       1.0  0.48260  0.67350  0.59650  1.0000 0.128077266
H   H33       1.0  0.25190  0.63580  0.76950  1.0000 0.128077266
H   H34       1.0  0.52290  0.51400  0.60870  1.0000 0.128077266
H   H35       1.0  0.55660  0.59740  0.39540  1.0000 0.1205908205
H   H36       1.0  0.07210  0.49030  0.10170  1.0000 0.1205908205
H   H37       1.0  0.00800  0.62160  0.90580  1.0000 0.1205908205
H   H38       1.0  0.05440  0.63380  0.11450  1.0000 0.128077266
H   H39       1.0  0.19250  0.66610  0.90110  1.0000 0.1205908205
H   H40       1.0  0.23900  0.82490  0.01040  1.0000 0.149083983
C   C1        1.0  0.67930  0.80690  0.23670  1.0000 -0.0374081124
C   C2        1.0  0.19780  0.17070  0.23860  1.0000 0.0209688499
C   C3        1.0  0.00420  0.12630  0.25150  1.0000 -0.0027066646
C   C4        1.0  0.12610  0.25910  0.23920  1.0000 -0.1391567204
C   C5        1.0  0.96390  0.43730  0.26190  1.0000 -0.1391567204
C   C6        1.0  0.99070  0.28100  0.24760  1.0000 0.0594474144
C   C7        1.0  0.46940  0.19040  0.37910  1.0000 0.5607073765
C   C8        1.0  0.71600  0.49260  0.23800  1.0000 -0.1391567204
C   C9        1.0  0.48360  0.76080  0.25220  1.0000 0.0037708074
C   C10       1.0  0.74240  0.87720  0.22960  1.0000 0.6490534406
C   C11       1.0  0.33820  0.78090  0.25980  1.0000 0.5693049472
C   C12       1.0  0.69220  0.65010  0.24690  1.0000 0.0594474144
C   C13       1.0  0.30680  0.21480  0.49340  1.0000 -0.0803563621
C   C14       1.0  0.54390  0.82670  0.24300  1.0000 -0.0803563621
C   C15       1.0  0.25200  0.26220  0.54820  1.0000 0.0115162122
C   C16       1.0  0.14520  0.23230  0.60700  1.0000 0.5693049472
C   C17       1.0  0.29620  0.33340  0.54820  1.0000 -0.1286785764
C   C18       1.0  0.55640  0.67250  0.25450  1.0000 -0.1505641703
C   C19       1.0  0.89330  0.52490  0.26170  1.0000 -0.1286785764
C   C20       1.0  0.76760  0.55460  0.24910  1.0000 0.0697888311
C   C21       1.0  0.93300  0.21550  0.25280  1.0000 -0.1391567204
C   C22       1.0  0.34460  0.14960  0.23350  1.0000 0.5693049472
C   C23       1.0  0.93950  0.05450  0.25730  1.0000 0.6682605307
C   C24       1.0  0.13880  0.10620  0.24380  1.0000 -0.0921289612
C   C25       1.0  0.91370  0.37570  0.24980  1.0000 0.0791468363
C   C26       1.0  0.75090  0.71820  0.23820  1.0000 -0.1286785764
C   C27       1.0  0.45030  0.31040  0.44000  1.0000 -0.1286785764
C   C28       1.0  0.40520  0.23910  0.43930  1.0000 0.0037708074
C   C29       1.0  0.39600  0.35850  0.49500  1.0000 0.0538650762
C   C30       1.0  0.78590  0.40420  0.23810  1.0000 -0.1235197354
C   C31       1.0  0.44960  0.42940  0.49770  1.0000 0.0791468363
C   C32       1.0  0.48610  0.49120  0.43520  1.0000 -0.1286785764
C   C33       1.0  0.46620  0.44190  0.56220  1.0000 -0.1235197354
C   C34       1.0  0.95580  0.50580  0.93950  1.0000 -0.1286785764
C   C35       1.0  0.99420  0.42740  0.05650  1.0000 -0.1286785764
C   C36       1.0  0.87780  0.23930  0.85630  1.0000 0.5693049472
C   C37       1.0  0.90320  0.33660  0.92820  1.0000 -0.1391567204
C   C38       1.0  0.82000  0.31750  0.05550  1.0000 -0.1391567204
C   C39       1.0  0.94610  0.43250  0.99580  1.0000 0.0697888311
C   C40       1.0  0.88900  0.36440  0.99200  1.0000 0.0697888311
C   C41       1.0  0.70220  0.20290  0.12390  1.0000 0.5693049472
C   C42       1.0  0.77210  0.24980  0.05440  1.0000 0.0115162122
C   C43       1.0  0.85690  0.26760  0.92700  1.0000 0.0115162122
C   C44       1.0  0.79140  0.22270  0.99020  1.0000 -0.0702201415
C   C45       1.0  0.32070  0.19310  0.76330  1.0000 -0.0374081124
C   C46       1.0  0.80220  0.82930  0.76140  1.0000 0.0209688499
C   C47       1.0  0.99580  0.87370  0.74850  1.0000 -0.0027066646
C   C48       1.0  0.87390  0.74090  0.76080  1.0000 -0.1391567204
C   C49       1.0  0.03610  0.56270  0.73810  1.0000 -0.1391567204
C   C50       1.0  0.00930  0.71900  0.75240  1.0000 0.0594474144
C   C51       1.0  0.53060  0.80960  0.62090  1.0000 0.5607073765
C   C52       1.0  0.28400  0.50740  0.76200  1.0000 -0.1391567204
C   C53       1.0  0.51640  0.23920  0.74780  1.0000 0.0037708074
C   C54       1.0  0.25760  0.12280  0.77040  1.0000 0.6490534406
C   C55       1.0  0.66180  0.21910  0.74020  1.0000 0.5693049472
C   C56       1.0  0.30780  0.34990  0.75310  1.0000 0.0594474144
C   C57       1.0  0.69320  0.78520  0.50660  1.0000 -0.0803563621
C   C58       1.0  0.45610  0.17330  0.75700  1.0000 -0.0803563621
C   C59       1.0  0.74800  0.73780  0.45180  1.0000 0.0115162122
C   C60       1.0  0.85480  0.76770  0.39300  1.0000 0.5693049472
C   C61       1.0  0.70380  0.66667  0.45180  1.0000 -0.1286785764
C   C62       1.0  0.44360  0.32750  0.74550  1.0000 -0.1505641703
C   C63       1.0  0.10670  0.47510  0.73830  1.0000 -0.1286785764
C   C64       1.0  0.23240  0.44540  0.75090  1.0000 0.0697888311
C   C65       1.0  0.06700  0.78450  0.74720  1.0000 -0.1391567204
C   C66       1.0  0.65540  0.85040  0.76650  1.0000 0.5693049472
C   C67       1.0  0.06050  0.94550  0.74270  1.0000 0.6682605307
C   C68       1.0  0.86120  0.89380  0.75620  1.0000 -0.0921289612
C   C69       1.0  0.08630  0.62430  0.75020  1.0000 0.0791468363
C   C70       1.0  0.24910  0.28180  0.76180  1.0000 -0.1286785764
C   C71       1.0  0.54970  0.68960  0.56000  1.0000 -0.1286785764
C   C72       1.0  0.59480  0.76090  0.56070  1.0000 0.0037708074
C   C73       1.0  0.60400  0.64150  0.50500  1.0000 0.0538650762
C   C74       1.0  0.21410  0.59580  0.76190  1.0000 -0.1235197354
C   C75       1.0  0.55040  0.57060  0.50230  1.0000 0.0791468363
C   C76       1.0  0.51390  0.50880  0.56480  1.0000 -0.1235197354
C   C77       1.0  0.53380  0.55810  0.43780  1.0000 -0.1235197354
C   C78       1.0  0.04420  0.49420  0.06050  1.0000 -0.1286785764
C   C79       1.0  0.00580  0.57260  0.94350  1.0000 -0.1286785764
C   C80       1.0  0.12220  0.76070  0.14370  1.0000 0.5693049472
C   C81       1.0  0.09680  0.66340  0.07180  1.0000 -0.1391567204
C   C82       1.0  0.18000  0.68250  0.94450  1.0000 -0.1391567204
C   C83       1.0  0.05390  0.56750  0.00420  1.0000 0.0791468363
C   C84       1.0  0.11100  0.63560  0.00800  1.0000 0.0697888311
C   C85       1.0  0.29780  0.79710  0.87610  1.0000 0.5693049472
C   C86       1.0  0.22790  0.75020  0.94560  1.0000 0.0115162122
C   C87       1.0  0.14310  0.73240  0.07300  1.0000 0.0115162122
C   C88       1.0  0.20860  0.77730  0.00980  1.0000 -0.0702201415
O   O1        1.0  0.40230  0.20890  0.21770  1.0000 -0.5467638511
O   O2        1.0  0.28410  0.71900  0.27560  1.0000 -0.5870032278
O   O3        1.0  0.67260  0.95620  0.22920  1.0000 -0.6380356241
O   O4        1.0  0.86540  0.85870  0.22130  1.0000 -0.6380356241
O   O5        1.0  0.41830  0.13270  0.37310  1.0000 -0.599124654
O   O6        1.0  0.82150  0.07450  0.26370  1.0000 -0.6202519972
O   O7        1.0  0.01080  0.97700  0.25550  1.0000 -0.6286848027
O   O8        1.0  0.56980  0.20600  0.33780  1.0000 -0.583588614
O   O9        1.0  0.40290  0.06560  0.24910  1.0000 -0.599124654
O   O10       1.0  0.14330  0.15040  0.62550  1.0000 -0.6202519972
O   O11       1.0  0.05810  0.29110  0.63800  1.0000 -0.6286848027
O   O12       1.0  0.27380  0.86170  0.25010  1.0000 -0.5870032278
O   O13       1.0  0.86320  0.16380  0.85860  1.0000 -0.5706841785
O   O14       1.0  0.67920  0.12870  0.12650  1.0000 -0.5870032278
O   O15       1.0  0.90960  0.29150  0.79850  1.0000 -0.599124654
O   O16       1.0  0.66740  0.23610  0.17830  1.0000 -0.583588614
O   O17       1.0  0.59770  0.79110  0.78230  1.0000 -0.5467638511
O   O18       1.0  0.71590  0.28100  0.72440  1.0000 -0.5870032278
O   O19       1.0  0.32740  0.04380  0.77080  1.0000 -0.6380356241
O   O20       1.0  0.13460  0.14130  0.77870  1.0000 -0.6380356241
O   O21       1.0  0.58170  0.86730  0.62690  1.0000 -0.599124654
O   O22       1.0  0.17850  0.92550  0.73630  1.0000 -0.6202519972
O   O23       1.0  0.98920  0.02300  0.74450  1.0000 -0.6286848027
O   O24       1.0  0.43020  0.79400  0.66220  1.0000 -0.583588614
O   O25       1.0  0.59710  0.93440  0.75090  1.0000 -0.599124654
O   O26       1.0  0.85670  0.84960  0.37450  1.0000 -0.6202519972
O   O27       1.0  0.94190  0.70890  0.36200  1.0000 -0.6286848027
O   O28       1.0  0.72620  0.13830  0.74990  1.0000 -0.5870032278
O   O29       1.0  0.13680  0.83620  0.14140  1.0000 -0.5706841785
O   O30       1.0  0.32080  0.87130  0.87350  1.0000 -0.5870032278
O   O31       1.0  0.09040  0.70850  0.20150  1.0000 -0.599124654
O   O32       1.0  0.33260  0.76390  0.82170  1.0000 -0.5870032278
