# DDEC6 charges by PACMAN v1.1 (https://github.com/mtap-research/PACMAN-charge/)
data_2020[CoU][hcb]2[ASR]1
_chemical_formula_sum              "U8 Co4 H176 C288 N24 O48"
_cell_length_a       14.959
_cell_length_b       22.553
_cell_length_c       26.402
_cell_angle_alpha    90
_cell_angle_beta     98.275
_cell_angle_gamma    90

_symmetry_space_group_name_H-M    "P 1"
_symmetry_Int_Tables_number       1

loop_
  _symmetry_equiv_pos_as_xyz
  'x, y, z'

loop_
  _atom_site_type_symbol
  _atom_site_label
  _atom_site_symmetry_multiplicity
  _atom_site_fract_x
  _atom_site_fract_y
  _atom_site_fract_z
  _atom_site_occupancy
  _atom_site_charge
U   U1        1.0  0.19075  0.10329  0.94603  1.0000 1.7719198973
U   U2        1.0  0.33282  0.74479  0.72871  1.0000 1.838709882
U   U3        1.0  0.80925  0.60329  0.55397  1.0000 1.7751068384
U   U4        1.0  0.66718  0.24479  0.77129  1.0000 1.838709882
U   U5        1.0  0.80925  0.89671  0.05397  1.0000 1.7751068384
U   U6        1.0  0.66718  0.25521  0.27129  1.0000 1.838709882
U   U7        1.0  0.19075  0.39671  0.44603  1.0000 1.7719198973
U   U8        1.0  0.33282  0.75521  0.22871  1.0000 1.8330565006
Co  Co1       1.0  0.76697  0.84529  0.30276  1.0000 0.4265348077
Co  Co2       1.0  0.23303  0.34529  0.19724  1.0000 0.4248000891
Co  Co3       1.0  0.23303  0.15471  0.69724  1.0000 0.4248000891
Co  Co4       1.0  0.76697  0.65471  0.80276  1.0000 0.4265348077
H   H1        1.0  0.95855  0.94428  0.92871  1.0000 0.1193151587
H   H2        1.0  0.07215  0.70449  0.59760  1.0000 0.128065475
H   H3        1.0  0.55760  0.83563  0.14428  1.0000 0.1390092067
H   H4        1.0  0.82355  0.89964  0.89699  1.0000 0.0999423549
H   H5        1.0  0.51365  0.94080  0.74719  1.0000 0.109003282
H   H6        1.0  0.86777  0.09962  0.86608  1.0000 0.1193151587
H   H7        1.0  0.97050  0.71992  0.52432  1.0000 0.109003282
H   H8        1.0  0.56132  0.82247  0.86208  1.0000 0.109003282
H   H9        1.0  0.21654  0.84558  0.56038  1.0000 0.109003282
H   H10       1.0  0.35410  0.30262  0.94465  1.0000 0.109003282
H   H11       1.0  0.19042  0.55199  0.75762  1.0000 0.1193151587
H   H12       1.0  0.73193  0.05452  0.83503  1.0000 0.109003282
H   H13       1.0  0.59368  0.02033  0.10901  1.0000 0.109003282
H   H14       1.0  0.61218  0.00170  0.19719  1.0000 0.128065475
H   H15       1.0  0.06384  0.81369  0.40037  1.0000 0.128065475
H   H16       1.0  0.49312  0.06691  0.04610  1.0000 0.1193151587
H   H17       1.0  0.55679  0.83948  0.32027  1.0000 0.109003282
H   H18       1.0  0.85784  0.78176  0.48017  1.0000 0.128065475
H   H19       1.0  0.32050  0.93116  0.04951  1.0000 0.1193151587
H   H20       1.0  0.68517  0.87751  0.89687  1.0000 0.109003282
H   H21       1.0  0.85360  0.86411  0.19908  1.0000 0.109003282
H   H22       1.0  0.63643  0.99607  0.78267  1.0000 0.109003282
H   H23       1.0  0.58280  0.73377  0.16640  1.0000 0.128065475
H   H24       1.0  0.41867  0.88563  0.11333  1.0000 0.109003282
H   H25       1.0  0.47470  0.80824  0.38154  1.0000 0.1390092067
H   H26       1.0  0.10271  0.30089  0.86863  1.0000 0.1193151587
H   H27       1.0  0.16536  0.46336  0.79505  1.0000 0.109003282
H   H28       1.0  0.36790  0.39988  0.92070  1.0000 0.109003282
H   H29       1.0  0.98807  0.84776  0.17092  1.0000 0.1390092067
H   H30       1.0  0.70524  0.76417  0.46972  1.0000 0.128065475
H   H31       1.0  0.11404  0.82526  0.23042  1.0000 0.1193151587
H   H32       1.0  0.63090  0.63820  0.19001  1.0000 0.109003282
H   H33       1.0  0.54872  0.76841  0.45735  1.0000 0.1193151587
H   H34       1.0  0.11883  0.85534  0.48416  1.0000 0.109003282
H   H35       1.0  0.80202  0.70559  0.30351  1.0000 0.109003282
H   H36       1.0  0.09500  0.81292  0.31596  1.0000 0.128065475
H   H37       1.0  0.74600  0.62586  0.25698  1.0000 0.1193151587
H   H38       1.0  0.11901  0.39834  0.84671  1.0000 0.109003282
H   H39       1.0  0.68017  0.05378  0.26701  1.0000 0.1390092067
H   H40       1.0  0.36323  0.49745  0.90836  1.0000 0.109003282
H   H41       1.0  0.39181  0.58658  0.86933  1.0000 0.1193151587
H   H42       1.0  0.76711  0.09935  0.33573  1.0000 0.128065475
H   H43       1.0  0.85819  0.93961  0.38429  1.0000 0.0999423549
H   H44       1.0  0.85443  0.04093  0.39597  1.0000 0.128065475
H   H45       1.0  0.04145  0.44428  0.57129  1.0000 0.1193151587
H   H46       1.0  0.92785  0.20449  0.90240  1.0000 0.128065475
H   H47       1.0  0.44240  0.33563  0.35572  1.0000 0.1390092067
H   H48       1.0  0.17645  0.39964  0.60301  1.0000 0.0999423549
H   H49       1.0  0.48635  0.44080  0.75281  1.0000 0.109003282
H   H50       1.0  0.13223  0.59962  0.63392  1.0000 0.1193151587
H   H51       1.0  0.02950  0.21992  0.97568  1.0000 0.109003282
H   H52       1.0  0.43868  0.32247  0.63792  1.0000 0.109003282
H   H53       1.0  0.78346  0.34558  0.93962  1.0000 0.1193151587
H   H54       1.0  0.64590  0.80262  0.55535  1.0000 0.109003282
H   H55       1.0  0.80958  0.05199  0.74238  1.0000 0.1193151587
H   H56       1.0  0.26807  0.55452  0.66497  1.0000 0.109003282
H   H57       1.0  0.40632  0.52033  0.39099  1.0000 0.109003282
H   H58       1.0  0.38782  0.50170  0.30281  1.0000 0.128065475
H   H59       1.0  0.93616  0.31369  0.09963  1.0000 0.128065475
H   H60       1.0  0.50688  0.56691  0.45390  1.0000 0.1193151587
H   H61       1.0  0.44321  0.33948  0.17973  1.0000 0.109003282
H   H62       1.0  0.14216  0.28176  0.01983  1.0000 0.128065475
H   H63       1.0  0.67950  0.43116  0.45049  1.0000 0.1193151587
H   H64       1.0  0.31483  0.37751  0.60313  1.0000 0.109003282
H   H65       1.0  0.14640  0.36411  0.30092  1.0000 0.109003282
H   H66       1.0  0.36357  0.49607  0.71733  1.0000 0.109003282
H   H67       1.0  0.41720  0.23377  0.33360  1.0000 0.128065475
H   H68       1.0  0.58133  0.38563  0.38667  1.0000 0.109003282
H   H69       1.0  0.52530  0.30824  0.11846  1.0000 0.1390092067
H   H70       1.0  0.89729  0.80089  0.63137  1.0000 0.1193151587
H   H71       1.0  0.83464  0.96336  0.70495  1.0000 0.109003282
H   H72       1.0  0.63210  0.89988  0.57930  1.0000 0.109003282
H   H73       1.0  0.01193  0.34776  0.32908  1.0000 0.1390092067
H   H74       1.0  0.29476  0.26417  0.03028  1.0000 0.128065475
H   H75       1.0  0.88596  0.32526  0.26958  1.0000 0.1193151587
H   H76       1.0  0.36910  0.13820  0.30999  1.0000 0.109003282
H   H77       1.0  0.45128  0.26841  0.04265  1.0000 0.1193151587
H   H78       1.0  0.88117  0.35534  0.01584  1.0000 0.109003282
H   H79       1.0  0.19798  0.20559  0.19649  1.0000 0.109003282
H   H80       1.0  0.90500  0.31292  0.18404  1.0000 0.128065475
H   H81       1.0  0.25400  0.12586  0.24302  1.0000 0.1193151587
H   H82       1.0  0.88099  0.89834  0.65329  1.0000 0.109003282
H   H83       1.0  0.31983  0.55378  0.23299  1.0000 0.1390092067
H   H84       1.0  0.63677  0.99745  0.59164  1.0000 0.109003282
H   H85       1.0  0.60819  0.08658  0.63067  1.0000 0.1193151587
H   H86       1.0  0.23289  0.59935  0.16427  1.0000 0.128065475
H   H87       1.0  0.14181  0.43961  0.11571  1.0000 0.0999423549
H   H88       1.0  0.14557  0.54093  0.10403  1.0000 0.128065475
H   H89       1.0  0.04145  0.05572  0.07129  1.0000 0.1193151587
H   H90       1.0  0.92785  0.29551  0.40240  1.0000 0.128065475
H   H91       1.0  0.44240  0.16437  0.85572  1.0000 0.1390092067
H   H92       1.0  0.17645  0.10036  0.10301  1.0000 0.0999423549
H   H93       1.0  0.48635  0.05920  0.25281  1.0000 0.109003282
H   H94       1.0  0.13223  0.90038  0.13392  1.0000 0.1193151587
H   H95       1.0  0.02950  0.28008  0.47568  1.0000 0.109003282
H   H96       1.0  0.43868  0.17753  0.13792  1.0000 0.109003282
H   H97       1.0  0.78346  0.15442  0.43962  1.0000 0.1193151587
H   H98       1.0  0.64590  0.69738  0.05535  1.0000 0.109003282
H   H99       1.0  0.80958  0.44801  0.24238  1.0000 0.1193151587
H   H100      1.0  0.26807  0.94548  0.16497  1.0000 0.109003282
H   H101      1.0  0.40632  0.97967  0.89099  1.0000 0.109003282
H   H102      1.0  0.38782  0.99830  0.80281  1.0000 0.128065475
H   H103      1.0  0.93616  0.18631  0.59963  1.0000 0.128065475
H   H104      1.0  0.50688  0.93309  0.95390  1.0000 0.1193151587
H   H105      1.0  0.44321  0.16052  0.67973  1.0000 0.109003282
H   H106      1.0  0.14216  0.21824  0.51983  1.0000 0.128065475
H   H107      1.0  0.67950  0.06884  0.95049  1.0000 0.1193151587
H   H108      1.0  0.31483  0.12249  0.10313  1.0000 0.109003282
H   H109      1.0  0.14640  0.13589  0.80092  1.0000 0.109003282
H   H110      1.0  0.36357  0.00393  0.21733  1.0000 0.109003282
H   H111      1.0  0.41720  0.26623  0.83360  1.0000 0.128065475
H   H112      1.0  0.58133  0.11437  0.88667  1.0000 0.109003282
H   H113      1.0  0.52530  0.19176  0.61846  1.0000 0.1390092067
H   H114      1.0  0.89729  0.69911  0.13137  1.0000 0.1193151587
H   H115      1.0  0.83464  0.53664  0.20495  1.0000 0.109003282
H   H116      1.0  0.63210  0.60012  0.07930  1.0000 0.109003282
H   H117      1.0  0.01193  0.15224  0.82908  1.0000 0.1390092067
H   H118      1.0  0.29476  0.23583  0.53028  1.0000 0.128065475
H   H119      1.0  0.88596  0.17474  0.76958  1.0000 0.1193151587
H   H120      1.0  0.36910  0.36180  0.80999  1.0000 0.109003282
H   H121      1.0  0.45128  0.23159  0.54265  1.0000 0.1193151587
H   H122      1.0  0.88117  0.14466  0.51584  1.0000 0.109003282
H   H123      1.0  0.19798  0.29441  0.69649  1.0000 0.109003282
H   H124      1.0  0.90500  0.18708  0.68404  1.0000 0.128065475
H   H125      1.0  0.25400  0.37414  0.74302  1.0000 0.1193151587
H   H126      1.0  0.88099  0.60166  0.15329  1.0000 0.109003282
H   H127      1.0  0.31983  0.94622  0.73299  1.0000 0.1390092067
H   H128      1.0  0.63677  0.50255  0.09164  1.0000 0.109003282
H   H129      1.0  0.60819  0.41342  0.13067  1.0000 0.1193151587
H   H130      1.0  0.23289  0.90065  0.66427  1.0000 0.128065475
H   H131      1.0  0.14181  0.06039  0.61571  1.0000 0.0999423549
H   H132      1.0  0.14557  0.95907  0.60403  1.0000 0.128065475
H   H133      1.0  0.95855  0.55572  0.42871  1.0000 0.1193151587
H   H134      1.0  0.07215  0.79551  0.09760  1.0000 0.128065475
H   H135      1.0  0.55760  0.66437  0.64428  1.0000 0.1390092067
H   H136      1.0  0.82355  0.60036  0.39699  1.0000 0.0999423549
H   H137      1.0  0.51365  0.55920  0.24719  1.0000 0.109003282
H   H138      1.0  0.86777  0.40038  0.36608  1.0000 0.1193151587
H   H139      1.0  0.97050  0.78008  0.02432  1.0000 0.109003282
H   H140      1.0  0.56132  0.67753  0.36208  1.0000 0.109003282
H   H141      1.0  0.21654  0.65442  0.06038  1.0000 0.1193151587
H   H142      1.0  0.35410  0.19738  0.44465  1.0000 0.109003282
H   H143      1.0  0.19042  0.94801  0.25762  1.0000 0.1193151587
H   H144      1.0  0.73193  0.44548  0.33503  1.0000 0.109003282
H   H145      1.0  0.59368  0.47967  0.60901  1.0000 0.109003282
H   H146      1.0  0.61218  0.49830  0.69719  1.0000 0.128065475
H   H147      1.0  0.06384  0.68631  0.90037  1.0000 0.128065475
H   H148      1.0  0.49312  0.43309  0.54610  1.0000 0.1193151587
H   H149      1.0  0.55679  0.66052  0.82027  1.0000 0.109003282
H   H150      1.0  0.85784  0.71824  0.98017  1.0000 0.128065475
H   H151      1.0  0.32050  0.56884  0.54951  1.0000 0.1193151587
H   H152      1.0  0.68517  0.62249  0.39687  1.0000 0.109003282
H   H153      1.0  0.85360  0.63589  0.69908  1.0000 0.109003282
H   H154      1.0  0.63643  0.50393  0.28267  1.0000 0.109003282
H   H155      1.0  0.58280  0.76623  0.66640  1.0000 0.128065475
H   H156      1.0  0.41867  0.61437  0.61333  1.0000 0.109003282
H   H157      1.0  0.47470  0.69176  0.88154  1.0000 0.1390092067
H   H158      1.0  0.10271  0.19911  0.36863  1.0000 0.1193151587
H   H159      1.0  0.16536  0.03664  0.29505  1.0000 0.109003282
H   H160      1.0  0.36790  0.10012  0.42070  1.0000 0.109003282
H   H161      1.0  0.98807  0.65224  0.67092  1.0000 0.1390092067
H   H162      1.0  0.70524  0.73583  0.96972  1.0000 0.128065475
H   H163      1.0  0.11404  0.67474  0.73042  1.0000 0.1193151587
H   H164      1.0  0.63090  0.86180  0.69001  1.0000 0.109003282
H   H165      1.0  0.54872  0.73159  0.95735  1.0000 0.1193151587
H   H166      1.0  0.11883  0.64466  0.98416  1.0000 0.109003282
H   H167      1.0  0.80202  0.79441  0.80351  1.0000 0.109003282
H   H168      1.0  0.09500  0.68708  0.81596  1.0000 0.128065475
H   H169      1.0  0.74600  0.87414  0.75698  1.0000 0.1193151587
H   H170      1.0  0.11901  0.10166  0.34671  1.0000 0.109003282
H   H171      1.0  0.68017  0.44622  0.76701  1.0000 0.1390092067
H   H172      1.0  0.36323  0.00255  0.40836  1.0000 0.109003282
H   H173      1.0  0.39181  0.91342  0.36933  1.0000 0.1193151587
H   H174      1.0  0.76711  0.40065  0.83573  1.0000 0.128065475
H   H175      1.0  0.85819  0.56039  0.88429  1.0000 0.0999423549
H   H176      1.0  0.85443  0.45907  0.89597  1.0000 0.128065475
C   C1        1.0  0.21940  0.76340  0.63421  1.0000 0.5273477868
C   C2        1.0  0.15440  0.77330  0.58647  1.0000 -0.0308298874
C   C3        1.0  0.92660  0.02640  0.89990  1.0000 -0.0308298874
C   C4        1.0  0.01570  0.05340  0.91890  1.0000 0.5424814284
C   C5        1.0  0.66590  0.77620  0.22250  1.0000 0.1578492061
C   C6        1.0  0.31300  0.63550  0.78200  1.0000 0.5237760902
C   C7        1.0  0.21780  0.22590  0.91960  1.0000 0.5131001533
C   C8        1.0  0.39650  0.00380  0.04225  1.0000 -0.0308298874
C   C9        1.0  0.64310  0.83890  0.21066  1.0000 0.1493665338
C   C10       1.0  0.91300  0.96620  0.90960  1.0000 -0.0965065039
C   C11       1.0  0.76260  0.97200  0.86252  1.0000 0.0603043896
C   C12       1.0  0.08090  0.73530  0.57540  1.0000 -0.0906073428
C   C13       1.0  0.32900  0.03620  0.00450  1.0000 0.5273477868
C   C14       1.0  0.22800  0.29020  0.90770  1.0000 -0.041639027
C   C15       1.0  0.58720  0.86130  0.16870  1.0000 -0.2400508612
C   C16       1.0  0.83200  0.93970  0.89070  1.0000 -0.1691974295
C   C17       1.0  0.54930  0.92740  0.77674  1.0000 -0.1199844351
C   C18       1.0  0.45550  0.83340  0.77470  1.0000 0.5237760902
C   C19       1.0  0.51480  0.94890  0.11890  1.0000 0.0603043896
C   C20       1.0  0.85900  0.05960  0.87220  1.0000 -0.0965065039
C   C21       1.0  0.52720  0.87410  0.79890  1.0000 -0.041639027
C   C22       1.0  0.02130  0.74400  0.53120  1.0000 -0.1475889217
C   C23       1.0  0.67760  0.94070  0.84197  1.0000 0.0661050087
C   C24       1.0  0.67370  0.93600  0.24180  1.0000 0.1749001504
C   C25       1.0  0.93990  0.81940  0.35842  1.0000 0.1578492061
C   C26       1.0  0.57760  0.85630  0.84540  1.0000 -0.1124282317
C   C27       1.0  0.57520  0.92250  0.16303  1.0000 0.1193151587
C   C28       1.0  0.72000  0.80260  0.40220  1.0000 0.1493665338
C   C29       1.0  0.29480  0.57840  0.80880  1.0000 -0.0308298874
C   C30       1.0  0.16830  0.81960  0.55250  1.0000 -0.1124282317
C   C31       1.0  0.81900  0.80300  0.40560  1.0000 0.1578492061
C   C32       1.0  0.30670  0.32100  0.92380  1.0000 -0.1199844351
C   C33       1.0  0.22670  0.54110  0.78780  1.0000 -0.1199844351
C   C34       1.0  0.77760  0.03230  0.85370  1.0000 -0.1475889217
C   C35       1.0  0.53800  0.00300  0.09760  1.0000 -0.1475889217
C   C36       1.0  0.61920  0.96080  0.20020  1.0000 -0.2400508612
C   C37       1.0  0.96240  0.83000  0.30620  1.0000 0.1390092067
C   C38       1.0  0.00230  0.81070  0.40190  1.0000 -0.2458360284
C   C39       1.0  0.47830  0.03080  0.05960  1.0000 -0.0965065039
C   C40       1.0  0.58730  0.82530  0.35110  1.0000 0.0661050087
C   C41       1.0  0.26120  0.46970  0.85620  1.0000 0.0661050087
C   C42       1.0  0.87910  0.79220  0.45000  1.0000 -0.2331394949
C   C43       1.0  0.37500  0.94940  0.06210  1.0000 -0.0906073428
C   C44       1.0  0.65170  0.88950  0.86610  1.0000 -0.1593201207
C   C45       1.0  0.90280  0.85250  0.22260  1.0000 0.0661050087
C   C46       1.0  0.62310  0.96060  0.79790  1.0000 -0.1691974295
C   C47       1.0  0.97110  0.79730  0.44860  1.0000 0.1193151587
C   C48       1.0  0.03610  0.78820  0.49670  1.0000 0.0539414943
C   C49       1.0  0.62760  0.72780  0.19420  1.0000 -0.1829474732
C   C50       1.0  0.43370  0.92200  0.10030  1.0000 -0.1593201207
C   C51       1.0  0.72240  0.97080  0.28470  1.0000 0.1390092067
C   C52       1.0  0.53740  0.80580  0.38730  1.0000 -0.1475889217
C   C53       1.0  0.15730  0.32020  0.87880  1.0000 -0.1124282317
C   C54       1.0  0.21110  0.48790  0.81070  1.0000 -0.1691974295
C   C55       1.0  0.31480  0.37970  0.90890  1.0000 -0.1691974295
C   C56       1.0  0.24820  0.40930  0.87750  1.0000 0.0603043896
C   C57       1.0  0.98320  0.84410  0.20550  1.0000 -0.1475889217
C   C58       1.0  0.67400  0.78030  0.43990  1.0000 -0.1829474732
C   C59       1.0  0.05750  0.82990  0.24060  1.0000 -0.0308298874
C   C60       1.0  0.65670  0.67090  0.20800  1.0000 -0.041639027
C   C61       1.0  0.58140  0.78250  0.43240  1.0000 -0.0468746214
C   C62       1.0  0.10920  0.82580  0.50730  1.0000 -0.1691974295
C   C63       1.0  0.75760  0.71160  0.27550  1.0000 0.0253968522
C   C64       1.0  0.04590  0.82270  0.29170  1.0000 -0.1893896884
C   C65       1.0  0.72360  0.66350  0.24820  1.0000 -0.1378664612
C   C66       1.0  0.16800  0.37870  0.86510  1.0000 -0.1593201207
C   C67       1.0  0.71760  0.03120  0.29080  1.0000 -0.1691974295
C   C68       1.0  0.32840  0.50780  0.87760  1.0000 -0.1691974295
C   C69       1.0  0.34580  0.56200  0.85410  1.0000 -0.1124282317
C   C70       1.0  0.76830  0.05840  0.33200  1.0000 -0.041639027
C   C71       1.0  0.82240  0.96270  0.36020  1.0000 0.0603043896
C   C72       1.0  0.82060  0.02370  0.36740  1.0000 -0.1691974295
C   C73       1.0  0.78060  0.26340  0.86579  1.0000 0.5273477868
C   C74       1.0  0.84560  0.27330  0.91353  1.0000 -0.0308298874
C   C75       1.0  0.07340  0.52640  0.60010  1.0000 -0.0308298874
C   C76       1.0  0.98430  0.55340  0.58110  1.0000 0.5424814284
C   C77       1.0  0.33410  0.27620  0.27750  1.0000 0.1578492061
C   C78       1.0  0.68700  0.13550  0.71800  1.0000 0.5237760902
C   C79       1.0  0.78220  0.72590  0.58040  1.0000 0.5131001533
C   C80       1.0  0.60350  0.50380  0.45775  1.0000 -0.0308298874
C   C81       1.0  0.35690  0.33890  0.28934  1.0000 0.1493665338
C   C82       1.0  0.08700  0.46620  0.59040  1.0000 -0.0965065039
C   C83       1.0  0.23740  0.47200  0.63748  1.0000 0.0603043896
C   C84       1.0  0.91910  0.23530  0.92460  1.0000 -0.0906073428
C   C85       1.0  0.67100  0.53620  0.49550  1.0000 0.5273477868
C   C86       1.0  0.77200  0.79020  0.59230  1.0000 -0.041639027
C   C87       1.0  0.41280  0.36130  0.33130  1.0000 -0.2400508612
C   C88       1.0  0.16800  0.43970  0.60930  1.0000 -0.1691974295
C   C89       1.0  0.45070  0.42740  0.72326  1.0000 -0.1199844351
C   C90       1.0  0.54450  0.33340  0.72530  1.0000 0.5237760902
C   C91       1.0  0.48520  0.44890  0.38110  1.0000 0.0603043896
C   C92       1.0  0.14100  0.55960  0.62780  1.0000 -0.0965065039
C   C93       1.0  0.47280  0.37410  0.70110  1.0000 -0.041639027
C   C94       1.0  0.97870  0.24400  0.96880  1.0000 -0.1475889217
C   C95       1.0  0.32240  0.44070  0.65803  1.0000 0.0661050087
C   C96       1.0  0.32630  0.43600  0.25820  1.0000 0.1749001504
C   C97       1.0  0.06010  0.31940  0.14158  1.0000 0.1578492061
C   C98       1.0  0.42240  0.35630  0.65460  1.0000 -0.1124282317
C   C99       1.0  0.42480  0.42250  0.33697  1.0000 0.1193151587
C   C100      1.0  0.28000  0.30260  0.09780  1.0000 0.1493665338
C   C101      1.0  0.70520  0.07840  0.69120  1.0000 -0.0308298874
C   C102      1.0  0.83170  0.31960  0.94750  1.0000 -0.1124282317
C   C103      1.0  0.18100  0.30300  0.09440  1.0000 0.1578492061
C   C104      1.0  0.69330  0.82100  0.57620  1.0000 -0.1199844351
C   C105      1.0  0.77330  0.04110  0.71220  1.0000 -0.1199844351
C   C106      1.0  0.22240  0.53230  0.64630  1.0000 -0.1475889217
C   C107      1.0  0.46200  0.50300  0.40240  1.0000 -0.1475889217
C   C108      1.0  0.38080  0.46080  0.29980  1.0000 -0.2400508612
C   C109      1.0  0.03760  0.33000  0.19380  1.0000 0.1390092067
C   C110      1.0  0.99770  0.31070  0.09810  1.0000 -0.2400508612
C   C111      1.0  0.52170  0.53080  0.44040  1.0000 -0.0965065039
C   C112      1.0  0.41270  0.32530  0.14890  1.0000 0.0661050087
C   C113      1.0  0.73880  0.96970  0.64380  1.0000 0.0661050087
C   C114      1.0  0.12090  0.29220  0.05000  1.0000 -0.2331394949
C   C115      1.0  0.62500  0.44940  0.43790  1.0000 -0.0906073428
C   C116      1.0  0.34830  0.38950  0.63390  1.0000 -0.1593201207
C   C117      1.0  0.09720  0.35250  0.27740  1.0000 0.0603043896
C   C118      1.0  0.37690  0.46060  0.70210  1.0000 -0.1691974295
C   C119      1.0  0.02890  0.29730  0.05140  1.0000 0.1193151587
C   C120      1.0  0.96390  0.28820  0.00330  1.0000 0.0539414943
C   C121      1.0  0.37240  0.22780  0.30580  1.0000 -0.1829474732
C   C122      1.0  0.56630  0.42200  0.39970  1.0000 -0.1593201207
C   C123      1.0  0.27760  0.47080  0.21530  1.0000 0.1390092067
C   C124      1.0  0.46260  0.30580  0.11270  1.0000 -0.1475889217
C   C125      1.0  0.84270  0.82020  0.62120  1.0000 -0.1124282317
C   C126      1.0  0.78890  0.98790  0.68930  1.0000 -0.1691974295
C   C127      1.0  0.68520  0.87970  0.59110  1.0000 -0.1691974295
C   C128      1.0  0.75180  0.90930  0.62250  1.0000 0.0603043896
C   C129      1.0  0.01680  0.34410  0.29450  1.0000 -0.1475889217
C   C130      1.0  0.32600  0.28030  0.06010  1.0000 -0.1829474732
C   C131      1.0  0.94250  0.32990  0.25940  1.0000 -0.0308298874
C   C132      1.0  0.34330  0.17090  0.29200  1.0000 -0.041639027
C   C133      1.0  0.41860  0.28250  0.06760  1.0000 -0.0468746214
C   C134      1.0  0.89080  0.32580  0.99270  1.0000 -0.1691974295
C   C135      1.0  0.24240  0.21160  0.22450  1.0000 0.0253968522
C   C136      1.0  0.95410  0.32270  0.20830  1.0000 -0.1893896884
C   C137      1.0  0.27640  0.16350  0.25180  1.0000 -0.1378664612
C   C138      1.0  0.83200  0.87870  0.63490  1.0000 -0.1593201207
C   C139      1.0  0.28240  0.53120  0.20920  1.0000 -0.1691974295
C   C140      1.0  0.67160  0.00780  0.62240  1.0000 -0.1691974295
C   C141      1.0  0.65420  0.06200  0.64590  1.0000 -0.1124282317
C   C142      1.0  0.23170  0.55840  0.16800  1.0000 -0.041639027
C   C143      1.0  0.17760  0.46270  0.13980  1.0000 0.0603043896
C   C144      1.0  0.17940  0.52370  0.13260  1.0000 -0.1691974295
C   C145      1.0  0.78060  0.23660  0.36579  1.0000 0.5273477868
C   C146      1.0  0.84560  0.22670  0.41353  1.0000 -0.0308298874
C   C147      1.0  0.07340  0.97360  0.10010  1.0000 -0.0308298874
C   C148      1.0  0.98430  0.94660  0.08110  1.0000 0.5424814284
C   C149      1.0  0.33410  0.22380  0.77750  1.0000 0.1578492061
C   C150      1.0  0.68700  0.36450  0.21800  1.0000 0.5237760902
C   C151      1.0  0.78220  0.77410  0.08040  1.0000 0.5131001533
C   C152      1.0  0.60350  0.99620  0.95775  1.0000 -0.0308298874
C   C153      1.0  0.35690  0.16110  0.78934  1.0000 0.1493665338
C   C154      1.0  0.08700  0.03380  0.09040  1.0000 -0.0965065039
C   C155      1.0  0.23740  0.02800  0.13748  1.0000 0.0603043896
C   C156      1.0  0.91910  0.26470  0.42460  1.0000 -0.0906073428
C   C157      1.0  0.67100  0.96380  0.99550  1.0000 0.5273477868
C   C158      1.0  0.77200  0.70980  0.09230  1.0000 -0.041639027
C   C159      1.0  0.41280  0.13870  0.83130  1.0000 -0.2400508612
C   C160      1.0  0.16800  0.06030  0.10930  1.0000 -0.1691974295
C   C161      1.0  0.45070  0.07260  0.22326  1.0000 -0.1199844351
C   C162      1.0  0.54450  0.16660  0.22530  1.0000 0.5237760902
C   C163      1.0  0.48520  0.05110  0.88110  1.0000 0.0603043896
C   C164      1.0  0.14100  0.94040  0.12780  1.0000 -0.0965065039
C   C165      1.0  0.47280  0.12590  0.20110  1.0000 -0.041639027
C   C166      1.0  0.97870  0.25600  0.46880  1.0000 -0.1475889217
C   C167      1.0  0.32240  0.05930  0.15803  1.0000 0.0661050087
C   C168      1.0  0.32630  0.06400  0.75820  1.0000 0.1749001504
C   C169      1.0  0.06010  0.18060  0.64158  1.0000 0.1578492061
C   C170      1.0  0.42240  0.14370  0.15460  1.0000 -0.1124282317
C   C171      1.0  0.42480  0.07750  0.83697  1.0000 0.1193151587
C   C172      1.0  0.28000  0.19740  0.59780  1.0000 0.1493665338
C   C173      1.0  0.70520  0.42160  0.19120  1.0000 -0.0308298874
C   C174      1.0  0.83170  0.18040  0.44750  1.0000 -0.1124282317
C   C175      1.0  0.18100  0.19700  0.59440  1.0000 0.1578492061
C   C176      1.0  0.69330  0.67900  0.07620  1.0000 -0.1199844351
C   C177      1.0  0.77330  0.45890  0.21220  1.0000 -0.1199844351
C   C178      1.0  0.22240  0.96770  0.14630  1.0000 -0.1475889217
C   C179      1.0  0.46200  0.99700  0.90240  1.0000 -0.1593201207
C   C180      1.0  0.38080  0.03920  0.79980  1.0000 -0.2400508612
C   C181      1.0  0.03760  0.17000  0.69380  1.0000 0.1390092067
C   C182      1.0  0.99770  0.18930  0.59810  1.0000 -0.2400508612
C   C183      1.0  0.52170  0.96920  0.94040  1.0000 -0.0965065039
C   C184      1.0  0.41270  0.17470  0.64890  1.0000 0.0661050087
C   C185      1.0  0.73880  0.53030  0.14380  1.0000 0.0661050087
C   C186      1.0  0.12090  0.20780  0.55000  1.0000 -0.2331394949
C   C187      1.0  0.62500  0.05060  0.93790  1.0000 -0.0906073428
C   C188      1.0  0.34830  0.11050  0.13390  1.0000 -0.1593201207
C   C189      1.0  0.09720  0.14750  0.77740  1.0000 0.0661050087
C   C190      1.0  0.37690  0.03940  0.20210  1.0000 -0.1691974295
C   C191      1.0  0.02890  0.20270  0.55140  1.0000 0.1193151587
C   C192      1.0  0.96390  0.21180  0.50330  1.0000 0.0539414943
C   C193      1.0  0.37240  0.27220  0.80580  1.0000 -0.1829474732
C   C194      1.0  0.56630  0.07800  0.89970  1.0000 -0.1593201207
C   C195      1.0  0.27760  0.02920  0.71530  1.0000 0.1390092067
C   C196      1.0  0.46260  0.19420  0.61270  1.0000 -0.1475889217
C   C197      1.0  0.84270  0.67980  0.12120  1.0000 -0.1124282317
C   C198      1.0  0.78890  0.51210  0.18930  1.0000 -0.1691974295
C   C199      1.0  0.68520  0.62030  0.09110  1.0000 -0.1691974295
C   C200      1.0  0.75180  0.59070  0.12250  1.0000 0.0603043896
C   C201      1.0  0.01680  0.15590  0.79450  1.0000 -0.1475889217
C   C202      1.0  0.32600  0.21970  0.56010  1.0000 -0.1829474732
C   C203      1.0  0.94250  0.17010  0.75940  1.0000 -0.0308298874
C   C204      1.0  0.34330  0.32910  0.79200  1.0000 -0.041639027
C   C205      1.0  0.41860  0.21750  0.56760  1.0000 -0.0468746214
C   C206      1.0  0.89080  0.17420  0.49270  1.0000 -0.1691974295
C   C207      1.0  0.24240  0.28840  0.72450  1.0000 0.0253968522
C   C208      1.0  0.95410  0.17730  0.70830  1.0000 -0.1893896884
C   C209      1.0  0.27640  0.33650  0.75180  1.0000 -0.1378664612
C   C210      1.0  0.83200  0.62130  0.13490  1.0000 -0.1593201207
C   C211      1.0  0.28240  0.96880  0.70920  1.0000 -0.1691974295
C   C212      1.0  0.67160  0.49220  0.12240  1.0000 -0.1691974295
C   C213      1.0  0.65420  0.43800  0.14590  1.0000 -0.1124282317
C   C214      1.0  0.23170  0.94160  0.66800  1.0000 -0.041639027
C   C215      1.0  0.17760  0.03730  0.63980  1.0000 0.0603043896
C   C216      1.0  0.17940  0.97630  0.63260  1.0000 -0.1691974295
C   C217      1.0  0.21940  0.73660  0.13421  1.0000 0.5273477868
C   C218      1.0  0.15440  0.72670  0.08647  1.0000 -0.0308298874
C   C219      1.0  0.92660  0.47360  0.39990  1.0000 -0.0308298874
C   C220      1.0  0.01570  0.44660  0.41890  1.0000 0.5424814284
C   C221      1.0  0.66590  0.72380  0.72250  1.0000 0.1578492061
C   C222      1.0  0.31300  0.86450  0.28200  1.0000 0.5237760902
C   C223      1.0  0.21780  0.27410  0.41960  1.0000 0.5131001533
C   C224      1.0  0.39650  0.49620  0.54225  1.0000 -0.0308298874
C   C225      1.0  0.64310  0.66110  0.71066  1.0000 0.1493665338
C   C226      1.0  0.91300  0.53380  0.40960  1.0000 -0.0965065039
C   C227      1.0  0.76260  0.52800  0.36252  1.0000 0.0603043896
C   C228      1.0  0.08090  0.76470  0.07540  1.0000 -0.0906073428
C   C229      1.0  0.32900  0.46380  0.50450  1.0000 0.5273477868
C   C230      1.0  0.22800  0.20980  0.40770  1.0000 -0.041639027
C   C231      1.0  0.58720  0.63870  0.66870  1.0000 -0.2400508612
C   C232      1.0  0.83200  0.56030  0.39070  1.0000 -0.1691974295
C   C233      1.0  0.54930  0.57260  0.27674  1.0000 -0.1199844351
C   C234      1.0  0.45550  0.66667  0.27470  1.0000 0.5237760902
C   C235      1.0  0.51480  0.55110  0.61890  1.0000 0.0603043896
C   C236      1.0  0.85900  0.44040  0.37220  1.0000 -0.0965065039
C   C237      1.0  0.52720  0.62590  0.29890  1.0000 -0.041639027
C   C238      1.0  0.02130  0.75600  0.03120  1.0000 -0.1475889217
C   C239      1.0  0.67760  0.55930  0.34197  1.0000 0.0661050087
C   C240      1.0  0.67370  0.56400  0.74180  1.0000 0.1749001504
C   C241      1.0  0.93990  0.68060  0.85842  1.0000 0.1578492061
C   C242      1.0  0.57760  0.64370  0.34540  1.0000 -0.1124282317
C   C243      1.0  0.57520  0.57750  0.66303  1.0000 0.1193151587
C   C244      1.0  0.72000  0.69740  0.90220  1.0000 0.1493665338
C   C245      1.0  0.29480  0.92160  0.30880  1.0000 -0.0308298874
C   C246      1.0  0.16830  0.68040  0.05250  1.0000 -0.1124282317
C   C247      1.0  0.81900  0.69700  0.90560  1.0000 0.1578492061
C   C248      1.0  0.30670  0.17900  0.42380  1.0000 -0.1199844351
C   C249      1.0  0.22670  0.95890  0.28780  1.0000 -0.1199844351
C   C250      1.0  0.77760  0.46770  0.35370  1.0000 -0.1475889217
C   C251      1.0  0.53800  0.49700  0.59760  1.0000 -0.1593201207
C   C252      1.0  0.61920  0.53920  0.70020  1.0000 -0.2400508612
C   C253      1.0  0.96240  0.67000  0.80620  1.0000 0.1390092067
C   C254      1.0  0.00230  0.68930  0.90190  1.0000 -0.2458360284
C   C255      1.0  0.47830  0.46920  0.55960  1.0000 -0.0965065039
C   C256      1.0  0.58730  0.67470  0.85110  1.0000 0.0661050087
C   C257      1.0  0.26120  0.03030  0.35620  1.0000 0.0661050087
C   C258      1.0  0.87910  0.70780  0.95000  1.0000 -0.2331394949
C   C259      1.0  0.37500  0.55060  0.56210  1.0000 -0.0906073428
C   C260      1.0  0.65170  0.61050  0.36610  1.0000 -0.1593201207
C   C261      1.0  0.90280  0.64750  0.72260  1.0000 0.0661050087
C   C262      1.0  0.62310  0.53940  0.29790  1.0000 -0.1691974295
C   C263      1.0  0.97110  0.70270  0.94860  1.0000 0.1193151587
C   C264      1.0  0.03610  0.71180  0.99670  1.0000 0.0539414943
C   C265      1.0  0.62760  0.77220  0.69420  1.0000 -0.1829474732
C   C266      1.0  0.43370  0.57800  0.60030  1.0000 -0.1593201207
C   C267      1.0  0.72240  0.52920  0.78470  1.0000 0.1390092067
C   C268      1.0  0.53740  0.69420  0.88730  1.0000 -0.1475889217
C   C269      1.0  0.15730  0.17980  0.37880  1.0000 -0.1124282317
C   C270      1.0  0.21110  0.01210  0.31070  1.0000 -0.1691974295
C   C271      1.0  0.31480  0.12030  0.40890  1.0000 -0.1691974295
C   C272      1.0  0.24820  0.09070  0.37750  1.0000 0.0603043896
C   C273      1.0  0.98320  0.65590  0.70550  1.0000 -0.1475889217
C   C274      1.0  0.67400  0.71970  0.93990  1.0000 -0.1829474732
C   C275      1.0  0.05750  0.67010  0.74060  1.0000 -0.0308298874
C   C276      1.0  0.65670  0.82910  0.70800  1.0000 -0.041639027
C   C277      1.0  0.58140  0.71750  0.93240  1.0000 -0.0468746214
C   C278      1.0  0.10920  0.67420  0.00730  1.0000 -0.1691974295
C   C279      1.0  0.75760  0.78840  0.77550  1.0000 0.0253968522
C   C280      1.0  0.04590  0.67730  0.79170  1.0000 -0.1893896884
C   C281      1.0  0.72360  0.83650  0.74820  1.0000 -0.1378664612
C   C282      1.0  0.16800  0.12130  0.36510  1.0000 -0.1593201207
C   C283      1.0  0.71760  0.46880  0.79080  1.0000 -0.1691974295
C   C284      1.0  0.32840  0.99220  0.37760  1.0000 -0.1691974295
C   C285      1.0  0.34580  0.93800  0.35410  1.0000 -0.1124282317
C   C286      1.0  0.76830  0.44160  0.83200  1.0000 -0.041639027
C   C287      1.0  0.82240  0.53730  0.86020  1.0000 0.0603043896
C   C288      1.0  0.82060  0.47630  0.86740  1.0000 -0.1691974295
N   N1        1.0  0.68530  0.87710  0.24639  1.0000 -0.264411421
N   N2        1.0  0.67740  0.82490  0.35748  1.0000 -0.2400508612
N   N3        1.0  0.85030  0.81760  0.36143  1.0000 -0.264411421
N   N4        1.0  0.72950  0.76830  0.26383  1.0000 -0.2331394949
N   N5        1.0  0.89040  0.84510  0.27139  1.0000 -0.2331394949
N   N6        1.0  0.77440  0.93580  0.31968  1.0000 -0.2331394949
N   N7        1.0  0.31470  0.37710  0.25361  1.0000 -0.264411421
N   N8        1.0  0.32260  0.32490  0.14252  1.0000 -0.2400508612
N   N9        1.0  0.14970  0.31760  0.13857  1.0000 -0.264411421
N   N10       1.0  0.27050  0.26830  0.23617  1.0000 -0.2331394949
N   N11       1.0  0.10960  0.34510  0.22861  1.0000 -0.2331394949
N   N12       1.0  0.22560  0.43580  0.18032  1.0000 -0.2331394949
N   N13       1.0  0.31470  0.12290  0.75361  1.0000 -0.264411421
N   N14       1.0  0.32260  0.17510  0.64252  1.0000 -0.2400508612
N   N15       1.0  0.14970  0.18240  0.63857  1.0000 -0.264411421
N   N16       1.0  0.27050  0.23170  0.73617  1.0000 -0.2331394949
N   N17       1.0  0.10960  0.15490  0.72861  1.0000 -0.2331394949
N   N18       1.0  0.22560  0.06420  0.68032  1.0000 -0.2331394949
N   N19       1.0  0.68530  0.62290  0.74639  1.0000 -0.264411421
N   N20       1.0  0.67740  0.67510  0.85748  1.0000 -0.2400508612
N   N21       1.0  0.85030  0.68240  0.86143  1.0000 -0.264411421
N   N22       1.0  0.72950  0.73170  0.76383  1.0000 -0.2331394949
N   N23       1.0  0.89040  0.65490  0.77139  1.0000 -0.2331394949
N   N24       1.0  0.77440  0.56420  0.81968  1.0000 -0.2331394949
O   O1        1.0  0.03060  0.10830  0.91014  1.0000 -0.6107707336
O   O2        1.0  0.27090  0.64500  0.73792  1.0000 -0.5812773346
O   O3        1.0  0.40960  0.84600  0.73194  1.0000 -0.598950652
O   O4        1.0  0.27780  0.80182  0.64938  1.0000 -0.5902231275
O   O5        1.0  0.14550  0.19904  0.90407  1.0000 -0.5812773346
O   O6        1.0  0.28310  0.19728  0.94448  1.0000 -0.598950652
O   O7        1.0  0.34590  0.08889  0.99041  1.0000 -0.6107707336
O   O8        1.0  0.21460  0.71512  0.65904  1.0000 -0.598950652
O   O9        1.0  0.25510  0.01207  0.98829  1.0000 -0.5574615091
O   O10       1.0  0.07920  0.02210  0.94191  1.0000 -0.5653203616
O   O11       1.0  0.36900  0.67340  0.80223  1.0000 -0.5902231275
O   O12       1.0  0.44340  0.78410  0.79622  1.0000 -0.598950652
O   O13       1.0  0.96940  0.60830  0.58986  1.0000 -0.6107707336
O   O14       1.0  0.72910  0.14500  0.76208  1.0000 -0.5812773346
O   O15       1.0  0.59040  0.34600  0.76806  1.0000 -0.598950652
O   O16       1.0  0.72220  0.30182  0.85062  1.0000 -0.5902231275
O   O17       1.0  0.85450  0.69904  0.59593  1.0000 -0.5812773346
O   O18       1.0  0.71690  0.69728  0.55552  1.0000 -0.598950652
O   O19       1.0  0.65410  0.58889  0.50959  1.0000 -0.6107707336
O   O20       1.0  0.78540  0.21512  0.84096  1.0000 -0.598950652
O   O21       1.0  0.74490  0.51207  0.51171  1.0000 -0.5574615091
O   O22       1.0  0.92080  0.52210  0.55809  1.0000 -0.5574615091
O   O23       1.0  0.63100  0.17340  0.69777  1.0000 -0.5902231275
O   O24       1.0  0.55660  0.28410  0.70378  1.0000 -0.598950652
O   O25       1.0  0.96940  0.89170  0.08986  1.0000 -0.6107707336
O   O26       1.0  0.72910  0.35500  0.26208  1.0000 -0.5812773346
O   O27       1.0  0.59040  0.15400  0.26806  1.0000 -0.598950652
O   O28       1.0  0.72220  0.19818  0.35062  1.0000 -0.5902231275
O   O29       1.0  0.85450  0.80096  0.09593  1.0000 -0.5812773346
O   O30       1.0  0.71690  0.80272  0.05552  1.0000 -0.598950652
O   O31       1.0  0.65410  0.91111  0.00959  1.0000 -0.6107707336
O   O32       1.0  0.78540  0.28488  0.34096  1.0000 -0.598950652
O   O33       1.0  0.74490  0.98793  0.01171  1.0000 -0.5574615091
O   O34       1.0  0.92080  0.97790  0.05809  1.0000 -0.5653203616
O   O35       1.0  0.63100  0.32660  0.19777  1.0000 -0.5902231275
O   O36       1.0  0.55660  0.21590  0.20378  1.0000 -0.598950652
O   O37       1.0  0.03060  0.39170  0.41014  1.0000 -0.6107707336
O   O38       1.0  0.27090  0.85500  0.23792  1.0000 -0.5812773346
O   O39       1.0  0.40960  0.65400  0.23194  1.0000 -0.598950652
O   O40       1.0  0.27780  0.69818  0.14938  1.0000 -0.5902231275
O   O41       1.0  0.14550  0.30096  0.40407  1.0000 -0.5812773346
O   O42       1.0  0.28310  0.30272  0.44448  1.0000 -0.598950652
O   O43       1.0  0.34590  0.41111  0.49041  1.0000 -0.6107707336
O   O44       1.0  0.21460  0.78488  0.15904  1.0000 -0.598950652
O   O45       1.0  0.25510  0.48793  0.48829  1.0000 -0.5574615091
O   O46       1.0  0.07920  0.47790  0.44191  1.0000 -0.5653203616
O   O47       1.0  0.36900  0.82660  0.30223  1.0000 -0.5902231275
O   O48       1.0  0.44340  0.71590  0.29622  1.0000 -0.598950652
