# DDEC6 charges by PACMAN v1.1 (https://github.com/mtap-research/PACMAN-charge/)
data_2020[Zr][csq]3[ASR]2
_chemical_formula_sum              "Zr18 H132 C264 O72"
_cell_length_a       39.3994
_cell_length_b       39.3994
_cell_length_c       16.3262
_cell_angle_alpha    90
_cell_angle_beta     90
_cell_angle_gamma    120

_symmetry_space_group_name_H-M    "P 1"
_symmetry_Int_Tables_number       1

loop_
  _symmetry_equiv_pos_as_xyz
  'x, y, z'

loop_
  _atom_site_type_symbol
  _atom_site_label
  _atom_site_symmetry_multiplicity
  _atom_site_fract_x
  _atom_site_fract_y
  _atom_site_fract_z
  _atom_site_occupancy
  _atom_site_charge
Zr  Zr1       1.0  0.07144  0.53572  0.50000  1.0000 2.2896520152
Zr  Zr2       1.0  0.46428  0.92856  0.50000  1.0000 2.2849959864
Zr  Zr3       1.0  0.46428  0.53572  0.50000  1.0000 2.2896520152
Zr  Zr4       1.0  0.92856  0.46428  0.50000  1.0000 2.2896520152
Zr  Zr5       1.0  0.53572  0.07144  0.50000  1.0000 2.2896520152
Zr  Zr6       1.0  0.53572  0.46428  0.50000  1.0000 2.2896520152
Zr  Zr7       1.0  0.00000  0.45517  0.60827  1.0000 2.4689370924
Zr  Zr8       1.0  0.45517  0.00000  0.60827  1.0000 2.4689370924
Zr  Zr9       1.0  0.54483  0.54483  0.60827  1.0000 2.4689370924
Zr  Zr10      1.0  0.00000  0.54483  0.60827  1.0000 2.4689370924
Zr  Zr11      1.0  0.54483  0.00000  0.60827  1.0000 2.4689370924
Zr  Zr12      1.0  0.45517  0.45517  0.60827  1.0000 2.4689370924
Zr  Zr13      1.0  0.54483  0.54483  0.39173  1.0000 2.4689370924
Zr  Zr14      1.0  0.45517  0.00000  0.39173  1.0000 2.4689370924
Zr  Zr15      1.0  0.00000  0.45517  0.39173  1.0000 2.4689370924
Zr  Zr16      1.0  0.45517  0.45517  0.39173  1.0000 2.4689370924
Zr  Zr17      1.0  0.54483  0.00000  0.39173  1.0000 2.4689370924
Zr  Zr18      1.0  0.00000  0.54483  0.39173  1.0000 2.4689370924
H   H1        1.0  0.08930  0.44010  0.74100  1.0000 0.1102811664
H   H2        1.0  0.13740  0.43990  0.82600  1.0000 0.1164383659
H   H3        1.0  0.21800  0.53680  0.71180  1.0000 0.1102811664
H   H4        1.0  0.17140  0.53950  0.63300  1.0000 0.1262820074
H   H5        1.0  0.16180  0.48950  0.93260  1.0000 0.1164383659
H   H6        1.0  0.35080  0.91070  0.74100  1.0000 0.1102811664
H   H7        1.0  0.30250  0.86260  0.82600  1.0000 0.1164383659
H   H8        1.0  0.31880  0.78200  0.71180  1.0000 0.1102811664
H   H9        1.0  0.36810  0.82860  0.63300  1.0000 0.1262820074
H   H10       1.0  0.32770  0.83820  0.93260  1.0000 0.1164383659
H   H11       1.0  0.55990  0.64920  0.74100  1.0000 0.1102811664
H   H12       1.0  0.56010  0.69750  0.82600  1.0000 0.1164383659
H   H13       1.0  0.46320  0.68120  0.71180  1.0000 0.1102811664
H   H14       1.0  0.46050  0.63190  0.63300  1.0000 0.1262820074
H   H15       1.0  0.51050  0.67230  0.93260  1.0000 0.1102811664
H   H16       1.0  0.91070  0.55990  0.74100  1.0000 0.1102811664
H   H17       1.0  0.86260  0.56010  0.82600  1.0000 0.1164383659
H   H18       1.0  0.78200  0.46320  0.71180  1.0000 0.1102811664
H   H19       1.0  0.82860  0.46050  0.63300  1.0000 0.1262820074
H   H20       1.0  0.83820  0.51050  0.93260  1.0000 0.1102811664
H   H21       1.0  0.64920  0.08930  0.74100  1.0000 0.1102811664
H   H22       1.0  0.69750  0.13740  0.82600  1.0000 0.1164383659
H   H23       1.0  0.68120  0.21800  0.71180  1.0000 0.1102811664
H   H24       1.0  0.63190  0.17140  0.63300  1.0000 0.1262820074
H   H25       1.0  0.67230  0.16180  0.93260  1.0000 0.1164383659
H   H26       1.0  0.44010  0.35080  0.74100  1.0000 0.1102811664
H   H27       1.0  0.43990  0.30250  0.82600  1.0000 0.1164383659
H   H28       1.0  0.53680  0.31880  0.71180  1.0000 0.1102811664
H   H29       1.0  0.53950  0.36810  0.63300  1.0000 0.1262820074
H   H30       1.0  0.48950  0.32770  0.93260  1.0000 0.1102811664
H   H31       1.0  0.64920  0.55990  0.25900  1.0000 0.1102811664
H   H32       1.0  0.69750  0.56010  0.17400  1.0000 0.1164383659
H   H33       1.0  0.68120  0.46320  0.28820  1.0000 0.1102811664
H   H34       1.0  0.63190  0.46050  0.36700  1.0000 0.1262820074
H   H35       1.0  0.67230  0.51050  0.06740  1.0000 0.1102811664
H   H36       1.0  0.44010  0.08930  0.25900  1.0000 0.1102811664
H   H37       1.0  0.43990  0.13740  0.17400  1.0000 0.1164383659
H   H38       1.0  0.53680  0.21800  0.28820  1.0000 0.1102811664
H   H39       1.0  0.53950  0.17140  0.36700  1.0000 0.1262820074
H   H40       1.0  0.48950  0.16180  0.06740  1.0000 0.1164383659
H   H41       1.0  0.91070  0.35080  0.25900  1.0000 0.1102811664
H   H42       1.0  0.86260  0.30250  0.17400  1.0000 0.1164383659
H   H43       1.0  0.78200  0.31880  0.28820  1.0000 0.1102811664
H   H44       1.0  0.82860  0.36810  0.36700  1.0000 0.1262820074
H   H45       1.0  0.83820  0.32770  0.06740  1.0000 0.1164383659
H   H46       1.0  0.35080  0.44010  0.25900  1.0000 0.1102811664
H   H47       1.0  0.30250  0.43990  0.17400  1.0000 0.1164383659
H   H48       1.0  0.31880  0.53680  0.28820  1.0000 0.1102811664
H   H49       1.0  0.36810  0.53950  0.36700  1.0000 0.1262820074
H   H50       1.0  0.32770  0.48950  0.06740  1.0000 0.1102811664
H   H51       1.0  0.55990  0.91070  0.25900  1.0000 0.1102811664
H   H52       1.0  0.56010  0.86260  0.17400  1.0000 0.1164383659
H   H53       1.0  0.46320  0.78200  0.28820  1.0000 0.1102811664
H   H54       1.0  0.46050  0.82860  0.36700  1.0000 0.1262820074
H   H55       1.0  0.51050  0.83820  0.06740  1.0000 0.1164383659
H   H56       1.0  0.08930  0.64920  0.25900  1.0000 0.1102811664
H   H57       1.0  0.13740  0.69750  0.17400  1.0000 0.1164383659
H   H58       1.0  0.21800  0.68120  0.28820  1.0000 0.1102811664
H   H59       1.0  0.17140  0.63190  0.36700  1.0000 0.1262820074
H   H60       1.0  0.16180  0.67230  0.06740  1.0000 0.1164383659
H   H61       1.0  0.91070  0.55990  0.25900  1.0000 0.1102811664
H   H62       1.0  0.86260  0.56010  0.17400  1.0000 0.1164383659
H   H63       1.0  0.78200  0.46320  0.28820  1.0000 0.1102811664
H   H64       1.0  0.82860  0.46050  0.36700  1.0000 0.1262820074
H   H65       1.0  0.83820  0.51050  0.06740  1.0000 0.1102811664
H   H66       1.0  0.64920  0.08930  0.25900  1.0000 0.1102811664
H   H67       1.0  0.69750  0.13740  0.17400  1.0000 0.1164383659
H   H68       1.0  0.68120  0.21800  0.28820  1.0000 0.1102811664
H   H69       1.0  0.63190  0.17140  0.36700  1.0000 0.1262820074
H   H70       1.0  0.67230  0.16180  0.06740  1.0000 0.1164383659
H   H71       1.0  0.44010  0.35080  0.25900  1.0000 0.1102811664
H   H72       1.0  0.43990  0.30250  0.17400  1.0000 0.1164383659
H   H73       1.0  0.53680  0.31880  0.28820  1.0000 0.1102811664
H   H74       1.0  0.53950  0.36810  0.36700  1.0000 0.1262820074
H   H75       1.0  0.48950  0.32770  0.06740  1.0000 0.1164383659
H   H76       1.0  0.08930  0.44010  0.25900  1.0000 0.1102811664
H   H77       1.0  0.13740  0.43990  0.17400  1.0000 0.1164383659
H   H78       1.0  0.21800  0.53680  0.28820  1.0000 0.1102811664
H   H79       1.0  0.17140  0.53950  0.36700  1.0000 0.1262820074
H   H80       1.0  0.16180  0.48950  0.06740  1.0000 0.1164383659
H   H81       1.0  0.35080  0.91070  0.25900  1.0000 0.1102811664
H   H82       1.0  0.30250  0.86260  0.17400  1.0000 0.1164383659
H   H83       1.0  0.31880  0.78200  0.28820  1.0000 0.1102811664
H   H84       1.0  0.36810  0.82860  0.36700  1.0000 0.1262820074
H   H85       1.0  0.32770  0.83820  0.06740  1.0000 0.1164383659
H   H86       1.0  0.55990  0.64920  0.25900  1.0000 0.1102811664
H   H87       1.0  0.56010  0.69750  0.17400  1.0000 0.1164383659
H   H88       1.0  0.46320  0.68120  0.28820  1.0000 0.1102811664
H   H89       1.0  0.46050  0.63190  0.36700  1.0000 0.1262820074
H   H90       1.0  0.51050  0.67230  0.06740  1.0000 0.1164383659
H   H91       1.0  0.35080  0.44010  0.74100  1.0000 0.1102811664
H   H92       1.0  0.30250  0.43990  0.82600  1.0000 0.1164383659
H   H93       1.0  0.31880  0.53680  0.71180  1.0000 0.1102811664
H   H94       1.0  0.36810  0.53950  0.63300  1.0000 0.1262820074
H   H95       1.0  0.32770  0.48950  0.93260  1.0000 0.1102811664
H   H96       1.0  0.55990  0.91070  0.74100  1.0000 0.1102811664
H   H97       1.0  0.56010  0.86260  0.82600  1.0000 0.1164383659
H   H98       1.0  0.46320  0.78200  0.71180  1.0000 0.1102811664
H   H99       1.0  0.46050  0.82860  0.63300  1.0000 0.1262820074
H   H100      1.0  0.51050  0.83820  0.93260  1.0000 0.1164383659
H   H101      1.0  0.08930  0.64920  0.74100  1.0000 0.1102811664
H   H102      1.0  0.13740  0.69750  0.82600  1.0000 0.1164383659
H   H103      1.0  0.21800  0.68120  0.71180  1.0000 0.1102811664
H   H104      1.0  0.17140  0.63190  0.63300  1.0000 0.1262820074
H   H105      1.0  0.16180  0.67230  0.93260  1.0000 0.1164383659
H   H106      1.0  0.64920  0.55990  0.74100  1.0000 0.1102811664
H   H107      1.0  0.69750  0.56010  0.82600  1.0000 0.1164383659
H   H108      1.0  0.68120  0.46320  0.71180  1.0000 0.1102811664
H   H109      1.0  0.63190  0.46050  0.63300  1.0000 0.1262820074
H   H110      1.0  0.67230  0.51050  0.93260  1.0000 0.1102811664
H   H111      1.0  0.44010  0.08930  0.74100  1.0000 0.1102811664
H   H112      1.0  0.43990  0.13740  0.82600  1.0000 0.1164383659
H   H113      1.0  0.53680  0.21800  0.71180  1.0000 0.1102811664
H   H114      1.0  0.53950  0.17140  0.63300  1.0000 0.1262820074
H   H115      1.0  0.48950  0.16180  0.93260  1.0000 0.1164383659
H   H116      1.0  0.91070  0.35080  0.74100  1.0000 0.1102811664
H   H117      1.0  0.86260  0.30250  0.82600  1.0000 0.1164383659
H   H118      1.0  0.78200  0.31880  0.71180  1.0000 0.1102811664
H   H119      1.0  0.82860  0.36810  0.63300  1.0000 0.1262820074
H   H120      1.0  0.83820  0.32770  0.93260  1.0000 0.1102811664
H   H121      1.0  0.24550  0.49100  0.73030  1.0000 0.1164383659
H   H122      1.0  0.24550  0.75450  0.73030  1.0000 0.1164383659
H   H123      1.0  0.50900  0.75450  0.73030  1.0000 0.1164383659
H   H124      1.0  0.75450  0.50900  0.73030  1.0000 0.1164383659
H   H125      1.0  0.75450  0.24550  0.73030  1.0000 0.1164383659
H   H126      1.0  0.49100  0.24550  0.73030  1.0000 0.1164383659
H   H127      1.0  0.75450  0.50900  0.26970  1.0000 0.1164383659
H   H128      1.0  0.49100  0.24550  0.26970  1.0000 0.1164383659
H   H129      1.0  0.75450  0.24550  0.26970  1.0000 0.1164383659
H   H130      1.0  0.24550  0.49100  0.26970  1.0000 0.1164383659
H   H131      1.0  0.50900  0.75450  0.26970  1.0000 0.1164383659
H   H132      1.0  0.24550  0.75450  0.26970  1.0000 0.1164383659
C   C1        1.0  0.09470  0.49300  0.63100  1.0000 0.6198451105
C   C2        1.0  0.12500  0.49270  0.68250  1.0000 -0.0721216004
C   C3        1.0  0.11550  0.46090  0.73780  1.0000 -0.0785296911
C   C4        1.0  0.14410  0.46020  0.78710  1.0000 -0.1812672184
C   C5        1.0  0.18300  0.49020  0.77740  1.0000 0.0865341266
C   C6        1.0  0.19130  0.51760  0.72010  1.0000 -0.1565258107
C   C7        1.0  0.16350  0.51930  0.67290  1.0000 -0.0871944118
C   C8        1.0  0.21570  0.49060  0.82630  1.0000 0.0031770616
C   C9        1.0  0.21390  0.48990  0.91300  1.0000 0.0231616569
C   C10       1.0  0.18300  0.48960  0.96050  1.0000 -0.1436832216
C   C11       1.0  0.39830  0.90530  0.63100  1.0000 0.6198451105
C   C12       1.0  0.36770  0.87500  0.68250  1.0000 -0.0721216004
C   C13       1.0  0.34540  0.88450  0.73780  1.0000 -0.0785296911
C   C14       1.0  0.31610  0.85590  0.78710  1.0000 -0.1812672184
C   C15       1.0  0.30720  0.81700  0.77740  1.0000 0.0865341266
C   C16       1.0  0.32630  0.80870  0.72010  1.0000 -0.1565258107
C   C17       1.0  0.35580  0.83650  0.67290  1.0000 -0.0871944118
C   C18       1.0  0.27490  0.78430  0.82630  1.0000 0.0031770616
C   C19       1.0  0.27600  0.78610  0.91300  1.0000 0.0231616569
C   C20       1.0  0.30660  0.81700  0.96050  1.0000 -0.1436832216
C   C21       1.0  0.50700  0.60170  0.63100  1.0000 0.6198451105
C   C22       1.0  0.50730  0.63230  0.68250  1.0000 -0.0721216004
C   C23       1.0  0.53910  0.65460  0.73780  1.0000 -0.0785296911
C   C24       1.0  0.53980  0.68390  0.78710  1.0000 -0.1812672184
C   C25       1.0  0.50980  0.69280  0.77740  1.0000 0.0865341266
C   C26       1.0  0.48240  0.67370  0.72010  1.0000 -0.1565258107
C   C27       1.0  0.48070  0.64420  0.67290  1.0000 -0.0871944118
C   C28       1.0  0.50940  0.72510  0.82630  1.0000 0.0031770616
C   C29       1.0  0.51010  0.72400  0.91300  1.0000 0.0231616569
C   C30       1.0  0.51040  0.69340  0.96050  1.0000 -0.1436832216
C   C31       1.0  0.90530  0.50700  0.63100  1.0000 0.6198451105
C   C32       1.0  0.87500  0.50730  0.68250  1.0000 -0.0721216004
C   C33       1.0  0.88450  0.53910  0.73780  1.0000 -0.0785296911
C   C34       1.0  0.85590  0.53980  0.78710  1.0000 -0.1812672184
C   C35       1.0  0.81700  0.50980  0.77740  1.0000 0.0865341266
C   C36       1.0  0.80870  0.48240  0.72010  1.0000 -0.1565258107
C   C37       1.0  0.83650  0.48070  0.67290  1.0000 -0.0871944118
C   C38       1.0  0.78430  0.50940  0.82630  1.0000 0.0031770616
C   C39       1.0  0.78610  0.51010  0.91300  1.0000 0.0231616569
C   C40       1.0  0.81700  0.51040  0.96050  1.0000 -0.1436832216
C   C41       1.0  0.60170  0.09470  0.63100  1.0000 0.6198451105
C   C42       1.0  0.63230  0.12500  0.68250  1.0000 -0.0721216004
C   C43       1.0  0.65460  0.11550  0.73780  1.0000 -0.0785296911
C   C44       1.0  0.68390  0.14410  0.78710  1.0000 -0.1812672184
C   C45       1.0  0.69280  0.18300  0.77740  1.0000 0.0865341266
C   C46       1.0  0.67370  0.19130  0.72010  1.0000 -0.1565258107
C   C47       1.0  0.64420  0.16350  0.67290  1.0000 -0.0871944118
C   C48       1.0  0.72510  0.21570  0.82630  1.0000 0.0031770616
C   C49       1.0  0.72400  0.21390  0.91300  1.0000 0.0231616569
C   C50       1.0  0.69340  0.18300  0.96050  1.0000 -0.1436832216
C   C51       1.0  0.49300  0.39830  0.63100  1.0000 0.6198451105
C   C52       1.0  0.49270  0.36770  0.68250  1.0000 -0.0721216004
C   C53       1.0  0.46090  0.34540  0.73780  1.0000 -0.0785296911
C   C54       1.0  0.46020  0.31610  0.78710  1.0000 -0.1812672184
C   C55       1.0  0.49020  0.30720  0.77740  1.0000 0.0865341266
C   C56       1.0  0.51760  0.32630  0.72010  1.0000 -0.1565258107
C   C57       1.0  0.51930  0.35580  0.67290  1.0000 -0.0871944118
C   C58       1.0  0.49060  0.27490  0.82630  1.0000 0.0031770616
C   C59       1.0  0.48990  0.27600  0.91300  1.0000 0.0231616569
C   C60       1.0  0.48960  0.30660  0.96050  1.0000 -0.1436832216
C   C61       1.0  0.60170  0.50700  0.36900  1.0000 0.6198451105
C   C62       1.0  0.63230  0.50730  0.31750  1.0000 -0.0721216004
C   C63       1.0  0.65460  0.53910  0.26220  1.0000 -0.0785296911
C   C64       1.0  0.68390  0.53980  0.21290  1.0000 -0.1812672184
C   C65       1.0  0.69280  0.50980  0.22260  1.0000 0.0865341266
C   C66       1.0  0.67370  0.48240  0.27990  1.0000 -0.1565258107
C   C67       1.0  0.64420  0.48070  0.32710  1.0000 -0.0871944118
C   C68       1.0  0.72510  0.50940  0.17370  1.0000 0.0031770616
C   C69       1.0  0.72400  0.51010  0.08700  1.0000 0.0231616569
C   C70       1.0  0.69340  0.51040  0.03950  1.0000 -0.1436832216
C   C71       1.0  0.49300  0.09470  0.36900  1.0000 0.6198451105
C   C72       1.0  0.49270  0.12500  0.31750  1.0000 -0.0721216004
C   C73       1.0  0.46090  0.11550  0.26220  1.0000 -0.0785296911
C   C74       1.0  0.46020  0.14410  0.21290  1.0000 -0.1812672184
C   C75       1.0  0.49020  0.18300  0.22260  1.0000 0.0865341266
C   C76       1.0  0.51760  0.19130  0.27990  1.0000 -0.1565258107
C   C77       1.0  0.51930  0.16350  0.32710  1.0000 -0.0871944118
C   C78       1.0  0.49060  0.21570  0.17370  1.0000 0.0031770616
C   C79       1.0  0.48990  0.21390  0.08700  1.0000 0.0231616569
C   C80       1.0  0.48960  0.18300  0.03950  1.0000 -0.1436832216
C   C81       1.0  0.90530  0.39830  0.36900  1.0000 0.6198451105
C   C82       1.0  0.87500  0.36770  0.31750  1.0000 -0.0721216004
C   C83       1.0  0.88450  0.34540  0.26220  1.0000 -0.0785296911
C   C84       1.0  0.85590  0.31610  0.21290  1.0000 -0.1812672184
C   C85       1.0  0.81700  0.30720  0.22260  1.0000 0.0865341266
C   C86       1.0  0.80870  0.32630  0.27990  1.0000 -0.1565258107
C   C87       1.0  0.83650  0.35580  0.32710  1.0000 -0.0871944118
C   C88       1.0  0.78430  0.27490  0.17370  1.0000 0.0031770616
C   C89       1.0  0.78610  0.27600  0.08700  1.0000 0.0231616569
C   C90       1.0  0.81700  0.30660  0.03950  1.0000 -0.1436832216
C   C91       1.0  0.39830  0.49300  0.36900  1.0000 0.6198451105
C   C92       1.0  0.36770  0.49270  0.31750  1.0000 -0.0721216004
C   C93       1.0  0.34540  0.46090  0.26220  1.0000 -0.0785296911
C   C94       1.0  0.31610  0.46020  0.21290  1.0000 -0.1812672184
C   C95       1.0  0.30720  0.49020  0.22260  1.0000 0.0865341266
C   C96       1.0  0.32630  0.51760  0.27990  1.0000 -0.1565258107
C   C97       1.0  0.35580  0.51930  0.32710  1.0000 -0.0871944118
C   C98       1.0  0.27490  0.49060  0.17370  1.0000 0.0031770616
C   C99       1.0  0.27600  0.48990  0.08700  1.0000 0.0231616569
C   C100      1.0  0.30660  0.48960  0.03950  1.0000 -0.1436832216
C   C101      1.0  0.50700  0.90530  0.36900  1.0000 0.6198451105
C   C102      1.0  0.50730  0.87500  0.31750  1.0000 -0.0721216004
C   C103      1.0  0.53910  0.88450  0.26220  1.0000 -0.0785296911
C   C104      1.0  0.53980  0.85590  0.21290  1.0000 -0.1812672184
C   C105      1.0  0.50980  0.81700  0.22260  1.0000 0.0865341266
C   C106      1.0  0.48240  0.80870  0.27990  1.0000 -0.1565258107
C   C107      1.0  0.48070  0.83650  0.32710  1.0000 -0.0871944118
C   C108      1.0  0.50940  0.78430  0.17370  1.0000 0.0031770616
C   C109      1.0  0.51010  0.78610  0.08700  1.0000 0.0231616569
C   C110      1.0  0.51040  0.81700  0.03950  1.0000 -0.1436832216
C   C111      1.0  0.09470  0.60170  0.36900  1.0000 0.6198451105
C   C112      1.0  0.12500  0.63230  0.31750  1.0000 -0.0721216004
C   C113      1.0  0.11550  0.65460  0.26220  1.0000 -0.0785296911
C   C114      1.0  0.14410  0.68390  0.21290  1.0000 -0.1812672184
C   C115      1.0  0.18300  0.69280  0.22260  1.0000 0.0865341266
C   C116      1.0  0.19130  0.67370  0.27990  1.0000 -0.1565258107
C   C117      1.0  0.16350  0.64420  0.32710  1.0000 -0.0871944118
C   C118      1.0  0.21570  0.72510  0.17370  1.0000 0.0031770616
C   C119      1.0  0.21390  0.72400  0.08700  1.0000 0.0231616569
C   C120      1.0  0.18300  0.69340  0.03950  1.0000 -0.1436832216
C   C121      1.0  0.90530  0.50700  0.36900  1.0000 0.6198451105
C   C122      1.0  0.87500  0.50730  0.31750  1.0000 -0.0721216004
C   C123      1.0  0.88450  0.53910  0.26220  1.0000 -0.0785296911
C   C124      1.0  0.85590  0.53980  0.21290  1.0000 -0.1812672184
C   C125      1.0  0.81700  0.50980  0.22260  1.0000 0.0865341266
C   C126      1.0  0.80870  0.48240  0.27990  1.0000 -0.1565258107
C   C127      1.0  0.83650  0.48070  0.32710  1.0000 -0.0871944118
C   C128      1.0  0.78430  0.50940  0.17370  1.0000 0.0031770616
C   C129      1.0  0.78610  0.51010  0.08700  1.0000 0.0231616569
C   C130      1.0  0.81700  0.51040  0.03950  1.0000 -0.1436832216
C   C131      1.0  0.60170  0.09470  0.36900  1.0000 0.6198451105
C   C132      1.0  0.63230  0.12500  0.31750  1.0000 -0.0721216004
C   C133      1.0  0.65460  0.11550  0.26220  1.0000 -0.0785296911
C   C134      1.0  0.68390  0.14410  0.21290  1.0000 -0.1812672184
C   C135      1.0  0.69280  0.18300  0.22260  1.0000 0.0865341266
C   C136      1.0  0.67370  0.19130  0.27990  1.0000 -0.1565258107
C   C137      1.0  0.64420  0.16350  0.32710  1.0000 -0.0871944118
C   C138      1.0  0.72510  0.21570  0.17370  1.0000 0.0031770616
C   C139      1.0  0.72400  0.21390  0.08700  1.0000 0.0231616569
C   C140      1.0  0.69340  0.18300  0.03950  1.0000 -0.1436832216
C   C141      1.0  0.49300  0.39830  0.36900  1.0000 0.6198451105
C   C142      1.0  0.49270  0.36770  0.31750  1.0000 -0.0721216004
C   C143      1.0  0.46090  0.34540  0.26220  1.0000 -0.0785296911
C   C144      1.0  0.46020  0.31610  0.21290  1.0000 -0.1812672184
C   C145      1.0  0.49020  0.30720  0.22260  1.0000 0.0865341266
C   C146      1.0  0.51760  0.32630  0.27990  1.0000 -0.1565258107
C   C147      1.0  0.51930  0.35580  0.32710  1.0000 -0.0871944118
C   C148      1.0  0.49060  0.27490  0.17370  1.0000 0.0031770616
C   C149      1.0  0.48990  0.27600  0.08700  1.0000 0.0231616569
C   C150      1.0  0.48960  0.30660  0.03950  1.0000 -0.1436832216
C   C151      1.0  0.09470  0.49300  0.36900  1.0000 0.6198451105
C   C152      1.0  0.12500  0.49270  0.31750  1.0000 -0.0721216004
C   C153      1.0  0.11550  0.46090  0.26220  1.0000 -0.0785296911
C   C154      1.0  0.14410  0.46020  0.21290  1.0000 -0.1812672184
C   C155      1.0  0.18300  0.49020  0.22260  1.0000 0.0865341266
C   C156      1.0  0.19130  0.51760  0.27990  1.0000 -0.1565258107
C   C157      1.0  0.16350  0.51930  0.32710  1.0000 -0.0871944118
C   C158      1.0  0.21570  0.49060  0.17370  1.0000 0.0031770616
C   C159      1.0  0.21390  0.48990  0.08700  1.0000 0.0231616569
C   C160      1.0  0.18300  0.48960  0.03950  1.0000 -0.1436832216
C   C161      1.0  0.39830  0.90530  0.36900  1.0000 0.6198451105
C   C162      1.0  0.36770  0.87500  0.31750  1.0000 -0.0721216004
C   C163      1.0  0.34540  0.88450  0.26220  1.0000 -0.0785296911
C   C164      1.0  0.31610  0.85590  0.21290  1.0000 -0.1812672184
C   C165      1.0  0.30720  0.81700  0.22260  1.0000 0.0865341266
C   C166      1.0  0.32630  0.80870  0.27990  1.0000 -0.1565258107
C   C167      1.0  0.35580  0.83650  0.32710  1.0000 -0.0871944118
C   C168      1.0  0.27490  0.78430  0.17370  1.0000 0.0031770616
C   C169      1.0  0.27600  0.78610  0.08700  1.0000 0.0231616569
C   C170      1.0  0.30660  0.81700  0.03950  1.0000 -0.1436832216
C   C171      1.0  0.50700  0.60170  0.36900  1.0000 0.6198451105
C   C172      1.0  0.50730  0.63230  0.31750  1.0000 -0.0721216004
C   C173      1.0  0.53910  0.65460  0.26220  1.0000 -0.0785296911
C   C174      1.0  0.53980  0.68390  0.21290  1.0000 -0.1812672184
C   C175      1.0  0.50980  0.69280  0.22260  1.0000 0.0865341266
C   C176      1.0  0.48240  0.67370  0.27990  1.0000 -0.1565258107
C   C177      1.0  0.48070  0.64420  0.32710  1.0000 -0.0871944118
C   C178      1.0  0.50940  0.72510  0.17370  1.0000 0.0031770616
C   C179      1.0  0.51010  0.72400  0.08700  1.0000 0.0231616569
C   C180      1.0  0.51040  0.69340  0.03950  1.0000 -0.1436832216
C   C181      1.0  0.39830  0.49300  0.63100  1.0000 0.6198451105
C   C182      1.0  0.36770  0.49270  0.68250  1.0000 -0.0721216004
C   C183      1.0  0.34540  0.46090  0.73780  1.0000 -0.0785296911
C   C184      1.0  0.31610  0.46020  0.78710  1.0000 -0.1812672184
C   C185      1.0  0.30720  0.49020  0.77740  1.0000 0.0865341266
C   C186      1.0  0.32630  0.51760  0.72010  1.0000 -0.1565258107
C   C187      1.0  0.35580  0.51930  0.67290  1.0000 -0.0871944118
C   C188      1.0  0.27490  0.49060  0.82630  1.0000 0.0031770616
C   C189      1.0  0.27600  0.48990  0.91300  1.0000 0.0231616569
C   C190      1.0  0.30660  0.48960  0.96050  1.0000 -0.1436832216
C   C191      1.0  0.50700  0.90530  0.63100  1.0000 0.6198451105
C   C192      1.0  0.50730  0.87500  0.68250  1.0000 -0.0721216004
C   C193      1.0  0.53910  0.88450  0.73780  1.0000 -0.0785296911
C   C194      1.0  0.53980  0.85590  0.78710  1.0000 -0.1812672184
C   C195      1.0  0.50980  0.81700  0.77740  1.0000 0.0865341266
C   C196      1.0  0.48240  0.80870  0.72010  1.0000 -0.1565258107
C   C197      1.0  0.48070  0.83650  0.67290  1.0000 -0.0871944118
C   C198      1.0  0.50940  0.78430  0.82630  1.0000 0.0031770616
C   C199      1.0  0.51010  0.78610  0.91300  1.0000 0.0231616569
C   C200      1.0  0.51040  0.81700  0.96050  1.0000 -0.1436832216
C   C201      1.0  0.09470  0.60170  0.63100  1.0000 0.6198451105
C   C202      1.0  0.12500  0.63230  0.68250  1.0000 -0.0721216004
C   C203      1.0  0.11550  0.65460  0.73780  1.0000 -0.0785296911
C   C204      1.0  0.14410  0.68390  0.78710  1.0000 -0.1812672184
C   C205      1.0  0.18300  0.69280  0.77740  1.0000 0.0865341266
C   C206      1.0  0.19130  0.67370  0.72010  1.0000 -0.1565258107
C   C207      1.0  0.16350  0.64420  0.67290  1.0000 -0.0871944118
C   C208      1.0  0.21570  0.72510  0.82630  1.0000 0.0031770616
C   C209      1.0  0.21390  0.72400  0.91300  1.0000 0.0231616569
C   C210      1.0  0.18300  0.69340  0.96050  1.0000 -0.1436832216
C   C211      1.0  0.60170  0.50700  0.63100  1.0000 0.6198451105
C   C212      1.0  0.63230  0.50730  0.68250  1.0000 -0.0721216004
C   C213      1.0  0.65460  0.53910  0.73780  1.0000 -0.0785296911
C   C214      1.0  0.68390  0.53980  0.78710  1.0000 -0.1812672184
C   C215      1.0  0.69280  0.50980  0.77740  1.0000 0.0865341266
C   C216      1.0  0.67370  0.48240  0.72010  1.0000 -0.1565258107
C   C217      1.0  0.64420  0.48070  0.67290  1.0000 -0.0871944118
C   C218      1.0  0.72510  0.50940  0.82630  1.0000 0.0031770616
C   C219      1.0  0.72400  0.51010  0.91300  1.0000 0.0231616569
C   C220      1.0  0.69340  0.51040  0.96050  1.0000 -0.1436832216
C   C221      1.0  0.49300  0.09470  0.63100  1.0000 0.6198451105
C   C222      1.0  0.49270  0.12500  0.68250  1.0000 -0.0721216004
C   C223      1.0  0.46090  0.11550  0.73780  1.0000 -0.0785296911
C   C224      1.0  0.46020  0.14410  0.78710  1.0000 -0.1812672184
C   C225      1.0  0.49020  0.18300  0.77740  1.0000 0.0865341266
C   C226      1.0  0.51760  0.19130  0.72010  1.0000 -0.1565258107
C   C227      1.0  0.51930  0.16350  0.67290  1.0000 -0.0871944118
C   C228      1.0  0.49060  0.21570  0.82630  1.0000 0.0031770616
C   C229      1.0  0.48990  0.21390  0.91300  1.0000 0.0231616569
C   C230      1.0  0.48960  0.18300  0.96050  1.0000 -0.1436832216
C   C231      1.0  0.90530  0.39830  0.63100  1.0000 0.6198451105
C   C232      1.0  0.87500  0.36770  0.68250  1.0000 -0.0721216004
C   C233      1.0  0.88450  0.34540  0.73780  1.0000 -0.0785296911
C   C234      1.0  0.85590  0.31610  0.78710  1.0000 -0.1812672184
C   C235      1.0  0.81700  0.30720  0.77740  1.0000 0.0865341266
C   C236      1.0  0.80870  0.32630  0.72010  1.0000 -0.1565258107
C   C237      1.0  0.83650  0.35580  0.67290  1.0000 -0.0871944118
C   C238      1.0  0.78430  0.27490  0.82630  1.0000 0.0031770616
C   C239      1.0  0.78610  0.27600  0.91300  1.0000 0.0231616569
C   C240      1.0  0.81700  0.30660  0.96050  1.0000 -0.1436832216
C   C241      1.0  0.24440  0.48880  0.95570  1.0000 -0.0026448444
C   C242      1.0  0.24540  0.49080  0.78850  1.0000 -0.154865192
C   C243      1.0  0.24440  0.75560  0.95570  1.0000 -0.0026448444
C   C244      1.0  0.24540  0.75460  0.78850  1.0000 -0.154865192
C   C245      1.0  0.51120  0.75560  0.95570  1.0000 -0.0026448444
C   C246      1.0  0.50920  0.75460  0.78850  1.0000 -0.154865192
C   C247      1.0  0.75560  0.51120  0.95570  1.0000 0.0031770616
C   C248      1.0  0.75460  0.50920  0.78850  1.0000 -0.154865192
C   C249      1.0  0.75560  0.24440  0.95570  1.0000 -0.0026448444
C   C250      1.0  0.75460  0.24540  0.78850  1.0000 -0.154865192
C   C251      1.0  0.48880  0.24440  0.95570  1.0000 -0.0026448444
C   C252      1.0  0.49080  0.24540  0.78850  1.0000 -0.154865192
C   C253      1.0  0.75560  0.51120  0.04430  1.0000 -0.0026448444
C   C254      1.0  0.75460  0.50920  0.21150  1.0000 -0.154865192
C   C255      1.0  0.48880  0.24440  0.04430  1.0000 -0.0026448444
C   C256      1.0  0.49080  0.24540  0.21150  1.0000 -0.1565258107
C   C257      1.0  0.75560  0.24440  0.04430  1.0000 -0.0026448444
C   C258      1.0  0.75460  0.24540  0.21150  1.0000 -0.1565258107
C   C259      1.0  0.24440  0.48880  0.04430  1.0000 -0.0026448444
C   C260      1.0  0.24540  0.49080  0.21150  1.0000 -0.154865192
C   C261      1.0  0.51120  0.75560  0.04430  1.0000 -0.0026448444
C   C262      1.0  0.50920  0.75460  0.21150  1.0000 -0.154865192
C   C263      1.0  0.24440  0.75560  0.04430  1.0000 -0.0026448444
C   C264      1.0  0.24540  0.75460  0.21150  1.0000 -0.154865192
O   O1        1.0  0.05854  0.46634  0.65030  1.0000 -0.6493869664
O   O2        1.0  0.10471  0.51791  0.58230  1.0000 -0.5312580582
O   O3        1.0  0.40780  0.94146  0.65030  1.0000 -0.6493869664
O   O4        1.0  0.41320  0.89529  0.58230  1.0000 -0.5312580582
O   O5        1.0  0.53366  0.59220  0.65030  1.0000 -0.6493869664
O   O6        1.0  0.48209  0.58680  0.58230  1.0000 -0.5312580582
O   O7        1.0  0.94146  0.53366  0.65030  1.0000 -0.6493869664
O   O8        1.0  0.89529  0.48209  0.58230  1.0000 -0.5312580582
O   O9        1.0  0.59220  0.05854  0.65030  1.0000 -0.6493869664
O   O10       1.0  0.58680  0.10471  0.58230  1.0000 -0.5312580582
O   O11       1.0  0.46634  0.40780  0.65030  1.0000 -0.6493869664
O   O12       1.0  0.51791  0.41320  0.58230  1.0000 -0.5312580582
O   O13       1.0  0.59220  0.53366  0.34970  1.0000 -0.6493869664
O   O14       1.0  0.58680  0.48209  0.41770  1.0000 -0.5312580582
O   O15       1.0  0.46634  0.05854  0.34970  1.0000 -0.6493869664
O   O16       1.0  0.51791  0.10471  0.41770  1.0000 -0.5312580582
O   O17       1.0  0.94146  0.40780  0.34970  1.0000 -0.6493869664
O   O18       1.0  0.89529  0.41320  0.41770  1.0000 -0.5312580582
O   O19       1.0  0.40780  0.46634  0.34970  1.0000 -0.6493869664
O   O20       1.0  0.41320  0.51791  0.41770  1.0000 -0.5312580582
O   O21       1.0  0.53366  0.94146  0.34970  1.0000 -0.6493869664
O   O22       1.0  0.48209  0.89529  0.41770  1.0000 -0.5312580582
O   O23       1.0  0.05854  0.59220  0.34970  1.0000 -0.6493869664
O   O24       1.0  0.10471  0.58680  0.41770  1.0000 -0.5312580582
O   O25       1.0  0.94146  0.53366  0.34970  1.0000 -0.6493869664
O   O26       1.0  0.89529  0.48209  0.41770  1.0000 -0.5312580582
O   O27       1.0  0.59220  0.05854  0.34970  1.0000 -0.6493869664
O   O28       1.0  0.58680  0.10471  0.41770  1.0000 -0.5312580582
O   O29       1.0  0.46634  0.40780  0.34970  1.0000 -0.6493869664
O   O30       1.0  0.51791  0.41320  0.41770  1.0000 -0.5312580582
O   O31       1.0  0.05854  0.46634  0.34970  1.0000 -0.6493869664
O   O32       1.0  0.10471  0.51791  0.41770  1.0000 -0.5312580582
O   O33       1.0  0.40780  0.94146  0.34970  1.0000 -0.6493869664
O   O34       1.0  0.41320  0.89529  0.41770  1.0000 -0.5312580582
O   O35       1.0  0.53366  0.59220  0.34970  1.0000 -0.6493869664
O   O36       1.0  0.48209  0.58680  0.41770  1.0000 -0.5312580582
O   O37       1.0  0.40780  0.46634  0.65030  1.0000 -0.6493869664
O   O38       1.0  0.41320  0.51791  0.58230  1.0000 -0.5312580582
O   O39       1.0  0.53366  0.94146  0.65030  1.0000 -0.6493869664
O   O40       1.0  0.48209  0.89529  0.58230  1.0000 -0.5312580582
O   O41       1.0  0.05854  0.59220  0.65030  1.0000 -0.6493869664
O   O42       1.0  0.10471  0.58680  0.58230  1.0000 -0.5312580582
O   O43       1.0  0.59220  0.53366  0.65030  1.0000 -0.6493869664
O   O44       1.0  0.58680  0.48209  0.58230  1.0000 -0.5312580582
O   O45       1.0  0.46634  0.05854  0.65030  1.0000 -0.6493869664
O   O46       1.0  0.51791  0.10471  0.58230  1.0000 -0.5312580582
O   O47       1.0  0.94146  0.40780  0.65030  1.0000 -0.6493869664
O   O48       1.0  0.89529  0.41320  0.58230  1.0000 -0.5312580582
O   O49       1.0  0.03660  0.46880  0.50000  1.0000 -1.2009262549
O   O50       1.0  0.43220  0.96340  0.50000  1.0000 -1.2091679015
O   O51       1.0  0.53120  0.56780  0.50000  1.0000 -1.2091679015
O   O52       1.0  0.96340  0.53120  0.50000  1.0000 -1.2009262549
O   O53       1.0  0.56780  0.03660  0.50000  1.0000 -1.2091679015
O   O54       1.0  0.46880  0.43220  0.50000  1.0000 -1.2091679015
O   O55       1.0  0.56780  0.53120  0.50000  1.0000 -1.2009262549
O   O56       1.0  0.46880  0.03660  0.50000  1.0000 -1.2091679015
O   O57       1.0  0.96340  0.43220  0.50000  1.0000 -1.2009262549
O   O58       1.0  0.43220  0.46880  0.50000  1.0000 -1.2091679015
O   O59       1.0  0.53120  0.96340  0.50000  1.0000 -1.2091679015
O   O60       1.0  0.03660  0.56780  0.50000  1.0000 -1.2009262549
O   O61       1.0  0.03360  0.51680  0.60930  1.0000 -1.1893792218
O   O62       1.0  0.48320  0.96640  0.60930  1.0000 -1.184829043
O   O63       1.0  0.48320  0.51680  0.60930  1.0000 -1.184829043
O   O64       1.0  0.96640  0.48320  0.60930  1.0000 -1.1893792218
O   O65       1.0  0.51680  0.03360  0.60930  1.0000 -1.184829043
O   O66       1.0  0.51680  0.48320  0.60930  1.0000 -1.1893792218
O   O67       1.0  0.51680  0.48320  0.39070  1.0000 -1.1893792218
O   O68       1.0  0.51680  0.03360  0.39070  1.0000 -1.184829043
O   O69       1.0  0.96640  0.48320  0.39070  1.0000 -1.1893792218
O   O70       1.0  0.48320  0.51680  0.39070  1.0000 -1.184829043
O   O71       1.0  0.48320  0.96640  0.39070  1.0000 -1.184829043
O   O72       1.0  0.03360  0.51680  0.39070  1.0000 -1.1893792218
