# DDEC6 charges by PACMAN v1.1 (https://github.com/mtap-research/PACMAN-charge/)
data_2020[Zn][nan]3[ASR]55
_chemical_formula_sum              "Zn12 H192 C288 N80 O72"
_cell_length_a       44.077
_cell_length_b       41.3781
_cell_length_c       18.3904
_cell_angle_alpha    85.9469
_cell_angle_beta     69.4589
_cell_angle_gamma    24.5942

_symmetry_space_group_name_H-M    "P 1"
_symmetry_Int_Tables_number       1

loop_
  _symmetry_equiv_pos_as_xyz
  'x, y, z'

loop_
  _atom_site_type_symbol
  _atom_site_label
  _atom_site_symmetry_multiplicity
  _atom_site_fract_x
  _atom_site_fract_y
  _atom_site_fract_z
  _atom_site_occupancy
  _atom_site_charge
Zn  Zn1       1.0  0.42461  0.79253  0.75149  1.0000 0.7807726097
Zn  Zn2       1.0  0.79253  0.42461  0.03137  1.0000 0.7807726097
Zn  Zn3       1.0  0.75149  0.03137  0.42461  1.0000 0.7807726097
Zn  Zn4       1.0  0.03137  0.75149  0.79253  1.0000 0.7807726097
Zn  Zn5       1.0  0.82539  0.45747  0.49851  1.0000 0.7807726097
Zn  Zn6       1.0  0.45747  0.82539  0.21863  1.0000 0.7807726097
Zn  Zn7       1.0  0.49851  0.21863  0.82539  1.0000 0.7807726097
Zn  Zn8       1.0  0.21863  0.49851  0.45747  1.0000 0.7807726097
Zn  Zn9       1.0  0.45821  0.45821  0.04179  1.0000 0.7584440391
Zn  Zn10      1.0  0.04179  0.04179  0.45821  1.0000 0.7584440391
Zn  Zn11      1.0  0.79179  0.79179  0.20821  1.0000 0.7584440391
Zn  Zn12      1.0  0.20821  0.20821  0.79179  1.0000 0.7584440391
H   H1        1.0  0.96186  0.20954  0.39070  1.0000 0.3487480339
H   H2        1.0  0.52462  0.61670  0.82564  1.0000 0.339834394
H   H3        1.0  0.10747  0.13787  0.96667  1.0000 0.339834394
H   H4        1.0  0.74359  0.45503  0.51717  1.0000 0.1485121805
H   H5        1.0  0.73674  0.37262  0.69288  1.0000 0.1378554903
H   H6        1.0  0.95964  0.29594  0.20738  1.0000 0.1378554903
H   H7        1.0  0.36379  0.77279  0.81423  1.0000 0.1212410005
H   H8        1.0  0.25513  0.94335  0.75129  1.0000 0.1298481133
H   H9        1.0  0.16594  0.92532  0.77724  1.0000 0.1378554903
H   H10       1.0  0.04333  0.03249  0.77467  1.0000 0.1212410005
H   H11       1.0  0.97560  0.19258  0.80636  1.0000 0.1298481133
H   H12       1.0  0.09893  0.08461  0.80801  1.0000 0.1212410005
H   H13       1.0  0.57737  0.34585  0.11551  1.0000 0.1298481133
H   H14       1.0  0.59452  0.39300  0.93592  1.0000 0.1212410005
H   H15       1.0  0.75634  0.26422  0.02776  1.0000 0.1378554903
H   H16       1.0  0.86283  0.20905  0.94815  1.0000 0.1298481133
H   H17       1.0  0.83587  0.24221  0.74683  1.0000 0.1378554903
H   H18       1.0  0.72948  0.29766  0.82646  1.0000 0.1212410005
H   H19       1.0  0.64875  0.60237  0.73149  1.0000 0.1298481133
H   H20       1.0  0.92018  0.30786  0.53710  1.0000 0.1298481133
H   H21       1.0  0.97697  0.21469  0.57715  1.0000 0.1298481133
H   H22       1.0  0.02600  0.12400  0.62120  1.0000 0.1378554903
H   H23       1.0  0.74413  0.38335  0.89497  1.0000 0.1298481133
H   H24       1.0  0.69422  0.47518  0.85366  1.0000 0.1378554903
H   H25       1.0  0.20954  0.96186  0.43790  1.0000 0.3487480339
H   H26       1.0  0.61670  0.52462  0.03304  1.0000 0.339834394
H   H27       1.0  0.13787  0.10747  0.78799  1.0000 0.339834394
H   H28       1.0  0.45503  0.74359  0.28421  1.0000 0.1485121805
H   H29       1.0  0.37262  0.73674  0.19776  1.0000 0.1378554903
H   H30       1.0  0.29594  0.95964  0.53704  1.0000 0.1378554903
H   H31       1.0  0.77279  0.36379  0.04919  1.0000 0.1212410005
H   H32       1.0  0.94335  0.25513  0.05023  1.0000 0.1298481133
H   H33       1.0  0.92532  0.16595  0.13150  1.0000 0.1378554903
H   H34       1.0  0.03249  0.04333  0.14951  1.0000 0.1212410005
H   H35       1.0  0.19258  0.97560  0.02546  1.0000 0.1298481133
H   H36       1.0  0.08461  0.09893  0.00845  1.0000 0.1212410005
H   H37       1.0  0.34585  0.57737  0.96127  1.0000 0.1298481133
H   H38       1.0  0.39300  0.59452  0.07656  1.0000 0.1212410005
H   H39       1.0  0.26422  0.75634  0.95168  1.0000 0.1378554903
H   H40       1.0  0.20905  0.86283  0.97996  1.0000 0.1298481133
H   H41       1.0  0.24221  0.83587  0.17509  1.0000 0.1378554903
H   H42       1.0  0.29766  0.72948  0.14640  1.0000 0.1212410005
H   H43       1.0  0.60237  0.64875  0.01739  1.0000 0.1298481133
H   H44       1.0  0.30786  0.92018  0.23486  1.0000 0.1298481133
H   H45       1.0  0.21469  0.97697  0.23119  1.0000 0.1298481133
H   H46       1.0  0.12400  0.02600  0.22880  1.0000 0.1378554903
H   H47       1.0  0.38335  0.74413  0.97755  1.0000 0.1298481133
H   H48       1.0  0.47518  0.69422  0.97694  1.0000 0.1378554903
H   H49       1.0  0.39070  0.43790  0.96186  1.0000 0.3487480339
H   H50       1.0  0.82564  0.03304  0.52462  1.0000 0.339834394
H   H51       1.0  0.96667  0.78799  0.10747  1.0000 0.339834394
H   H52       1.0  0.51717  0.28421  0.74359  1.0000 0.1485121805
H   H53       1.0  0.69288  0.19776  0.73674  1.0000 0.1378554903
H   H54       1.0  0.20738  0.53704  0.95964  1.0000 0.1378554903
H   H55       1.0  0.81423  0.04919  0.36379  1.0000 0.1212410005
H   H56       1.0  0.75129  0.05023  0.25513  1.0000 0.1298481133
H   H57       1.0  0.77723  0.13150  0.16595  1.0000 0.1378554903
H   H58       1.0  0.77467  0.14951  0.04333  1.0000 0.1212410005
H   H59       1.0  0.80636  0.02546  0.97560  1.0000 0.1298481133
H   H60       1.0  0.80801  0.00845  0.09893  1.0000 0.1212410005
H   H61       1.0  0.11551  0.96127  0.57737  1.0000 0.1298481133
H   H62       1.0  0.93592  0.07656  0.59452  1.0000 0.1212410005
H   H63       1.0  0.02776  0.95168  0.75634  1.0000 0.1378554903
H   H64       1.0  0.94815  0.97996  0.86284  1.0000 0.1298481133
H   H65       1.0  0.74683  0.17509  0.83587  1.0000 0.1378554903
H   H66       1.0  0.82646  0.14640  0.72948  1.0000 0.1212410005
H   H67       1.0  0.73149  0.01739  0.64875  1.0000 0.1298481133
H   H68       1.0  0.53710  0.23486  0.92018  1.0000 0.1298481133
H   H69       1.0  0.57715  0.23119  0.97697  1.0000 0.1298481133
H   H70       1.0  0.62120  0.22880  0.02600  1.0000 0.1378554903
H   H71       1.0  0.89497  0.97755  0.74413  1.0000 0.1298481133
H   H72       1.0  0.85366  0.97694  0.69422  1.0000 0.1378554903
H   H73       1.0  0.43790  0.39070  0.20954  1.0000 0.3487480339
H   H74       1.0  0.03304  0.82564  0.61670  1.0000 0.339834394
H   H75       1.0  0.78799  0.96667  0.13787  1.0000 0.339834394
H   H76       1.0  0.28421  0.51717  0.45503  1.0000 0.1485121805
H   H77       1.0  0.19776  0.69288  0.37262  1.0000 0.1378554903
H   H78       1.0  0.53704  0.20738  0.29594  1.0000 0.1378554903
H   H79       1.0  0.04919  0.81423  0.77279  1.0000 0.1212410005
H   H80       1.0  0.05023  0.75129  0.94335  1.0000 0.1298481133
H   H81       1.0  0.13150  0.77724  0.92532  1.0000 0.1378554903
H   H82       1.0  0.14951  0.77467  0.03249  1.0000 0.1212410005
H   H83       1.0  0.02546  0.80636  0.19258  1.0000 0.1298481133
H   H84       1.0  0.00845  0.80801  0.08461  1.0000 0.1212410005
H   H85       1.0  0.96127  0.11551  0.34585  1.0000 0.1298481133
H   H86       1.0  0.07656  0.93592  0.39300  1.0000 0.1212410005
H   H87       1.0  0.95168  0.02776  0.26422  1.0000 0.1378554903
H   H88       1.0  0.97996  0.94815  0.20905  1.0000 0.1298481133
H   H89       1.0  0.17509  0.74683  0.24221  1.0000 0.1378554903
H   H90       1.0  0.14640  0.82646  0.29766  1.0000 0.1212410005
H   H91       1.0  0.01739  0.73149  0.60237  1.0000 0.1298481133
H   H92       1.0  0.23486  0.53710  0.30786  1.0000 0.1298481133
H   H93       1.0  0.23119  0.57715  0.21469  1.0000 0.1298481133
H   H94       1.0  0.22880  0.62120  0.12400  1.0000 0.1378554903
H   H95       1.0  0.97755  0.89497  0.38335  1.0000 0.1298481133
H   H96       1.0  0.97694  0.85366  0.47518  1.0000 0.1298481133
H   H97       1.0  0.28814  0.04046  0.85930  1.0000 0.3487480339
H   H98       1.0  0.72538  0.63330  0.42436  1.0000 0.339834394
H   H99       1.0  0.14253  0.11213  0.28333  1.0000 0.339834394
H   H100      1.0  0.50641  0.79497  0.73283  1.0000 0.1485121805
H   H101      1.0  0.51326  0.87738  0.55712  1.0000 0.1378554903
H   H102      1.0  0.29036  0.95406  0.04262  1.0000 0.1378554903
H   H103      1.0  0.88621  0.47721  0.43577  1.0000 0.1212410005
H   H104      1.0  0.99487  0.30665  0.49871  1.0000 0.1298481133
H   H105      1.0  0.08406  0.32467  0.47276  1.0000 0.1378554903
H   H106      1.0  0.20667  0.21751  0.47533  1.0000 0.1212410005
H   H107      1.0  0.27440  0.05742  0.44364  1.0000 0.1298481133
H   H108      1.0  0.15107  0.16539  0.44199  1.0000 0.1212410005
H   H109      1.0  0.67263  0.90415  0.13449  1.0000 0.1298481133
H   H110      1.0  0.65548  0.85700  0.31408  1.0000 0.1212410005
H   H111      1.0  0.49366  0.98578  0.22224  1.0000 0.1378554903
H   H112      1.0  0.38716  0.04095  0.30184  1.0000 0.1298481133
H   H113      1.0  0.41413  0.00779  0.50317  1.0000 0.1378554903
H   H114      1.0  0.52052  0.95234  0.42354  1.0000 0.1212410005
H   H115      1.0  0.60125  0.64763  0.51851  1.0000 0.1298481133
H   H116      1.0  0.32982  0.94214  0.71290  1.0000 0.1298481133
H   H117      1.0  0.27303  0.03531  0.67285  1.0000 0.1298481133
H   H118      1.0  0.22400  0.12600  0.62880  1.0000 0.1378554903
H   H119      1.0  0.50587  0.86665  0.35503  1.0000 0.1298481133
H   H120      1.0  0.55578  0.77482  0.39634  1.0000 0.1378554903
H   H121      1.0  0.04046  0.28814  0.81210  1.0000 0.3487480339
H   H122      1.0  0.63330  0.72538  0.21696  1.0000 0.339834394
H   H123      1.0  0.11213  0.14253  0.46201  1.0000 0.339834394
H   H124      1.0  0.79497  0.50641  0.96579  1.0000 0.1485121805
H   H125      1.0  0.87738  0.51326  0.05224  1.0000 0.1378554903
H   H126      1.0  0.95406  0.29036  0.71296  1.0000 0.1378554903
H   H127      1.0  0.47721  0.88621  0.20081  1.0000 0.1212410005
H   H128      1.0  0.30665  0.99487  0.19977  1.0000 0.1298481133
H   H129      1.0  0.32467  0.08406  0.11850  1.0000 0.1378554903
H   H130      1.0  0.21751  0.20667  0.10049  1.0000 0.1212410005
H   H131      1.0  0.05742  0.27440  0.22454  1.0000 0.1298481133
H   H132      1.0  0.16539  0.15107  0.24155  1.0000 0.1212410005
H   H133      1.0  0.90415  0.67263  0.28873  1.0000 0.1298481133
H   H134      1.0  0.85700  0.65548  0.17344  1.0000 0.1212410005
H   H135      1.0  0.98578  0.49366  0.29832  1.0000 0.1378554903
H   H136      1.0  0.04095  0.38716  0.27004  1.0000 0.1298481133
H   H137      1.0  0.00779  0.41413  0.07491  1.0000 0.1378554903
H   H138      1.0  0.95234  0.52052  0.10360  1.0000 0.1212410005
H   H139      1.0  0.64763  0.60125  0.23261  1.0000 0.1298481133
H   H140      1.0  0.94214  0.32982  0.01514  1.0000 0.1298481133
H   H141      1.0  0.03531  0.27303  0.01881  1.0000 0.1298481133
H   H142      1.0  0.12600  0.22400  0.02120  1.0000 0.1378554903
H   H143      1.0  0.86665  0.50587  0.27245  1.0000 0.1298481133
H   H144      1.0  0.77482  0.55578  0.27306  1.0000 0.1378554903
H   H145      1.0  0.85930  0.81210  0.28814  1.0000 0.3487480339
H   H146      1.0  0.42436  0.21696  0.72538  1.0000 0.339834394
H   H147      1.0  0.28333  0.46201  0.14253  1.0000 0.339834394
H   H148      1.0  0.73283  0.96579  0.50641  1.0000 0.1485121805
H   H149      1.0  0.55712  0.05224  0.51326  1.0000 0.1378554903
H   H150      1.0  0.04262  0.71296  0.29036  1.0000 0.1378554903
H   H151      1.0  0.43577  0.20081  0.88621  1.0000 0.1212410005
H   H152      1.0  0.49871  0.19977  0.99487  1.0000 0.1298481133
H   H153      1.0  0.47276  0.11850  0.08406  1.0000 0.1378554903
H   H154      1.0  0.47533  0.10049  0.20667  1.0000 0.1212410005
H   H155      1.0  0.44364  0.22454  0.27440  1.0000 0.1298481133
H   H156      1.0  0.44199  0.24155  0.15107  1.0000 0.1212410005
H   H157      1.0  0.13449  0.28873  0.67263  1.0000 0.1298481133
H   H158      1.0  0.31408  0.17344  0.65548  1.0000 0.1212410005
H   H159      1.0  0.22224  0.29832  0.49366  1.0000 0.1378554903
H   H160      1.0  0.30184  0.27004  0.38716  1.0000 0.1298481133
H   H161      1.0  0.50317  0.07491  0.41413  1.0000 0.1378554903
H   H162      1.0  0.42354  0.10360  0.52052  1.0000 0.1212410005
H   H163      1.0  0.51851  0.23261  0.60125  1.0000 0.1298481133
H   H164      1.0  0.71290  0.01514  0.32982  1.0000 0.1298481133
H   H165      1.0  0.67285  0.01881  0.27303  1.0000 0.1298481133
H   H166      1.0  0.62880  0.02120  0.22400  1.0000 0.1378554903
H   H167      1.0  0.35503  0.27245  0.50587  1.0000 0.1298481133
H   H168      1.0  0.39634  0.27306  0.55578  1.0000 0.1298481133
H   H169      1.0  0.81210  0.85930  0.04046  1.0000 0.3487480339
H   H170      1.0  0.21696  0.42436  0.63330  1.0000 0.339834394
H   H171      1.0  0.46201  0.28333  0.11213  1.0000 0.339834394
H   H172      1.0  0.96579  0.73283  0.79497  1.0000 0.1485121805
H   H173      1.0  0.05224  0.55712  0.87738  1.0000 0.1378554903
H   H174      1.0  0.71296  0.04262  0.95406  1.0000 0.1378554903
H   H175      1.0  0.20081  0.43577  0.47721  1.0000 0.1212410005
H   H176      1.0  0.19977  0.49871  0.30665  1.0000 0.1298481133
H   H177      1.0  0.11850  0.47276  0.32467  1.0000 0.1378554903
H   H178      1.0  0.10049  0.47533  0.21751  1.0000 0.1212410005
H   H179      1.0  0.22454  0.44364  0.05742  1.0000 0.1298481133
H   H180      1.0  0.24155  0.44199  0.16539  1.0000 0.1212410005
H   H181      1.0  0.28873  0.13449  0.90415  1.0000 0.1298481133
H   H182      1.0  0.17344  0.31408  0.85700  1.0000 0.1212410005
H   H183      1.0  0.29832  0.22224  0.98578  1.0000 0.1378554903
H   H184      1.0  0.27004  0.30184  0.04095  1.0000 0.1298481133
H   H185      1.0  0.07491  0.50317  0.00779  1.0000 0.1378554903
H   H186      1.0  0.10360  0.42354  0.95234  1.0000 0.1212410005
H   H187      1.0  0.23261  0.51851  0.64763  1.0000 0.1298481133
H   H188      1.0  0.01514  0.71290  0.94214  1.0000 0.1298481133
H   H189      1.0  0.01881  0.67285  0.03531  1.0000 0.1298481133
H   H190      1.0  0.02120  0.62880  0.12600  1.0000 0.1378554903
H   H191      1.0  0.27245  0.35503  0.86665  1.0000 0.1298481133
H   H192      1.0  0.27306  0.39634  0.77482  1.0000 0.1298481133
C   C1        1.0  0.82467  0.31443  0.55757  1.0000 -0.1406901224
C   C2        1.0  0.82806  0.33788  0.50552  1.0000 0.255056141
C   C3        1.0  0.74230  0.43838  0.55342  1.0000 -0.1995886732
C   C4        1.0  0.65585  0.51353  0.65287  1.0000 -0.1406901224
C   C5        1.0  0.65408  0.48882  0.70638  1.0000 0.270577794
C   C6        1.0  0.73837  0.38935  0.65745  1.0000 -0.2113803644
C   C7        1.0  0.91381  0.20799  0.50581  1.0000 0.5601830762
C   C8        1.0  0.56381  0.62107  0.70593  1.0000 0.5711973738
C   C9        1.0  0.19290  0.05226  0.02454  1.0000 -0.1505446476
C   C10       1.0  0.09314  0.15524  0.07436  1.0000 0.2501309794
C   C11       1.0  0.02687  0.22639  0.17381  1.0000 -0.2113803644
C   C12       1.0  0.26498  0.97424  0.91776  1.0000 0.5711973738
C   C13       1.0  0.32465  0.82041  0.80339  1.0000 0.1485121805
C   C14       1.0  0.26765  0.91133  0.76907  1.0000 0.1023629503
C   C15       1.0  0.14416  0.99476  0.79164  1.0000 0.1298481133
C   C16       1.0  0.12748  0.97934  0.78266  1.0000 -0.1505446476
C   C17       1.0  0.05430  0.04336  0.78184  1.0000 -0.1825799346
C   C18       1.0  0.99659  0.12377  0.79123  1.0000 0.1857868974
C   C19       1.0  0.01410  0.13846  0.80054  1.0000 -0.1687032971
C   C20       1.0  0.08744  0.07428  0.80112  1.0000 -0.1687032971
C   C21       1.0  0.59612  0.34664  0.07216  1.0000 0.1378554903
C   C22       1.0  0.60436  0.37240  0.97540  1.0000 0.0401959992
C   C23       1.0  0.73450  0.28532  0.93328  1.0000 0.1212410005
C   C24       1.0  0.77263  0.25973  0.97087  1.0000 -0.1505446476
C   C25       1.0  0.83590  0.22688  0.92332  1.0000 -0.1687032971
C   C26       1.0  0.85936  0.22040  0.84020  1.0000 0.1736213546
C   C27       1.0  0.81974  0.24674  0.80386  1.0000 -0.1581347491
C   C28       1.0  0.75679  0.27953  0.85087  1.0000 -0.1896930728
C   C29       1.0  0.70577  0.53505  0.70335  1.0000 0.1485121805
C   C30       1.0  0.85266  0.37626  0.59694  1.0000 0.1023629503
C   C31       1.0  0.83155  0.35297  0.71203  1.0000 0.1298481133
C   C32       1.0  0.92969  0.24911  0.64249  1.0000 -0.1581347491
C   C33       1.0  0.95857  0.19555  0.66885  1.0000 -0.1406901224
C   C34       1.0  0.88999  0.24547  0.76393  1.0000 0.1625053137
C   C35       1.0  0.79215  0.34879  0.83061  1.0000 -0.1505446476
C   C36       1.0  0.76197  0.40361  0.80619  1.0000 -0.120780902
C   C37       1.0  0.31443  0.82467  0.30333  1.0000 -0.1406901224
C   C38       1.0  0.33788  0.82806  0.32854  1.0000 0.255056141
C   C39       1.0  0.43838  0.74230  0.26590  1.0000 -0.1995886732
C   C40       1.0  0.51353  0.65585  0.17775  1.0000 -0.1406901224
C   C41       1.0  0.48882  0.65408  0.15072  1.0000 0.270577794
C   C42       1.0  0.38935  0.73837  0.21483  1.0000 -0.2113803644
C   C43       1.0  0.20799  0.91381  0.37239  1.0000 0.5601830762
C   C44       1.0  0.62107  0.56381  0.10919  1.0000 0.5711973738
C   C45       1.0  0.05226  0.19290  0.73030  1.0000 -0.1505446476
C   C46       1.0  0.15524  0.09314  0.67726  1.0000 0.2501309794
C   C47       1.0  0.22639  0.02687  0.57293  1.0000 -0.2113803644
C   C48       1.0  0.97424  0.26498  0.84302  1.0000 0.5711973738
C   C49       1.0  0.82041  0.32465  0.05155  1.0000 0.1485121805
C   C50       1.0  0.91133  0.26765  0.05195  1.0000 0.1023629503
C   C51       1.0  0.99476  0.14416  0.06944  1.0000 0.1298481133
C   C52       1.0  0.97934  0.12748  0.11052  1.0000 -0.1505446476
C   C53       1.0  0.04336  0.05430  0.12050  1.0000 -0.1825799346
C   C54       1.0  0.12377  0.99659  0.08841  1.0000 0.1857868974
C   C55       1.0  0.13846  0.01410  0.04690  1.0000 -0.1687032971
C   C56       1.0  0.07428  0.08744  0.03716  1.0000 -0.1687032971
C   C57       1.0  0.34664  0.59612  0.98508  1.0000 0.1378554903
C   C58       1.0  0.37240  0.60436  0.04784  1.0000 0.0401959992
C   C59       1.0  0.28532  0.73450  0.04690  1.0000 0.1212410005
C   C60       1.0  0.25973  0.77263  0.99677  1.0000 -0.1505446476
C   C61       1.0  0.22688  0.83590  0.01390  1.0000 -0.1687032971
C   C62       1.0  0.22040  0.85936  0.08004  1.0000 0.1736213546
C   C63       1.0  0.24674  0.81974  0.12966  1.0000 -0.1581347491
C   C64       1.0  0.27953  0.75679  0.11281  1.0000 -0.1896930728
C   C65       1.0  0.53505  0.70577  0.05583  1.0000 0.1485121805
C   C66       1.0  0.37626  0.85266  0.17414  1.0000 0.1023629503
C   C67       1.0  0.35297  0.83155  0.10345  1.0000 0.1298481133
C   C68       1.0  0.24911  0.92969  0.17871  1.0000 -0.1581347491
C   C69       1.0  0.19555  0.95857  0.17703  1.0000 -0.1406901224
C   C70       1.0  0.24547  0.88999  0.10061  1.0000 0.1625053137
C   C71       1.0  0.34879  0.79215  0.02845  1.0000 -0.1505446476
C   C72       1.0  0.40361  0.76197  0.02823  1.0000 -0.120780902
C   C73       1.0  0.55757  0.30333  0.82467  1.0000 -0.1406901224
C   C74       1.0  0.50552  0.32854  0.82806  1.0000 0.255056141
C   C75       1.0  0.55342  0.26590  0.74230  1.0000 -0.1995886732
C   C76       1.0  0.65287  0.17775  0.65585  1.0000 -0.1406901224
C   C77       1.0  0.70638  0.15072  0.65408  1.0000 0.270577794
C   C78       1.0  0.65745  0.21483  0.73837  1.0000 -0.2113803644
C   C79       1.0  0.50581  0.37239  0.91381  1.0000 0.5601830762
C   C80       1.0  0.70593  0.10919  0.56381  1.0000 0.5711973738
C   C81       1.0  0.02454  0.73030  0.19290  1.0000 -0.1505446476
C   C82       1.0  0.07436  0.67726  0.09314  1.0000 0.2501309794
C   C83       1.0  0.17381  0.57293  0.02687  1.0000 -0.2113803644
C   C84       1.0  0.91776  0.84302  0.26498  1.0000 0.5711973738
C   C85       1.0  0.80339  0.05155  0.32465  1.0000 0.1485121805
C   C86       1.0  0.76907  0.05195  0.26765  1.0000 0.1023629503
C   C87       1.0  0.79164  0.06944  0.14416  1.0000 0.1298481133
C   C88       1.0  0.78266  0.11052  0.12748  1.0000 -0.1505446476
C   C89       1.0  0.78184  0.12050  0.05430  1.0000 -0.1825799346
C   C90       1.0  0.79123  0.08841  0.99659  1.0000 0.1857868974
C   C91       1.0  0.80054  0.04690  0.01410  1.0000 -0.1687032971
C   C92       1.0  0.80112  0.03716  0.08744  1.0000 -0.1687032971
C   C93       1.0  0.07216  0.98508  0.59612  1.0000 0.1378554903
C   C94       1.0  0.97540  0.04784  0.60436  1.0000 0.0401959992
C   C95       1.0  0.93328  0.04690  0.73450  1.0000 0.1212410005
C   C96       1.0  0.97087  0.99677  0.77263  1.0000 -0.1505446476
C   C97       1.0  0.92332  0.01390  0.83590  1.0000 -0.1687032971
C   C98       1.0  0.84020  0.08004  0.85936  1.0000 0.1736213546
C   C99       1.0  0.80386  0.12966  0.81974  1.0000 -0.1581347491
C   C100      1.0  0.85087  0.11281  0.75679  1.0000 -0.1896930728
C   C101      1.0  0.70335  0.05583  0.70577  1.0000 0.1485121805
C   C102      1.0  0.59694  0.17414  0.85266  1.0000 0.1023629503
C   C103      1.0  0.71203  0.10345  0.83155  1.0000 0.1298481133
C   C104      1.0  0.64249  0.17871  0.92969  1.0000 -0.1581347491
C   C105      1.0  0.66885  0.17703  0.95857  1.0000 -0.1406901224
C   C106      1.0  0.76393  0.10061  0.88999  1.0000 0.1625053137
C   C107      1.0  0.83061  0.02845  0.79215  1.0000 -0.1505446476
C   C108      1.0  0.80619  0.02823  0.76197  1.0000 -0.120780902
C   C109      1.0  0.30333  0.55757  0.31443  1.0000 -0.1406901224
C   C110      1.0  0.32854  0.50552  0.33788  1.0000 0.255056141
C   C111      1.0  0.26590  0.55342  0.43838  1.0000 -0.1995886732
C   C112      1.0  0.17775  0.65287  0.51353  1.0000 -0.1406901224
C   C113      1.0  0.15072  0.70638  0.48882  1.0000 0.270577794
C   C114      1.0  0.21483  0.65745  0.38935  1.0000 -0.2113803644
C   C115      1.0  0.37239  0.50581  0.20799  1.0000 0.5601830762
C   C116      1.0  0.10919  0.70593  0.62107  1.0000 0.5711973738
C   C117      1.0  0.73030  0.02454  0.05226  1.0000 -0.1505446476
C   C118      1.0  0.67726  0.07436  0.15524  1.0000 0.2501309794
C   C119      1.0  0.57293  0.17381  0.22639  1.0000 -0.2113803644
C   C120      1.0  0.84302  0.91776  0.97424  1.0000 0.5711973738
C   C121      1.0  0.05155  0.80339  0.82041  1.0000 0.1485121805
C   C122      1.0  0.05195  0.76907  0.91133  1.0000 0.1023629503
C   C123      1.0  0.06944  0.79164  0.99476  1.0000 0.1298481133
C   C124      1.0  0.11052  0.78266  0.97934  1.0000 -0.1505446476
C   C125      1.0  0.12050  0.78184  0.04336  1.0000 -0.1825799346
C   C126      1.0  0.08841  0.79123  0.12377  1.0000 0.1857868974
C   C127      1.0  0.04690  0.80054  0.13846  1.0000 -0.1687032971
C   C128      1.0  0.03716  0.80112  0.07428  1.0000 -0.1687032971
C   C129      1.0  0.98508  0.07216  0.34664  1.0000 0.1378554903
C   C130      1.0  0.04784  0.97540  0.37240  1.0000 0.0401959992
C   C131      1.0  0.04690  0.93328  0.28532  1.0000 0.1212410005
C   C132      1.0  0.99677  0.97087  0.25973  1.0000 -0.1505446476
C   C133      1.0  0.01390  0.92332  0.22688  1.0000 -0.1687032971
C   C134      1.0  0.08004  0.84020  0.22040  1.0000 0.1736213546
C   C135      1.0  0.12966  0.80386  0.24674  1.0000 -0.1581347491
C   C136      1.0  0.11281  0.85087  0.27953  1.0000 -0.1896930728
C   C137      1.0  0.05583  0.70335  0.53505  1.0000 0.1485121805
C   C138      1.0  0.17414  0.59694  0.37626  1.0000 0.1023629503
C   C139      1.0  0.10345  0.71203  0.35297  1.0000 0.1298481133
C   C140      1.0  0.17871  0.64249  0.24911  1.0000 -0.1581347491
C   C141      1.0  0.17703  0.66885  0.19555  1.0000 -0.1406901224
C   C142      1.0  0.10061  0.76393  0.24547  1.0000 0.1625053137
C   C143      1.0  0.02845  0.83061  0.34879  1.0000 -0.1505446476
C   C144      1.0  0.02823  0.80619  0.40361  1.0000 -0.120780902
C   C145      1.0  0.42533  0.93557  0.69243  1.0000 -0.1406901224
C   C146      1.0  0.42194  0.91212  0.74448  1.0000 0.255056141
C   C147      1.0  0.50770  0.81162  0.69658  1.0000 -0.1995886732
C   C148      1.0  0.59415  0.73647  0.59713  1.0000 -0.1406901224
C   C149      1.0  0.59592  0.76118  0.54362  1.0000 0.270577794
C   C150      1.0  0.51163  0.86065  0.59255  1.0000 -0.2113803644
C   C151      1.0  0.33619  0.04201  0.74419  1.0000 0.5601830762
C   C152      1.0  0.68619  0.62893  0.54407  1.0000 0.5711973738
C   C153      1.0  0.05710  0.19774  0.22546  1.0000 -0.1505446476
C   C154      1.0  0.15686  0.09476  0.17564  1.0000 0.2501309794
C   C155      1.0  0.22313  0.02361  0.07619  1.0000 -0.2113803644
C   C156      1.0  0.98502  0.27576  0.33224  1.0000 0.5711973738
C   C157      1.0  0.92535  0.42959  0.44661  1.0000 0.1485121805
C   C158      1.0  0.98235  0.33867  0.48093  1.0000 0.1023629503
C   C159      1.0  0.10584  0.25524  0.45836  1.0000 0.1298481133
C   C160      1.0  0.12252  0.27066  0.46734  1.0000 -0.1505446476
C   C161      1.0  0.19570  0.20664  0.46816  1.0000 -0.1825799346
C   C162      1.0  0.25341  0.12623  0.45877  1.0000 0.1857868974
C   C163      1.0  0.23590  0.11154  0.44946  1.0000 -0.1687032971
C   C164      1.0  0.16256  0.17572  0.44888  1.0000 -0.1687032971
C   C165      1.0  0.65388  0.90336  0.17784  1.0000 0.1378554903
C   C166      1.0  0.64564  0.87760  0.27460  1.0000 0.0401959992
C   C167      1.0  0.51550  0.96468  0.31672  1.0000 0.1212410005
C   C168      1.0  0.47737  0.99027  0.27913  1.0000 -0.1505446476
C   C169      1.0  0.41410  0.02312  0.32668  1.0000 -0.1687032971
C   C170      1.0  0.39064  0.02960  0.40980  1.0000 0.1736213546
C   C171      1.0  0.43026  0.00326  0.44614  1.0000 -0.1581347491
C   C172      1.0  0.49321  0.97047  0.39913  1.0000 -0.1896930728
C   C173      1.0  0.54423  0.71495  0.54665  1.0000 0.1485121805
C   C174      1.0  0.39734  0.87374  0.65306  1.0000 0.1023629503
C   C175      1.0  0.41845  0.89703  0.53797  1.0000 0.1298481133
C   C176      1.0  0.32031  0.00089  0.60751  1.0000 -0.1581347491
C   C177      1.0  0.29143  0.05445  0.58115  1.0000 -0.1406901224
C   C178      1.0  0.36001  0.00453  0.48607  1.0000 0.1625053137
C   C179      1.0  0.45785  0.90121  0.41939  1.0000 -0.1505446476
C   C180      1.0  0.48803  0.84639  0.44381  1.0000 -0.120780902
C   C181      1.0  0.93557  0.42533  0.94667  1.0000 -0.1406901224
C   C182      1.0  0.91212  0.42194  0.92146  1.0000 0.255056141
C   C183      1.0  0.81162  0.50770  0.98410  1.0000 -0.1995886732
C   C184      1.0  0.73647  0.59415  0.07225  1.0000 -0.1406901224
C   C185      1.0  0.76118  0.59592  0.09928  1.0000 0.270577794
C   C186      1.0  0.86065  0.51163  0.03517  1.0000 -0.2113803644
C   C187      1.0  0.04201  0.33619  0.87761  1.0000 0.5601830762
C   C188      1.0  0.62893  0.68619  0.14081  1.0000 0.5711973738
C   C189      1.0  0.19774  0.05710  0.51970  1.0000 -0.1505446476
C   C190      1.0  0.09476  0.15686  0.57274  1.0000 0.2501309794
C   C191      1.0  0.02361  0.22313  0.67707  1.0000 -0.2113803644
C   C192      1.0  0.27576  0.98502  0.40698  1.0000 0.5711973738
C   C193      1.0  0.42959  0.92535  0.19845  1.0000 0.1485121805
C   C194      1.0  0.33867  0.98235  0.19805  1.0000 0.1023629503
C   C195      1.0  0.25524  0.10584  0.18056  1.0000 0.1298481133
C   C196      1.0  0.27066  0.12252  0.13948  1.0000 -0.1505446476
C   C197      1.0  0.20664  0.19570  0.12950  1.0000 -0.1825799346
C   C198      1.0  0.12623  0.25341  0.16159  1.0000 0.1857868974
C   C199      1.0  0.11154  0.23590  0.20310  1.0000 -0.1687032971
C   C200      1.0  0.17572  0.16256  0.21284  1.0000 -0.1687032971
C   C201      1.0  0.90336  0.65388  0.26492  1.0000 0.1485121805
C   C202      1.0  0.87760  0.64564  0.20216  1.0000 0.0401959992
C   C203      1.0  0.96468  0.51550  0.20310  1.0000 0.1212410005
C   C204      1.0  0.99027  0.47737  0.25323  1.0000 -0.1505446476
C   C205      1.0  0.02312  0.41410  0.23610  1.0000 -0.1687032971
C   C206      1.0  0.02960  0.39064  0.16996  1.0000 0.1736213546
C   C207      1.0  0.00326  0.43026  0.12034  1.0000 -0.1581347491
C   C208      1.0  0.97047  0.49321  0.13719  1.0000 -0.1896930728
C   C209      1.0  0.71495  0.54423  0.19417  1.0000 0.1485121805
C   C210      1.0  0.87374  0.39734  0.07586  1.0000 0.1023629503
C   C211      1.0  0.89703  0.41845  0.14655  1.0000 0.1298481133
C   C212      1.0  0.00089  0.32031  0.07129  1.0000 -0.1581347491
C   C213      1.0  0.05445  0.29143  0.07297  1.0000 -0.1406901224
C   C214      1.0  0.00453  0.36001  0.14939  1.0000 0.1625053137
C   C215      1.0  0.90121  0.45785  0.22155  1.0000 -0.1505446476
C   C216      1.0  0.84639  0.48803  0.22177  1.0000 -0.120780902
C   C217      1.0  0.69243  0.94667  0.42533  1.0000 -0.1406901224
C   C218      1.0  0.74448  0.92146  0.42194  1.0000 0.255056141
C   C219      1.0  0.69658  0.98410  0.50770  1.0000 -0.1995886732
C   C220      1.0  0.59713  0.07225  0.59415  1.0000 -0.1406901224
C   C221      1.0  0.54362  0.09928  0.59592  1.0000 0.270577794
C   C222      1.0  0.59255  0.03517  0.51163  1.0000 -0.2113803644
C   C223      1.0  0.74419  0.87761  0.33619  1.0000 0.5601830762
C   C224      1.0  0.54407  0.14081  0.68619  1.0000 0.5711973738
C   C225      1.0  0.22546  0.51970  0.05710  1.0000 -0.1505446476
C   C226      1.0  0.17564  0.57274  0.15686  1.0000 0.2501309794
C   C227      1.0  0.07619  0.67707  0.22313  1.0000 -0.2113803644
C   C228      1.0  0.33224  0.40698  0.98502  1.0000 0.5711973738
C   C229      1.0  0.44661  0.19845  0.92535  1.0000 0.1485121805
C   C230      1.0  0.48093  0.19805  0.98235  1.0000 0.1023629503
C   C231      1.0  0.45836  0.18056  0.10584  1.0000 0.1298481133
C   C232      1.0  0.46734  0.13948  0.12252  1.0000 -0.1505446476
C   C233      1.0  0.46816  0.12950  0.19570  1.0000 -0.1825799346
C   C234      1.0  0.45877  0.16159  0.25341  1.0000 0.1857868974
C   C235      1.0  0.44946  0.20310  0.23590  1.0000 -0.1687032971
C   C236      1.0  0.44888  0.21284  0.16256  1.0000 -0.1687032971
C   C237      1.0  0.17784  0.26492  0.65388  1.0000 0.1378554903
C   C238      1.0  0.27460  0.20216  0.64564  1.0000 0.0401959992
C   C239      1.0  0.31672  0.20310  0.51550  1.0000 0.1212410005
C   C240      1.0  0.27913  0.25323  0.47737  1.0000 -0.1505446476
C   C241      1.0  0.32668  0.23610  0.41410  1.0000 -0.1687032971
C   C242      1.0  0.40980  0.16996  0.39064  1.0000 0.1736213546
C   C243      1.0  0.44614  0.12034  0.43026  1.0000 -0.1581347491
C   C244      1.0  0.39913  0.13719  0.49321  1.0000 -0.1896930728
C   C245      1.0  0.54665  0.19417  0.54423  1.0000 0.1485121805
C   C246      1.0  0.65306  0.07586  0.39734  1.0000 0.1023629503
C   C247      1.0  0.53797  0.14655  0.41845  1.0000 0.1298481133
C   C248      1.0  0.60751  0.07129  0.32031  1.0000 -0.1581347491
C   C249      1.0  0.58115  0.07297  0.29143  1.0000 -0.1406901224
C   C250      1.0  0.48607  0.14939  0.36001  1.0000 0.1625053137
C   C251      1.0  0.41939  0.22155  0.45785  1.0000 -0.1505446476
C   C252      1.0  0.44381  0.22177  0.48803  1.0000 -0.120780902
C   C253      1.0  0.94667  0.69243  0.93557  1.0000 -0.1406901224
C   C254      1.0  0.92146  0.74448  0.91212  1.0000 0.255056141
C   C255      1.0  0.98410  0.69658  0.81162  1.0000 -0.1995886732
C   C256      1.0  0.07225  0.59713  0.73647  1.0000 -0.1406901224
C   C257      1.0  0.09928  0.54362  0.76118  1.0000 0.270577794
C   C258      1.0  0.03517  0.59255  0.86065  1.0000 -0.2113803644
C   C259      1.0  0.87761  0.74419  0.04201  1.0000 0.5601830762
C   C260      1.0  0.14081  0.54407  0.62893  1.0000 0.5711973738
C   C261      1.0  0.51970  0.22546  0.19774  1.0000 -0.1505446476
C   C262      1.0  0.57274  0.17564  0.09476  1.0000 0.2501309794
C   C263      1.0  0.67707  0.07619  0.02361  1.0000 -0.2113803644
C   C264      1.0  0.40698  0.33224  0.27576  1.0000 0.5711973738
C   C265      1.0  0.19845  0.44661  0.42959  1.0000 0.1485121805
C   C266      1.0  0.19805  0.48093  0.33867  1.0000 0.1023629503
C   C267      1.0  0.18056  0.45836  0.25524  1.0000 0.1298481133
C   C268      1.0  0.13948  0.46734  0.27066  1.0000 -0.1505446476
C   C269      1.0  0.12950  0.46816  0.20664  1.0000 -0.1825799346
C   C270      1.0  0.16159  0.45877  0.12623  1.0000 0.1857868974
C   C271      1.0  0.20310  0.44946  0.11154  1.0000 -0.1687032971
C   C272      1.0  0.21284  0.44888  0.17572  1.0000 -0.1687032971
C   C273      1.0  0.26492  0.17784  0.90336  1.0000 0.1485121805
C   C274      1.0  0.20216  0.27460  0.87760  1.0000 0.0401959992
C   C275      1.0  0.20310  0.31672  0.96468  1.0000 0.1212410005
C   C276      1.0  0.25323  0.27913  0.99027  1.0000 -0.1505446476
C   C277      1.0  0.23610  0.32668  0.02312  1.0000 -0.1687032971
C   C278      1.0  0.16996  0.40980  0.02960  1.0000 0.1736213546
C   C279      1.0  0.12034  0.44614  0.00326  1.0000 -0.1581347491
C   C280      1.0  0.13719  0.39913  0.97047  1.0000 -0.1896930728
C   C281      1.0  0.19417  0.54665  0.71495  1.0000 0.1485121805
C   C282      1.0  0.07586  0.65306  0.87374  1.0000 0.1023629503
C   C283      1.0  0.14655  0.53797  0.89703  1.0000 0.1298481133
C   C284      1.0  0.07129  0.60751  0.00089  1.0000 -0.1581347491
C   C285      1.0  0.07297  0.58115  0.05445  1.0000 -0.1406901224
C   C286      1.0  0.14939  0.48607  0.00453  1.0000 0.1625053137
C   C287      1.0  0.22155  0.41939  0.90121  1.0000 -0.1505446476
C   C288      1.0  0.22177  0.44381  0.84639  1.0000 -0.120780902
N   N1        1.0  0.55656  0.39084  0.03216  1.0000 -0.3085835296
N   N2        1.0  0.66352  0.30424  0.04556  1.0000 -0.2495658975
N   N3        1.0  0.66844  0.32046  0.98194  1.0000 0.1298481133
N   N4        1.0  0.33441  0.84337  0.77583  1.0000 -0.3085835296
N   N5        1.0  0.25650  0.86982  0.81358  1.0000 -0.2577345688
N   N6        1.0  0.22059  0.92827  0.79073  1.0000 0.1298481133
N   N7        1.0  0.79557  0.45361  0.60499  1.0000 -0.3196385596
N   N8        1.0  0.70561  0.51179  0.75501  1.0000 -0.2423962969
N   N9        1.0  0.80103  0.40895  0.68545  1.0000 0.1298481133
N   N10       1.0  0.92130  0.18968  0.79152  1.0000 -0.1687032971
N   N11       1.0  0.39084  0.55656  0.02044  1.0000 -0.3085835296
N   N12       1.0  0.30424  0.66352  0.98668  1.0000 -0.2495658975
N   N13       1.0  0.32046  0.66844  0.02916  1.0000 0.1298481133
N   N14       1.0  0.84337  0.33441  0.04639  1.0000 -0.3085835296
N   N15       1.0  0.86982  0.25650  0.06010  1.0000 -0.2577345688
N   N16       1.0  0.92827  0.22059  0.06041  1.0000 0.1298481133
N   N17       1.0  0.45361  0.79557  0.14583  1.0000 -0.3196385596
N   N18       1.0  0.51179  0.70561  0.02759  1.0000 -0.2423962969
N   N19       1.0  0.40895  0.80103  0.10457  1.0000 0.1298481133
N   N20       1.0  0.18968  0.92130  0.09750  1.0000 -0.1687032971
N   N21       1.0  0.03216  0.02044  0.55656  1.0000 -0.3085835296
N   N22       1.0  0.04556  0.98668  0.66352  1.0000 -0.2495658975
N   N23       1.0  0.98194  0.02916  0.66844  1.0000 0.1298481133
N   N24       1.0  0.77583  0.04639  0.33441  1.0000 -0.3085835296
N   N25       1.0  0.81358  0.06010  0.25650  1.0000 -0.2577345688
N   N26       1.0  0.79073  0.06041  0.22059  1.0000 0.1298481133
N   N27       1.0  0.60499  0.14583  0.79557  1.0000 -0.3196385596
N   N28       1.0  0.75501  0.02759  0.70561  1.0000 -0.2423962969
N   N29       1.0  0.68545  0.10457  0.80103  1.0000 0.1298481133
N   N30       1.0  0.79152  0.09750  0.92130  1.0000 -0.1687032971
N   N31       1.0  0.02044  0.03216  0.39084  1.0000 -0.3085835296
N   N32       1.0  0.98668  0.04556  0.30424  1.0000 -0.2495658975
N   N33       1.0  0.02916  0.98194  0.32046  1.0000 0.1298481133
N   N34       1.0  0.04639  0.77583  0.84337  1.0000 -0.3085835296
N   N35       1.0  0.06010  0.81358  0.86982  1.0000 -0.2577345688
N   N36       1.0  0.06041  0.79073  0.92827  1.0000 0.1298481133
N   N37       1.0  0.14583  0.60499  0.45361  1.0000 -0.3196385596
N   N38       1.0  0.02759  0.75501  0.51179  1.0000 -0.2423962969
N   N39       1.0  0.10457  0.68545  0.40895  1.0000 0.1298481133
N   N40       1.0  0.09750  0.79152  0.18968  1.0000 -0.1687032971
N   N41       1.0  0.69344  0.85916  0.21784  1.0000 -0.3085835296
N   N42       1.0  0.58648  0.94576  0.20444  1.0000 -0.2495658975
N   N43       1.0  0.58156  0.92954  0.26806  1.0000 0.1298481133
N   N44       1.0  0.91559  0.40663  0.47417  1.0000 -0.3085835296
N   N45       1.0  0.99350  0.38018  0.43642  1.0000 -0.2577345688
N   N46       1.0  0.02941  0.32173  0.45927  1.0000 0.1298481133
N   N47       1.0  0.45443  0.79639  0.64501  1.0000 -0.3196385596
N   N48       1.0  0.54439  0.73821  0.49499  1.0000 -0.2423962969
N   N49       1.0  0.44897  0.84105  0.56455  1.0000 0.1298481133
N   N50       1.0  0.32870  0.06032  0.45848  1.0000 -0.1687032971
N   N51       1.0  0.85916  0.69344  0.22956  1.0000 -0.3085835296
N   N52       1.0  0.94576  0.58648  0.26332  1.0000 -0.2495658975
N   N53       1.0  0.92954  0.58156  0.22084  1.0000 0.1298481133
N   N54       1.0  0.40663  0.91559  0.20361  1.0000 -0.3085835296
N   N55       1.0  0.38018  0.99350  0.18990  1.0000 -0.2577345688
N   N56       1.0  0.32173  0.02941  0.18959  1.0000 0.1298481133
N   N57       1.0  0.79639  0.45443  0.10417  1.0000 -0.3196385596
N   N58       1.0  0.73821  0.54439  0.22241  1.0000 -0.2423962969
N   N59       1.0  0.84105  0.44897  0.14543  1.0000 0.1298481133
N   N60       1.0  0.06032  0.32870  0.15250  1.0000 -0.1687032971
N   N61       1.0  0.21784  0.22956  0.69344  1.0000 -0.3085835296
N   N62       1.0  0.20444  0.26332  0.58648  1.0000 -0.2495658975
N   N63       1.0  0.26806  0.22084  0.58156  1.0000 0.1298481133
N   N64       1.0  0.47417  0.20361  0.91559  1.0000 -0.3085835296
N   N65       1.0  0.43642  0.18990  0.99350  1.0000 -0.2577345688
N   N66       1.0  0.45927  0.18959  0.02941  1.0000 0.1298481133
N   N67       1.0  0.64501  0.10417  0.45443  1.0000 -0.3196385596
N   N68       1.0  0.49499  0.22241  0.54439  1.0000 -0.2423962969
N   N69       1.0  0.56455  0.14543  0.44897  1.0000 0.1298481133
N   N70       1.0  0.45848  0.15250  0.32870  1.0000 -0.1687032971
N   N71       1.0  0.22956  0.21784  0.85916  1.0000 -0.3085835296
N   N72       1.0  0.26332  0.20444  0.94576  1.0000 -0.2495658975
N   N73       1.0  0.22084  0.26806  0.92954  1.0000 0.1298481133
N   N74       1.0  0.20361  0.47417  0.40663  1.0000 -0.3085835296
N   N75       1.0  0.18990  0.43642  0.38018  1.0000 -0.2577345688
N   N76       1.0  0.18959  0.45927  0.32173  1.0000 0.1298481133
N   N77       1.0  0.10417  0.64501  0.79639  1.0000 -0.3196385596
N   N78       1.0  0.22241  0.49499  0.73821  1.0000 -0.2423962969
N   N79       1.0  0.14543  0.56455  0.84105  1.0000 0.1298481133
N   N80       1.0  0.15250  0.45848  0.06032  1.0000 -0.1687032971
O   O1        1.0  0.90919  0.18925  0.55715  1.0000 -0.5265363623
O   O2        1.0  0.98933  0.14105  0.41475  1.0000 -0.5399045069
O   O3        1.0  0.56604  0.64274  0.65826  1.0000 -0.5175680947
O   O4        1.0  0.48577  0.68801  0.79639  1.0000 -0.5572024603
O   O5        1.0  0.91175  0.26721  0.40779  1.0000 -0.4335795771
O   O6        1.0  0.57194  0.55916  0.80524  1.0000 -0.4505496427
O   O7        1.0  0.35188  0.88230  0.87784  1.0000 -0.5175680947
O   O8        1.0  0.23576  0.00280  0.87236  1.0000 -0.5880165789
O   O9        1.0  0.05934  0.18744  0.02754  1.0000 -0.4505496427
O   O10       1.0  0.18925  0.90919  0.34441  1.0000 -0.5265363623
O   O11       1.0  0.14105  0.98933  0.45487  1.0000 -0.5399045069
O   O12       1.0  0.64274  0.56604  0.13296  1.0000 -0.5175680947
O   O13       1.0  0.68801  0.48577  0.02983  1.0000 -0.5572024603
O   O14       1.0  0.26721  0.91175  0.41325  1.0000 -0.4335795771
O   O15       1.0  0.55916  0.57194  0.06366  1.0000 -0.4441124517
O   O16       1.0  0.88230  0.35188  0.88798  1.0000 -0.5175680947
O   O17       1.0  0.00280  0.23576  0.88908  1.0000 -0.5880165789
O   O18       1.0  0.18744  0.05934  0.72568  1.0000 -0.4505496427
O   O19       1.0  0.55715  0.34441  0.90919  1.0000 -0.5265363623
O   O20       1.0  0.41475  0.45487  0.98933  1.0000 -0.5399045069
O   O21       1.0  0.65826  0.13296  0.56604  1.0000 -0.5175680947
O   O22       1.0  0.79639  0.02983  0.48577  1.0000 -0.5572024603
O   O23       1.0  0.40779  0.41325  0.91175  1.0000 -0.4335795771
O   O24       1.0  0.80524  0.06366  0.57194  1.0000 -0.4505496427
O   O25       1.0  0.87784  0.88798  0.35188  1.0000 -0.5175680947
O   O26       1.0  0.87236  0.88908  0.23576  1.0000 -0.5880165789
O   O27       1.0  0.02754  0.72568  0.05934  1.0000 -0.4505496427
O   O28       1.0  0.34441  0.55715  0.18925  1.0000 -0.5265363623
O   O29       1.0  0.45487  0.41475  0.14105  1.0000 -0.5399045069
O   O30       1.0  0.13296  0.65826  0.64274  1.0000 -0.5175680947
O   O31       1.0  0.02983  0.79639  0.68801  1.0000 -0.5572024603
O   O32       1.0  0.41325  0.40779  0.26721  1.0000 -0.4335795771
O   O33       1.0  0.06366  0.80524  0.55916  1.0000 -0.4505496427
O   O34       1.0  0.88798  0.87784  0.88230  1.0000 -0.5175680947
O   O35       1.0  0.88908  0.87236  0.00280  1.0000 -0.5880165789
O   O36       1.0  0.72568  0.02754  0.18744  1.0000 -0.4505496427
O   O37       1.0  0.34081  0.06075  0.69285  1.0000 -0.5265363623
O   O38       1.0  0.26067  0.10895  0.83525  1.0000 -0.5399045069
O   O39       1.0  0.68396  0.60726  0.59174  1.0000 -0.5175680947
O   O40       1.0  0.76423  0.56199  0.45361  1.0000 -0.5572024603
O   O41       1.0  0.33825  0.98279  0.84221  1.0000 -0.4335795771
O   O42       1.0  0.67806  0.69084  0.44476  1.0000 -0.4505496427
O   O43       1.0  0.89812  0.36770  0.37216  1.0000 -0.5175680947
O   O44       1.0  0.01424  0.24720  0.37764  1.0000 -0.5880165789
O   O45       1.0  0.19066  0.06256  0.22246  1.0000 -0.4505496427
O   O46       1.0  0.06075  0.34081  0.90559  1.0000 -0.5265363623
O   O47       1.0  0.10895  0.26067  0.79513  1.0000 -0.5399045069
O   O48       1.0  0.60726  0.68396  0.11704  1.0000 -0.5175680947
O   O49       1.0  0.56199  0.76423  0.22017  1.0000 -0.5572024603
O   O50       1.0  0.98279  0.33825  0.83675  1.0000 -0.4335795771
O   O51       1.0  0.69084  0.67806  0.18634  1.0000 -0.4505496427
O   O52       1.0  0.36770  0.89812  0.36202  1.0000 -0.5175680947
O   O53       1.0  0.24720  0.01424  0.36092  1.0000 -0.5880165789
O   O54       1.0  0.06256  0.19066  0.52432  1.0000 -0.4505496427
O   O55       1.0  0.69285  0.90559  0.34081  1.0000 -0.5265363623
O   O56       1.0  0.83525  0.79513  0.26067  1.0000 -0.5399045069
O   O57       1.0  0.59174  0.11704  0.68396  1.0000 -0.5175680947
O   O58       1.0  0.45361  0.22017  0.76423  1.0000 -0.5572024603
O   O59       1.0  0.84221  0.83675  0.33825  1.0000 -0.4335795771
O   O60       1.0  0.44476  0.18634  0.67806  1.0000 -0.4505496427
O   O61       1.0  0.37216  0.36202  0.89812  1.0000 -0.5175680947
O   O62       1.0  0.37764  0.36092  0.01424  1.0000 -0.5880165789
O   O63       1.0  0.22246  0.52432  0.19066  1.0000 -0.4505496427
O   O64       1.0  0.90559  0.69285  0.06075  1.0000 -0.5265363623
O   O65       1.0  0.79513  0.83525  0.10895  1.0000 -0.5399045069
O   O66       1.0  0.11704  0.59174  0.60726  1.0000 -0.5175680947
O   O67       1.0  0.22017  0.45361  0.56199  1.0000 -0.5572024603
O   O68       1.0  0.83675  0.84221  0.98279  1.0000 -0.4335795771
O   O69       1.0  0.18634  0.44476  0.69084  1.0000 -0.4441124517
O   O70       1.0  0.36202  0.37216  0.36770  1.0000 -0.5175680947
O   O71       1.0  0.36092  0.37764  0.24720  1.0000 -0.5880165789
O   O72       1.0  0.52432  0.22246  0.06256  1.0000 -0.4505496427
