# DDEC6 charges by PACMAN v1.1 (https://github.com/mtap-research/PACMAN-charge/)
data_2020[Cu][nan]3[ASR]10
_chemical_formula_sum              "Cu24 H96 C256 O80 F96"
_cell_length_a       10.5076
_cell_length_b       33.8086
_cell_length_c       29.4609
_cell_angle_alpha    90
_cell_angle_beta     95.482
_cell_angle_gamma    90

_symmetry_space_group_name_H-M    "P 1"
_symmetry_Int_Tables_number       1

loop_
  _symmetry_equiv_pos_as_xyz
  'x, y, z'

loop_
  _atom_site_type_symbol
  _atom_site_label
  _atom_site_symmetry_multiplicity
  _atom_site_fract_x
  _atom_site_fract_y
  _atom_site_fract_z
  _atom_site_occupancy
  _atom_site_charge
Cu  Cu1       1.0  0.98126  0.73092  0.24224  1.0000 1.0755869631
Cu  Cu2       1.0  0.89593  0.70796  0.67300  1.0000 1.0507943217
Cu  Cu3       1.0  0.68793  0.75890  0.71130  1.0000 1.0622329696
Cu  Cu4       1.0  0.49870  0.69786  0.74582  1.0000 1.0507943217
Cu  Cu5       1.0  0.40184  0.75988  0.67776  1.0000 1.0507943217
Cu  Cu6       1.0  0.18883  0.70656  0.71373  1.0000 1.1121624991
Cu  Cu7       1.0  0.01874  0.23092  0.25776  1.0000 1.0748783036
Cu  Cu8       1.0  0.10407  0.20796  0.82700  1.0000 1.0507943217
Cu  Cu9       1.0  0.31207  0.25890  0.78870  1.0000 1.0622329696
Cu  Cu10      1.0  0.50130  0.19786  0.75418  1.0000 1.0507943217
Cu  Cu11      1.0  0.59816  0.25988  0.82224  1.0000 1.0507943217
Cu  Cu12      1.0  0.81117  0.20656  0.78627  1.0000 1.1121624991
Cu  Cu13      1.0  0.01874  0.26908  0.75776  1.0000 1.0755869631
Cu  Cu14      1.0  0.10407  0.29204  0.32700  1.0000 1.0507943217
Cu  Cu15      1.0  0.31207  0.24110  0.28870  1.0000 1.0622329696
Cu  Cu16      1.0  0.50130  0.30214  0.25418  1.0000 1.0507943217
Cu  Cu17      1.0  0.59816  0.24012  0.32224  1.0000 1.0507943217
Cu  Cu18      1.0  0.81117  0.29344  0.28627  1.0000 1.1121624991
Cu  Cu19      1.0  0.98126  0.76908  0.74224  1.0000 1.0755869631
Cu  Cu20      1.0  0.89593  0.79204  0.17300  1.0000 1.0507943217
Cu  Cu21      1.0  0.68793  0.74110  0.21130  1.0000 1.0622329696
Cu  Cu22      1.0  0.49870  0.80214  0.24582  1.0000 1.0507943217
Cu  Cu23      1.0  0.40184  0.74012  0.17776  1.0000 1.0507943217
Cu  Cu24      1.0  0.18883  0.79344  0.21373  1.0000 1.1121624991
H   H1        1.0  0.91420  0.62250  0.31170  1.0000 0.129806275
H   H2        1.0  0.06030  0.52230  0.22250  1.0000 0.129806275
H   H3        1.0  0.05790  0.58700  0.19790  1.0000 0.129806275
H   H4        1.0  0.14760  0.41510  0.33870  1.0000 0.129806275
H   H5        1.0  0.78190  0.41340  0.28310  1.0000 0.129806275
H   H6        1.0  0.79810  0.48030  0.26420  1.0000 0.129806275
H   H7        1.0  0.18630  0.68900  0.35570  1.0000 0.129806275
H   H8        1.0  0.53070  0.76610  0.41430  1.0000 0.129806275
H   H9        1.0  0.42290  0.78120  0.34280  1.0000 0.129806275
H   H10       1.0  0.73870  0.68700  0.53890  1.0000 0.129806275
H   H11       1.0  0.43010  0.74490  0.57820  1.0000 0.129806275
H   H12       1.0  0.33890  0.74310  0.50480  1.0000 0.1230384431
H   H13       1.0  0.36500  0.88550  0.65490  1.0000 0.1379158928
H   H14       1.0  0.73510  0.95050  0.71410  1.0000 0.129806275
H   H15       1.0  0.73300  0.88270  0.70800  1.0000 0.129806275
H   H16       1.0  0.65420  0.08660  0.64980  1.0000 0.1379158928
H   H17       1.0  0.48190  0.07180  0.76450  1.0000 0.129806275
H   H18       1.0  0.47460  0.00340  0.75050  1.0000 0.129806275
H   H19       1.0  0.24000  0.80150  0.55680  1.0000 0.129806275
H   H20       1.0  0.84750  0.74820  0.50530  1.0000 0.1230384431
H   H21       1.0  0.93860  0.73300  0.57760  1.0000 0.129806275
H   H22       1.0  0.69400  0.82520  0.37210  1.0000 0.129806275
H   H23       1.0  0.92670  0.73710  0.34230  1.0000 0.129806275
H   H24       1.0  0.03620  0.74150  0.41460  1.0000 0.129806275
H   H25       1.0  0.08580  0.12250  0.18830  1.0000 0.129806275
H   H26       1.0  0.93970  0.02230  0.27750  1.0000 0.129806275
H   H27       1.0  0.94210  0.08700  0.30210  1.0000 0.129806275
H   H28       1.0  0.85240  0.91510  0.16130  1.0000 0.129806275
H   H29       1.0  0.21810  0.91340  0.21690  1.0000 0.129806275
H   H30       1.0  0.20190  0.98030  0.23580  1.0000 0.129806275
H   H31       1.0  0.81370  0.18900  0.14430  1.0000 0.129806275
H   H32       1.0  0.46930  0.26610  0.08570  1.0000 0.129806275
H   H33       1.0  0.57710  0.28120  0.15720  1.0000 0.129806275
H   H34       1.0  0.26130  0.18700  0.96110  1.0000 0.129806275
H   H35       1.0  0.56990  0.24490  0.92180  1.0000 0.129806275
H   H36       1.0  0.66110  0.24310  0.99520  1.0000 0.1230384431
H   H37       1.0  0.63500  0.38550  0.84510  1.0000 0.1379158928
H   H38       1.0  0.26490  0.45050  0.78590  1.0000 0.129806275
H   H39       1.0  0.26700  0.38270  0.79200  1.0000 0.129806275
H   H40       1.0  0.34580  0.58660  0.85020  1.0000 0.1379158928
H   H41       1.0  0.51810  0.57180  0.73550  1.0000 0.129806275
H   H42       1.0  0.52540  0.50340  0.74950  1.0000 0.129806275
H   H43       1.0  0.76000  0.30150  0.94320  1.0000 0.129806275
H   H44       1.0  0.15250  0.24820  0.99470  1.0000 0.1230384431
H   H45       1.0  0.06140  0.23300  0.92240  1.0000 0.129806275
H   H46       1.0  0.30600  0.32520  0.12790  1.0000 0.129806275
H   H47       1.0  0.07330  0.23710  0.15770  1.0000 0.129806275
H   H48       1.0  0.96380  0.24150  0.08540  1.0000 0.129806275
H   H49       1.0  0.08580  0.37750  0.68830  1.0000 0.129806275
H   H50       1.0  0.93970  0.47770  0.77750  1.0000 0.129806275
H   H51       1.0  0.94210  0.41300  0.80210  1.0000 0.129806275
H   H52       1.0  0.85240  0.58490  0.66130  1.0000 0.129806275
H   H53       1.0  0.21810  0.58660  0.71690  1.0000 0.129806275
H   H54       1.0  0.20190  0.51970  0.73580  1.0000 0.129806275
H   H55       1.0  0.81370  0.31100  0.64430  1.0000 0.129806275
H   H56       1.0  0.46930  0.23390  0.58570  1.0000 0.129806275
H   H57       1.0  0.57710  0.21880  0.65720  1.0000 0.129806275
H   H58       1.0  0.26130  0.31300  0.46110  1.0000 0.129806275
H   H59       1.0  0.56990  0.25510  0.42180  1.0000 0.129806275
H   H60       1.0  0.66110  0.25690  0.49520  1.0000 0.1230384431
H   H61       1.0  0.63500  0.11450  0.34510  1.0000 0.1379158928
H   H62       1.0  0.26490  0.04950  0.28590  1.0000 0.129806275
H   H63       1.0  0.26700  0.11730  0.29200  1.0000 0.129806275
H   H64       1.0  0.34580  0.91340  0.35020  1.0000 0.1379158928
H   H65       1.0  0.51810  0.92820  0.23550  1.0000 0.129806275
H   H66       1.0  0.52540  0.99660  0.24950  1.0000 0.129806275
H   H67       1.0  0.76000  0.19850  0.44320  1.0000 0.129806275
H   H68       1.0  0.15250  0.25180  0.49470  1.0000 0.1230384431
H   H69       1.0  0.06140  0.26700  0.42240  1.0000 0.129806275
H   H70       1.0  0.30600  0.17480  0.62790  1.0000 0.129806275
H   H71       1.0  0.07330  0.26290  0.65770  1.0000 0.129806275
H   H72       1.0  0.96380  0.25850  0.58540  1.0000 0.129806275
H   H73       1.0  0.91420  0.87750  0.81170  1.0000 0.129806275
H   H74       1.0  0.06030  0.97770  0.72250  1.0000 0.129806275
H   H75       1.0  0.05790  0.91300  0.69790  1.0000 0.129806275
H   H76       1.0  0.14760  0.08490  0.83870  1.0000 0.129806275
H   H77       1.0  0.78190  0.08660  0.78310  1.0000 0.129806275
H   H78       1.0  0.79810  0.01970  0.76420  1.0000 0.129806275
H   H79       1.0  0.18630  0.81100  0.85570  1.0000 0.129806275
H   H80       1.0  0.53070  0.73390  0.91430  1.0000 0.129806275
H   H81       1.0  0.42290  0.71880  0.84280  1.0000 0.129806275
H   H82       1.0  0.73870  0.81300  0.03890  1.0000 0.129806275
H   H83       1.0  0.43010  0.75510  0.07820  1.0000 0.129806275
H   H84       1.0  0.33890  0.75690  0.00480  1.0000 0.1230384431
H   H85       1.0  0.36500  0.61450  0.15490  1.0000 0.1379158928
H   H86       1.0  0.73510  0.54950  0.21410  1.0000 0.129806275
H   H87       1.0  0.73300  0.61730  0.20800  1.0000 0.129806275
H   H88       1.0  0.65420  0.41340  0.14980  1.0000 0.1379158928
H   H89       1.0  0.48190  0.42820  0.26450  1.0000 0.129806275
H   H90       1.0  0.47460  0.49660  0.25050  1.0000 0.129806275
H   H91       1.0  0.24000  0.69850  0.05680  1.0000 0.129806275
H   H92       1.0  0.84750  0.75180  0.00530  1.0000 0.1230384431
H   H93       1.0  0.93860  0.76700  0.07760  1.0000 0.129806275
H   H94       1.0  0.69400  0.67480  0.87210  1.0000 0.129806275
H   H95       1.0  0.92670  0.76290  0.84230  1.0000 0.129806275
H   H96       1.0  0.03620  0.75850  0.91460  1.0000 0.129806275
C   C1        1.0  0.99860  0.65310  0.23710  1.0000 0.5579111262
C   C2        1.0  0.99020  0.61190  0.25240  1.0000 -0.0192256465
C   C3        1.0  0.94340  0.60200  0.29310  1.0000 -0.0762762573
C   C4        1.0  0.93770  0.56250  0.30790  1.0000 -0.1805006972
C   C5        1.0  0.98210  0.53180  0.28130  1.0000 0.0696824804
C   C6        1.0  0.02820  0.54230  0.24100  1.0000 -0.1099983708
C   C7        1.0  0.02910  0.58130  0.22680  1.0000 -0.062365499
C   C8        1.0  0.88180  0.55290  0.34840  1.0000 0.5985269928
C   C9        1.0  0.97760  0.48930  0.29440  1.0000 0.0593648118
C   C10       1.0  0.08210  0.46850  0.31440  1.0000 -0.0996547164
C   C11       1.0  0.07550  0.42840  0.32400  1.0000 -0.0931294641
C   C12       1.0  0.96380  0.40790  0.31190  1.0000 -0.0027853843
C   C13       1.0  0.85950  0.42720  0.29080  1.0000 -0.0713509405
C   C14       1.0  0.86840  0.46750  0.28080  1.0000 -0.1099983708
C   C15       1.0  0.20930  0.48940  0.32680  1.0000 0.6303903364
C   C16       1.0  0.95730  0.36450  0.31900  1.0000 0.6100621506
C   C17       1.0  0.22090  0.74480  0.29760  1.0000 0.6185062529
C   C18       1.0  0.29340  0.73640  0.34260  1.0000 0.0021456404
C   C19       1.0  0.25570  0.70510  0.36770  1.0000 -0.0996547164
C   C20       1.0  0.31840  0.69640  0.41130  1.0000 -0.1390303613
C   C21       1.0  0.42170  0.72010  0.42900  1.0000 0.0593648118
C   C22       1.0  0.45940  0.75040  0.40300  1.0000 -0.1099983708
C   C23       1.0  0.39570  0.75950  0.35990  1.0000 -0.0530239201
C   C24       1.0  0.26730  0.66230  0.43610  1.0000 0.6100621506
C   C25       1.0  0.48290  0.71530  0.47680  1.0000 0.0696824804
C   C26       1.0  0.60190  0.69760  0.48830  1.0000 -0.1274061032
C   C27       1.0  0.65710  0.69890  0.53200  1.0000 -0.1099983708
C   C28       1.0  0.59750  0.71700  0.56700  1.0000 0.0197436311
C   C29       1.0  0.47530  0.73310  0.55530  1.0000 -0.0762762573
C   C30       1.0  0.42160  0.73200  0.51170  1.0000 -0.1099983708
C   C31       1.0  0.67380  0.67780  0.45290  1.0000 0.6508590266
C   C32       1.0  0.66390  0.72080  0.61440  1.0000 0.6100621506
C   C33       1.0  0.54630  0.83260  0.68380  1.0000 0.5985269928
C   C34       1.0  0.54710  0.87690  0.68340  1.0000 0.0137764056
C   C35       1.0  0.43990  0.89880  0.66750  1.0000 -0.0931294641
C   C36       1.0  0.44120  0.93930  0.66970  1.0000 -0.1099983708
C   C37       1.0  0.55180  0.95960  0.68650  1.0000 0.0696824804
C   C38       1.0  0.65960  0.93740  0.70180  1.0000 -0.1099983708
C   C39       1.0  0.65730  0.89720  0.69900  1.0000 -0.0713509405
C   C40       1.0  0.32200  0.96130  0.65220  1.0000 0.6303903364
C   C41       1.0  0.55600  0.00360  0.69140  1.0000 0.0593648118
C   C42       1.0  0.61550  0.03000  0.66130  1.0000 -0.1274061032
C   C43       1.0  0.61600  0.06930  0.67000  1.0000 -0.0931294641
C   C44       1.0  0.56460  0.08500  0.70630  1.0000 0.0197436311
C   C45       1.0  0.51350  0.06100  0.73800  1.0000 -0.0762762573
C   C46       1.0  0.51020  0.02030  0.72930  1.0000 -0.1099983708
C   C47       1.0  0.67500  0.01560  0.62120  1.0000 0.6185062529
C   C48       1.0  0.56760  0.12990  0.71340  1.0000 0.5651971384
C   C49       1.0  0.16530  0.75540  0.62060  1.0000 0.6185062529
C   C50       1.0  0.10090  0.76630  0.57470  1.0000 0.0137764056
C   C51       1.0  0.15950  0.79030  0.54640  1.0000 -0.0996547164
C   C52       1.0  0.10630  0.79900  0.50310  1.0000 -0.1166299672
C   C53       1.0  0.98810  0.78280  0.48640  1.0000 0.0593648118
C   C54       1.0  0.92880  0.75900  0.51540  1.0000 -0.1099983708
C   C55       1.0  0.98200  0.75010  0.55870  1.0000 -0.0713509405
C   C56       1.0  0.17660  0.82560  0.47240  1.0000 0.6303903364
C   C57       1.0  0.93060  0.78590  0.43750  1.0000 0.0593648118
C   C58       1.0  0.82860  0.81110  0.42380  1.0000 -0.1166299672
C   C59       1.0  0.76470  0.80830  0.38040  1.0000 -0.0931294641
C   C60       1.0  0.80280  0.78150  0.34940  1.0000 -0.0027853843
C   C61       1.0  0.90170  0.75650  0.36300  1.0000 -0.062365499
C   C62       1.0  0.96660  0.75880  0.40650  1.0000 -0.1099983708
C   C63       1.0  0.77430  0.84030  0.45620  1.0000 0.5985269928
C   C64       1.0  0.72810  0.77830  0.30360  1.0000 0.6185062529
C   C65       1.0  0.00140  0.15310  0.26290  1.0000 0.5579111262
C   C66       1.0  0.00980  0.11190  0.24760  1.0000 -0.0192256465
C   C67       1.0  0.05660  0.10200  0.20690  1.0000 -0.0762762573
C   C68       1.0  0.06230  0.06250  0.19210  1.0000 -0.1805006972
C   C69       1.0  0.01790  0.03180  0.21870  1.0000 0.0696824804
C   C70       1.0  0.97180  0.04230  0.25900  1.0000 -0.1099983708
C   C71       1.0  0.97090  0.08130  0.27320  1.0000 -0.062365499
C   C72       1.0  0.11820  0.05290  0.15160  1.0000 0.5985269928
C   C73       1.0  0.02240  0.98930  0.20560  1.0000 0.0593648118
C   C74       1.0  0.91790  0.96850  0.18560  1.0000 -0.0996547164
C   C75       1.0  0.92450  0.92840  0.17600  1.0000 -0.0931294641
C   C76       1.0  0.03620  0.90790  0.18810  1.0000 -0.0059965455
C   C77       1.0  0.14050  0.92720  0.20920  1.0000 -0.0713509405
C   C78       1.0  0.13160  0.96750  0.21920  1.0000 -0.1099983708
C   C79       1.0  0.79070  0.98940  0.17320  1.0000 0.6303903364
C   C80       1.0  0.04270  0.86450  0.18100  1.0000 0.6100621506
C   C81       1.0  0.77910  0.24480  0.20240  1.0000 0.6185062529
C   C82       1.0  0.70660  0.23640  0.15740  1.0000 0.0021456404
C   C83       1.0  0.74430  0.20510  0.13230  1.0000 -0.0996547164
C   C84       1.0  0.68160  0.19640  0.08870  1.0000 -0.1390303613
C   C85       1.0  0.57830  0.22010  0.07100  1.0000 0.0593648118
C   C86       1.0  0.54060  0.25040  0.09700  1.0000 -0.1099983708
C   C87       1.0  0.60430  0.25950  0.14010  1.0000 -0.0530239201
C   C88       1.0  0.73270  0.16230  0.06390  1.0000 0.6100621506
C   C89       1.0  0.51710  0.21530  0.02320  1.0000 0.0696824804
C   C90       1.0  0.39810  0.19760  0.01170  1.0000 -0.1274061032
C   C91       1.0  0.34290  0.19890  0.96800  1.0000 -0.1099983708
C   C92       1.0  0.40250  0.21700  0.93300  1.0000 0.0197436311
C   C93       1.0  0.52470  0.23310  0.94470  1.0000 -0.0762762573
C   C94       1.0  0.57840  0.23200  0.98830  1.0000 -0.1099983708
C   C95       1.0  0.32620  0.17780  0.04710  1.0000 0.6508590266
C   C96       1.0  0.33610  0.22080  0.88560  1.0000 0.6100621506
C   C97       1.0  0.45370  0.33260  0.81620  1.0000 0.5985269928
C   C98       1.0  0.45290  0.37690  0.81660  1.0000 0.0137764056
C   C99       1.0  0.56010  0.39880  0.83250  1.0000 -0.0931294641
C   C100      1.0  0.55880  0.43930  0.83030  1.0000 -0.1099983708
C   C101      1.0  0.44820  0.45960  0.81350  1.0000 0.0696824804
C   C102      1.0  0.34040  0.43740  0.79820  1.0000 -0.1099983708
C   C103      1.0  0.34270  0.39720  0.80100  1.0000 -0.0713509405
C   C104      1.0  0.67800  0.46130  0.84780  1.0000 0.6185062529
C   C105      1.0  0.44400  0.50360  0.80860  1.0000 0.0593648118
C   C106      1.0  0.38450  0.53000  0.83870  1.0000 -0.1274061032
C   C107      1.0  0.38400  0.56930  0.83000  1.0000 -0.0931294641
C   C108      1.0  0.43540  0.58500  0.79370  1.0000 0.0197436311
C   C109      1.0  0.48650  0.56100  0.76200  1.0000 -0.0762762573
C   C110      1.0  0.48980  0.52030  0.77070  1.0000 -0.1099983708
C   C111      1.0  0.32500  0.51560  0.87880  1.0000 0.6185062529
C   C112      1.0  0.43240  0.62990  0.78660  1.0000 0.5651971384
C   C113      1.0  0.83470  0.25540  0.87940  1.0000 0.6185062529
C   C114      1.0  0.89910  0.26630  0.92530  1.0000 0.0197436311
C   C115      1.0  0.84050  0.29030  0.95360  1.0000 -0.0996547164
C   C116      1.0  0.89370  0.29900  0.99690  1.0000 -0.1166299672
C   C117      1.0  0.01190  0.28280  0.01360  1.0000 0.0593648118
C   C118      1.0  0.07120  0.25900  0.98460  1.0000 -0.1099983708
C   C119      1.0  0.01800  0.25010  0.94130  1.0000 -0.0713509405
C   C120      1.0  0.82340  0.32560  0.02760  1.0000 0.6303903364
C   C121      1.0  0.06940  0.28590  0.06250  1.0000 0.0593648118
C   C122      1.0  0.17140  0.31110  0.07620  1.0000 -0.1166299672
C   C123      1.0  0.23530  0.30830  0.11960  1.0000 -0.0931294641
C   C124      1.0  0.19720  0.28150  0.15060  1.0000 -0.0027853843
C   C125      1.0  0.09830  0.25650  0.13700  1.0000 -0.062365499
C   C126      1.0  0.03340  0.25880  0.09350  1.0000 -0.1099983708
C   C127      1.0  0.22570  0.34030  0.04380  1.0000 0.5985269928
C   C128      1.0  0.27190  0.27830  0.19640  1.0000 0.6303903364
C   C129      1.0  0.00140  0.34690  0.76290  1.0000 0.5579111262
C   C130      1.0  0.00980  0.38810  0.74760  1.0000 -0.0192256465
C   C131      1.0  0.05660  0.39800  0.70690  1.0000 -0.0762762573
C   C132      1.0  0.06230  0.43750  0.69210  1.0000 -0.1805006972
C   C133      1.0  0.01790  0.46820  0.71870  1.0000 0.0696824804
C   C134      1.0  0.97180  0.45770  0.75900  1.0000 -0.1099983708
C   C135      1.0  0.97090  0.41870  0.77320  1.0000 -0.062365499
C   C136      1.0  0.11820  0.44710  0.65160  1.0000 0.5985269928
C   C137      1.0  0.02240  0.51070  0.70560  1.0000 0.0593648118
C   C138      1.0  0.91790  0.53150  0.68560  1.0000 -0.0996547164
C   C139      1.0  0.92450  0.57160  0.67600  1.0000 -0.0931294641
C   C140      1.0  0.03620  0.59210  0.68810  1.0000 -0.0059965455
C   C141      1.0  0.14050  0.57280  0.70920  1.0000 -0.0713509405
C   C142      1.0  0.13160  0.53250  0.71920  1.0000 -0.1099983708
C   C143      1.0  0.79070  0.51060  0.67320  1.0000 0.6303903364
C   C144      1.0  0.04270  0.63550  0.68100  1.0000 0.6100621506
C   C145      1.0  0.77910  0.25520  0.70240  1.0000 0.6185062529
C   C146      1.0  0.70660  0.26360  0.65740  1.0000 0.0021456404
C   C147      1.0  0.74430  0.29490  0.63230  1.0000 -0.0996547164
C   C148      1.0  0.68160  0.30360  0.58870  1.0000 -0.1390303613
C   C149      1.0  0.57830  0.27990  0.57100  1.0000 0.0593648118
C   C150      1.0  0.54060  0.24960  0.59700  1.0000 -0.1099983708
C   C151      1.0  0.60430  0.24050  0.64010  1.0000 -0.0530239201
C   C152      1.0  0.73270  0.33770  0.56390  1.0000 0.6100621506
C   C153      1.0  0.51710  0.28470  0.52320  1.0000 0.0696824804
C   C154      1.0  0.39810  0.30240  0.51170  1.0000 -0.1274061032
C   C155      1.0  0.34290  0.30110  0.46800  1.0000 -0.1099983708
C   C156      1.0  0.40250  0.28300  0.43300  1.0000 0.0197436311
C   C157      1.0  0.52470  0.26690  0.44470  1.0000 -0.0762762573
C   C158      1.0  0.57840  0.26800  0.48830  1.0000 -0.1099983708
C   C159      1.0  0.32620  0.32220  0.54710  1.0000 0.6508590266
C   C160      1.0  0.33610  0.27920  0.38560  1.0000 0.6100621506
C   C161      1.0  0.45370  0.16740  0.31620  1.0000 0.5985269928
C   C162      1.0  0.45290  0.12310  0.31660  1.0000 0.0137764056
C   C163      1.0  0.56010  0.10120  0.33250  1.0000 -0.0931294641
C   C164      1.0  0.55880  0.06070  0.33030  1.0000 -0.1099983708
C   C165      1.0  0.44820  0.04040  0.31350  1.0000 0.0696824804
C   C166      1.0  0.34040  0.06260  0.29820  1.0000 -0.1099983708
C   C167      1.0  0.34270  0.10280  0.30100  1.0000 -0.0713509405
C   C168      1.0  0.67800  0.03870  0.34780  1.0000 0.6185062529
C   C169      1.0  0.44400  0.99640  0.30860  1.0000 0.0593648118
C   C170      1.0  0.38450  0.97000  0.33870  1.0000 -0.1274061032
C   C171      1.0  0.38400  0.93070  0.33000  1.0000 -0.0931294641
C   C172      1.0  0.43540  0.91500  0.29370  1.0000 0.0197436311
C   C173      1.0  0.48650  0.93900  0.26200  1.0000 -0.0762762573
C   C174      1.0  0.48980  0.97970  0.27070  1.0000 -0.1099983708
C   C175      1.0  0.32500  0.98440  0.37880  1.0000 0.6185062529
C   C176      1.0  0.43240  0.87010  0.28660  1.0000 0.5651971384
C   C177      1.0  0.83470  0.24460  0.37940  1.0000 0.6185062529
C   C178      1.0  0.89910  0.23370  0.42530  1.0000 0.0197436311
C   C179      1.0  0.84050  0.20970  0.45360  1.0000 -0.0996547164
C   C180      1.0  0.89370  0.20100  0.49690  1.0000 -0.1166299672
C   C181      1.0  0.01190  0.21720  0.51360  1.0000 0.0593648118
C   C182      1.0  0.07120  0.24100  0.48460  1.0000 -0.1099983708
C   C183      1.0  0.01800  0.24990  0.44130  1.0000 -0.0713509405
C   C184      1.0  0.82340  0.17440  0.52760  1.0000 0.6303903364
C   C185      1.0  0.06940  0.21410  0.56250  1.0000 0.0593648118
C   C186      1.0  0.17140  0.18890  0.57620  1.0000 -0.1166299672
C   C187      1.0  0.23530  0.19170  0.61960  1.0000 -0.0931294641
C   C188      1.0  0.19720  0.21850  0.65060  1.0000 -0.0027853843
C   C189      1.0  0.09830  0.24350  0.63700  1.0000 -0.062365499
C   C190      1.0  0.03340  0.24120  0.59350  1.0000 -0.1099983708
C   C191      1.0  0.22570  0.15970  0.54380  1.0000 0.5985269928
C   C192      1.0  0.27190  0.22170  0.69640  1.0000 0.6185062529
C   C193      1.0  0.99860  0.84690  0.73710  1.0000 0.5579111262
C   C194      1.0  0.99020  0.88810  0.75240  1.0000 -0.0192256465
C   C195      1.0  0.94340  0.89800  0.79310  1.0000 -0.0762762573
C   C196      1.0  0.93770  0.93750  0.80790  1.0000 -0.1805006972
C   C197      1.0  0.98210  0.96820  0.78130  1.0000 0.0696824804
C   C198      1.0  0.02820  0.95770  0.74100  1.0000 -0.1099983708
C   C199      1.0  0.02910  0.91870  0.72680  1.0000 -0.062365499
C   C200      1.0  0.88180  0.94710  0.84840  1.0000 0.5985269928
C   C201      1.0  0.97760  0.01070  0.79440  1.0000 0.0593648118
C   C202      1.0  0.08210  0.03150  0.81440  1.0000 -0.0996547164
C   C203      1.0  0.07550  0.07160  0.82400  1.0000 -0.0931294641
C   C204      1.0  0.96380  0.09210  0.81190  1.0000 -0.0027853843
C   C205      1.0  0.85950  0.07280  0.79080  1.0000 -0.0713509405
C   C206      1.0  0.86840  0.03250  0.78080  1.0000 -0.1099983708
C   C207      1.0  0.20930  0.01060  0.82680  1.0000 0.6303903364
C   C208      1.0  0.95730  0.13550  0.81900  1.0000 0.6100621506
C   C209      1.0  0.22090  0.75520  0.79760  1.0000 0.6185062529
C   C210      1.0  0.29340  0.76360  0.84260  1.0000 0.0021456404
C   C211      1.0  0.25570  0.79490  0.86770  1.0000 -0.0996547164
C   C212      1.0  0.31840  0.80360  0.91130  1.0000 -0.1390303613
C   C213      1.0  0.42170  0.77990  0.92900  1.0000 0.0593648118
C   C214      1.0  0.45940  0.74960  0.90300  1.0000 -0.1099983708
C   C215      1.0  0.39570  0.74050  0.85990  1.0000 -0.0530239201
C   C216      1.0  0.26730  0.83770  0.93610  1.0000 0.6100621506
C   C217      1.0  0.48290  0.78470  0.97680  1.0000 0.0696824804
C   C218      1.0  0.60190  0.80240  0.98830  1.0000 -0.1274061032
C   C219      1.0  0.65710  0.80110  0.03200  1.0000 -0.1099983708
C   C220      1.0  0.59750  0.78300  0.06700  1.0000 0.0197436311
C   C221      1.0  0.47530  0.76690  0.05530  1.0000 -0.0762762573
C   C222      1.0  0.42160  0.76800  0.01170  1.0000 -0.1099983708
C   C223      1.0  0.67380  0.82220  0.95290  1.0000 0.6508590266
C   C224      1.0  0.66390  0.77920  0.11440  1.0000 0.6100621506
C   C225      1.0  0.54630  0.66740  0.18380  1.0000 0.5985269928
C   C226      1.0  0.54710  0.62310  0.18340  1.0000 0.0137764056
C   C227      1.0  0.43990  0.60120  0.16750  1.0000 -0.0931294641
C   C228      1.0  0.44120  0.56070  0.16970  1.0000 -0.1099983708
C   C229      1.0  0.55180  0.54040  0.18650  1.0000 0.0696824804
C   C230      1.0  0.65960  0.56260  0.20180  1.0000 -0.1099983708
C   C231      1.0  0.65730  0.60280  0.19900  1.0000 -0.0713509405
C   C232      1.0  0.32200  0.53870  0.15220  1.0000 0.6303903364
C   C233      1.0  0.55600  0.49640  0.19140  1.0000 0.0593648118
C   C234      1.0  0.61550  0.47000  0.16130  1.0000 -0.1274061032
C   C235      1.0  0.61600  0.43070  0.17000  1.0000 -0.0931294641
C   C236      1.0  0.56460  0.41500  0.20630  1.0000 0.0197436311
C   C237      1.0  0.51350  0.43900  0.23800  1.0000 -0.0762762573
C   C238      1.0  0.51020  0.47970  0.22930  1.0000 -0.1099983708
C   C239      1.0  0.67500  0.48440  0.12120  1.0000 0.6185062529
C   C240      1.0  0.56760  0.37010  0.21340  1.0000 0.5651971384
C   C241      1.0  0.16530  0.74460  0.12060  1.0000 0.6185062529
C   C242      1.0  0.10090  0.73370  0.07470  1.0000 0.0197436311
C   C243      1.0  0.15950  0.70970  0.04640  1.0000 -0.0996547164
C   C244      1.0  0.10630  0.70100  0.00310  1.0000 -0.1166299672
C   C245      1.0  0.98810  0.71720  0.98640  1.0000 0.0593648118
C   C246      1.0  0.92880  0.74100  0.01540  1.0000 -0.1099983708
C   C247      1.0  0.98200  0.74990  0.05870  1.0000 -0.0713509405
C   C248      1.0  0.17660  0.67440  0.97240  1.0000 0.6303903364
C   C249      1.0  0.93060  0.71410  0.93750  1.0000 0.0593648118
C   C250      1.0  0.82860  0.68890  0.92380  1.0000 -0.1166299672
C   C251      1.0  0.76470  0.69170  0.88040  1.0000 -0.0931294641
C   C252      1.0  0.80280  0.71850  0.84940  1.0000 -0.0027853843
C   C253      1.0  0.90170  0.74350  0.86300  1.0000 -0.062365499
C   C254      1.0  0.96660  0.74120  0.90650  1.0000 -0.1099983708
C   C255      1.0  0.77430  0.65970  0.95620  1.0000 0.5985269928
C   C256      1.0  0.72810  0.72170  0.80360  1.0000 0.6185062529
O   O1        1.0  0.93410  0.67787  0.25760  1.0000 -0.5000885927
O   O2        1.0  0.06860  0.66250  0.20770  1.0000 -0.5112937829
O   O3        1.0  0.05410  0.34710  0.33733  1.0000 -0.5112937829
O   O4        1.0  0.84990  0.34859  0.30560  1.0000 -0.5192991511
O   O5        1.0  0.11190  0.72915  0.29210  1.0000 -0.5112937829
O   O6        1.0  0.26930  0.76670  0.26970  1.0000 -0.5569828168
O   O7        1.0  0.77620  0.70658  0.61891  1.0000 -0.5192991511
O   O8        1.0  0.60640  0.73703  0.64475  1.0000 -0.6068182306
O   O9        1.0  0.65040  0.81680  0.69800  1.0000 -0.5000885927
O   O10       1.0  0.44290  0.81540  0.67100  1.0000 -0.5112937829
O   O11       1.0  0.61360  0.15100  0.68630  1.0000 -0.4709656105
O   O12       1.0  0.51690  0.14069  0.74940  1.0000 -0.5320431904
O   O13       1.0  0.28180  0.76527  0.62561  1.0000 -0.5112937829
O   O14       1.0  0.10750  0.73716  0.64880  1.0000 -0.5954792813
O   O15       1.0  0.77290  0.75580  0.27411  1.0000 -0.5857782678
O   O16       1.0  0.62750  0.79826  0.29820  1.0000 -0.5112937829
O   O17       1.0  0.36000  0.70378  0.69395  1.0000 -0.8626252428
O   O18       1.0  0.85340  0.76202  0.68920  1.0000 -0.8513636158
O   O19       1.0  0.52080  0.75298  0.73178  1.0000 -0.8904984013
O   O20       1.0  0.01430  0.71331  0.72860  1.0000 -0.9015215949
O   O21       1.0  0.06590  0.17787  0.24240  1.0000 -0.5000885927
O   O22       1.0  0.93140  0.16250  0.29230  1.0000 -0.5112937829
O   O23       1.0  0.94590  0.84710  0.16267  1.0000 -0.5112937829
O   O24       1.0  0.15010  0.84859  0.19440  1.0000 -0.5192991511
O   O25       1.0  0.88810  0.22915  0.20790  1.0000 -0.5112937829
O   O26       1.0  0.73070  0.26670  0.23030  1.0000 -0.5569828168
O   O27       1.0  0.22380  0.20658  0.88109  1.0000 -0.5192991511
O   O28       1.0  0.39360  0.23703  0.85525  1.0000 -0.6068182306
O   O29       1.0  0.34960  0.31680  0.80200  1.0000 -0.5000885927
O   O30       1.0  0.55710  0.31540  0.82900  1.0000 -0.5112937829
O   O31       1.0  0.38640  0.65100  0.81370  1.0000 -0.4709656105
O   O32       1.0  0.48310  0.64069  0.75060  1.0000 -0.5320431904
O   O33       1.0  0.71820  0.26527  0.87439  1.0000 -0.5112937829
O   O34       1.0  0.89250  0.23716  0.85120  1.0000 -0.5954792813
O   O35       1.0  0.22710  0.25580  0.22589  1.0000 -0.5857782678
O   O36       1.0  0.37250  0.29826  0.20180  1.0000 -0.5112937829
O   O37       1.0  0.64000  0.20378  0.80605  1.0000 -0.8626252428
O   O38       1.0  0.14660  0.26202  0.81080  1.0000 -0.8513636158
O   O39       1.0  0.47920  0.25298  0.76822  1.0000 -0.8904984013
O   O40       1.0  0.98570  0.21331  0.77140  1.0000 -0.9015215949
O   O41       1.0  0.06590  0.32213  0.74240  1.0000 -0.5000885927
O   O42       1.0  0.93140  0.33750  0.79230  1.0000 -0.5112937829
O   O43       1.0  0.94590  0.65290  0.66267  1.0000 -0.5112937829
O   O44       1.0  0.15010  0.65141  0.69440  1.0000 -0.5192991511
O   O45       1.0  0.88810  0.27085  0.70790  1.0000 -0.5112937829
O   O46       1.0  0.73070  0.23330  0.73030  1.0000 -0.5569828168
O   O47       1.0  0.22380  0.29342  0.38109  1.0000 -0.5192991511
O   O48       1.0  0.39360  0.26297  0.35525  1.0000 -0.6068182306
O   O49       1.0  0.34960  0.18320  0.30200  1.0000 -0.5000885927
O   O50       1.0  0.55710  0.18460  0.32900  1.0000 -0.5112937829
O   O51       1.0  0.38640  0.84900  0.31370  1.0000 -0.4709656105
O   O52       1.0  0.48310  0.85931  0.25060  1.0000 -0.5320431904
O   O53       1.0  0.71820  0.23473  0.37439  1.0000 -0.5112937829
O   O54       1.0  0.89250  0.26284  0.35120  1.0000 -0.5954792813
O   O55       1.0  0.22710  0.24420  0.72589  1.0000 -0.5857782678
O   O56       1.0  0.37250  0.20174  0.70180  1.0000 -0.5112937829
O   O57       1.0  0.64000  0.29622  0.30605  1.0000 -0.8626252428
O   O58       1.0  0.14660  0.23798  0.31080  1.0000 -0.8513636158
O   O59       1.0  0.47920  0.24702  0.26822  1.0000 -0.8904984013
O   O60       1.0  0.98570  0.28669  0.27140  1.0000 -0.9015215949
O   O61       1.0  0.93410  0.82213  0.75760  1.0000 -0.5000885927
O   O62       1.0  0.06860  0.83750  0.70770  1.0000 -0.5112937829
O   O63       1.0  0.05410  0.15290  0.83733  1.0000 -0.5112937829
O   O64       1.0  0.84990  0.15141  0.80560  1.0000 -0.5192991511
O   O65       1.0  0.11190  0.77085  0.79210  1.0000 -0.5112937829
O   O66       1.0  0.26930  0.73330  0.76970  1.0000 -0.5569828168
O   O67       1.0  0.77620  0.79342  0.11891  1.0000 -0.5192991511
O   O68       1.0  0.60640  0.76297  0.14475  1.0000 -0.6068182306
O   O69       1.0  0.65040  0.68320  0.19800  1.0000 -0.5000885927
O   O70       1.0  0.44290  0.68460  0.17100  1.0000 -0.5112937829
O   O71       1.0  0.61360  0.34900  0.18630  1.0000 -0.4709656105
O   O72       1.0  0.51690  0.35931  0.24940  1.0000 -0.5320431904
O   O73       1.0  0.28180  0.73473  0.12561  1.0000 -0.5112937829
O   O74       1.0  0.10750  0.76284  0.14880  1.0000 -0.5954792813
O   O75       1.0  0.77290  0.74420  0.77411  1.0000 -0.5857782678
O   O76       1.0  0.62750  0.70174  0.79820  1.0000 -0.5112937829
O   O77       1.0  0.36000  0.79622  0.19395  1.0000 -0.8626252428
O   O78       1.0  0.85340  0.73798  0.18920  1.0000 -0.8513636158
O   O79       1.0  0.52080  0.74702  0.23178  1.0000 -0.8904984013
O   O80       1.0  0.01430  0.78669  0.22860  1.0000 -0.9015215949
F   F1        1.0  0.94820  0.52990  0.37900  1.0000 -0.1805006972
F   F2        1.0  0.84760  0.58550  0.37350  1.0000 -0.1805006972
F   F3        1.0  0.76510  0.53360  0.34250  1.0000 -0.1805006972
F   F4        1.0  0.26570  0.49880  0.28760  1.0000 -0.2003538285
F   F5        1.0  0.29010  0.46820  0.35280  1.0000 -0.2426572197
F   F6        1.0  0.19940  0.52380  0.34680  1.0000 -0.1908019946
F   F7        1.0  0.20480  0.63630  0.40960  1.0000 -0.1908019946
F   F8        1.0  0.34050  0.64510  0.46590  1.0000 -0.2228976913
F   F9        1.0  0.17490  0.67640  0.46370  1.0000 -0.1908019946
F   F10       1.0  0.60070  0.65210  0.42770  1.0000 -0.1805006972
F   F11       1.0  0.71200  0.70440  0.42250  1.0000 -0.1908019946
F   F12       1.0  0.77530  0.65880  0.47020  1.0000 -0.1805006972
F   F13       1.0  0.23370  0.93870  0.63220  1.0000 -0.2003538285
F   F14       1.0  0.26860  0.97980  0.68590  1.0000 -0.1805006972
F   F15       1.0  0.34160  0.99060  0.62440  1.0000 -0.1805006972
F   F16       1.0  0.60610  0.98840  0.59710  1.0000 -0.2003538285
F   F17       1.0  0.78820  0.99330  0.63640  1.0000 -0.2003538285
F   F18       1.0  0.71450  0.04330  0.59550  1.0000 -0.2228976913
F   F19       1.0  0.27920  0.84220  0.49400  1.0000 -0.1805006972
F   F20       1.0  0.22000  0.80590  0.43660  1.0000 -0.1908019946
F   F21       1.0  0.10620  0.85400  0.45310  1.0000 -0.1805006972
F   F22       1.0  0.85410  0.85360  0.48710  1.0000 -0.2305301294
F   F23       1.0  0.68060  0.82380  0.47610  1.0000 -0.1908019946
F   F24       1.0  0.72080  0.87020  0.43560  1.0000 -0.1805006972
F   F25       1.0  0.05180  0.02990  0.12100  1.0000 -0.1805006972
F   F26       1.0  0.15240  0.08550  0.12650  1.0000 -0.1805006972
F   F27       1.0  0.23490  0.03360  0.15750  1.0000 -0.1805006972
F   F28       1.0  0.73430  0.99880  0.21240  1.0000 -0.2003538285
F   F29       1.0  0.70990  0.96820  0.14720  1.0000 -0.2426572197
F   F30       1.0  0.80060  0.02380  0.15320  1.0000 -0.1908019946
F   F31       1.0  0.79520  0.13630  0.09040  1.0000 -0.1908019946
F   F32       1.0  0.65950  0.14510  0.03410  1.0000 -0.2228976913
F   F33       1.0  0.82510  0.17640  0.03630  1.0000 -0.2003538285
F   F34       1.0  0.39930  0.15210  0.07230  1.0000 -0.1805006972
F   F35       1.0  0.28800  0.20440  0.07750  1.0000 -0.1908019946
F   F36       1.0  0.22470  0.15880  0.02980  1.0000 -0.1805006972
F   F37       1.0  0.76630  0.43870  0.86780  1.0000 -0.2003538285
F   F38       1.0  0.73140  0.47980  0.81410  1.0000 -0.1805006972
F   F39       1.0  0.65840  0.49060  0.87560  1.0000 -0.1805006972
F   F40       1.0  0.39390  0.48840  0.90290  1.0000 -0.2003538285
F   F41       1.0  0.21180  0.49330  0.86360  1.0000 -0.2003538285
F   F42       1.0  0.28550  0.54330  0.90450  1.0000 -0.2228976913
F   F43       1.0  0.72080  0.34220  0.00600  1.0000 -0.1805006972
F   F44       1.0  0.78000  0.30590  0.06340  1.0000 -0.1908019946
F   F45       1.0  0.89380  0.35400  0.04690  1.0000 -0.1805006972
F   F46       1.0  0.14590  0.35360  0.01290  1.0000 -0.2305301294
F   F47       1.0  0.31940  0.32380  0.02390  1.0000 -0.1908019946
F   F48       1.0  0.27920  0.37020  0.06440  1.0000 -0.1805006972
F   F49       1.0  0.05180  0.47010  0.62100  1.0000 -0.1805006972
F   F50       1.0  0.15240  0.41450  0.62650  1.0000 -0.1805006972
F   F51       1.0  0.23490  0.46640  0.65750  1.0000 -0.1805006972
F   F52       1.0  0.73430  0.50120  0.71240  1.0000 -0.2003538285
F   F53       1.0  0.70990  0.53180  0.64720  1.0000 -0.2426572197
F   F54       1.0  0.80060  0.47620  0.65320  1.0000 -0.1908019946
F   F55       1.0  0.79520  0.36370  0.59040  1.0000 -0.1908019946
F   F56       1.0  0.65950  0.35490  0.53410  1.0000 -0.2228976913
F   F57       1.0  0.82510  0.32360  0.53630  1.0000 -0.2003538285
F   F58       1.0  0.39930  0.34790  0.57230  1.0000 -0.1805006972
F   F59       1.0  0.28800  0.29560  0.57750  1.0000 -0.1908019946
F   F60       1.0  0.22470  0.34120  0.52980  1.0000 -0.1805006972
F   F61       1.0  0.76630  0.06130  0.36780  1.0000 -0.2003538285
F   F62       1.0  0.73140  0.02020  0.31410  1.0000 -0.1805006972
F   F63       1.0  0.65840  0.00940  0.37560  1.0000 -0.1805006972
F   F64       1.0  0.39390  0.01160  0.40290  1.0000 -0.2003538285
F   F65       1.0  0.21180  0.00670  0.36360  1.0000 -0.2003538285
F   F66       1.0  0.28550  0.95670  0.40450  1.0000 -0.2228976913
F   F67       1.0  0.72080  0.15780  0.50600  1.0000 -0.1805006972
F   F68       1.0  0.78000  0.19410  0.56340  1.0000 -0.1908019946
F   F69       1.0  0.89380  0.14600  0.54690  1.0000 -0.1805006972
F   F70       1.0  0.14590  0.14640  0.51290  1.0000 -0.2305301294
F   F71       1.0  0.31940  0.17620  0.52390  1.0000 -0.1908019946
F   F72       1.0  0.27920  0.12980  0.56440  1.0000 -0.1805006972
F   F73       1.0  0.94820  0.97010  0.87900  1.0000 -0.1805006972
F   F74       1.0  0.84760  0.91450  0.87350  1.0000 -0.1805006972
F   F75       1.0  0.76510  0.96640  0.84250  1.0000 -0.1805006972
F   F76       1.0  0.26570  0.00120  0.78760  1.0000 -0.2003538285
F   F77       1.0  0.29010  0.03180  0.85280  1.0000 -0.2426572197
F   F78       1.0  0.19940  0.97620  0.84680  1.0000 -0.1908019946
F   F79       1.0  0.20480  0.86370  0.90960  1.0000 -0.1908019946
F   F80       1.0  0.34050  0.85490  0.96590  1.0000 -0.2228976913
F   F81       1.0  0.17490  0.82360  0.96370  1.0000 -0.1908019946
F   F82       1.0  0.60070  0.84790  0.92770  1.0000 -0.1805006972
F   F83       1.0  0.71200  0.79560  0.92250  1.0000 -0.1908019946
F   F84       1.0  0.77530  0.84120  0.97020  1.0000 -0.1805006972
F   F85       1.0  0.23370  0.56130  0.13220  1.0000 -0.2003538285
F   F86       1.0  0.26860  0.52020  0.18590  1.0000 -0.1805006972
F   F87       1.0  0.34160  0.50940  0.12440  1.0000 -0.1805006972
F   F88       1.0  0.60610  0.51160  0.09710  1.0000 -0.2003538285
F   F89       1.0  0.78820  0.50670  0.13640  1.0000 -0.2003538285
F   F90       1.0  0.71450  0.45670  0.09550  1.0000 -0.2228976913
F   F91       1.0  0.27920  0.65780  0.99400  1.0000 -0.1805006972
F   F92       1.0  0.22000  0.69410  0.93660  1.0000 -0.1908019946
F   F93       1.0  0.10620  0.64600  0.95310  1.0000 -0.1805006972
F   F94       1.0  0.85410  0.64640  0.98710  1.0000 -0.2305301294
F   F95       1.0  0.68060  0.67620  0.97610  1.0000 -0.1908019946
F   F96       1.0  0.72080  0.62980  0.93560  1.0000 -0.1805006972
