# DDEC6 charges by PACMAN v1.1 (https://github.com/mtap-research/PACMAN-charge/)
data_2020[Zn][sql]2[ASR]11
_chemical_formula_sum              "Zn2 H42 C56 N14 O12"
_cell_length_a       9.7787
_cell_length_b       9.9374
_cell_length_c       17.8681
_cell_angle_alpha    86.483
_cell_angle_beta     100.019
_cell_angle_gamma    111.226

_symmetry_space_group_name_H-M    "P 1"
_symmetry_Int_Tables_number       1

loop_
  _symmetry_equiv_pos_as_xyz
  'x, y, z'

loop_
  _atom_site_type_symbol
  _atom_site_label
  _atom_site_symmetry_multiplicity
  _atom_site_fract_x
  _atom_site_fract_y
  _atom_site_fract_z
  _atom_site_occupancy
  _atom_site_charge
Zn  Zn1       1.0  0.55513  0.36020  0.93489  1.0000 0.8054015702
Zn  Zn2       1.0  0.44487  0.63980  0.06511  1.0000 0.8054015702
H   H1        1.0  0.19226  0.56046  0.21701  1.0000 0.2751833266
H   H2        1.0  0.07453  0.53834  0.64371  1.0000 0.2566945022
H   H3        1.0  0.84052  0.57663  0.03007  1.0000 0.1125609121
H   H4        1.0  0.82748  0.99711  0.68239  1.0000 0.2699075333
H   H5        1.0  0.82025  0.85448  0.69737  1.0000 0.2699075333
H   H6        1.0  0.72685  0.72122  0.80106  1.0000 0.1125609121
H   H7        1.0  0.59373  0.92413  0.94616  1.0000 0.1191047645
H   H8        1.0  0.40143  0.66994  0.29478  1.0000 0.1191047645
H   H9        1.0  0.72126  0.12055  0.75439  1.0000 0.1191047645
H   H10       1.0  0.02179  0.58809  0.13230  1.0000 0.1298059678
H   H11       1.0  0.46840  0.54557  0.79937  1.0000 0.1021774775
H   H12       1.0  0.83247  0.15878  0.15349  1.0000 0.1386219925
H   H13       1.0  0.27874  0.54568  0.70521  1.0000 0.1298059678
H   H14       1.0  0.65851  0.15877  0.04853  1.0000 0.1125609121
H   H15       1.0  0.44742  0.36052  0.39165  1.0000 0.1191047645
H   H16       1.0  0.24254  0.16137  0.86479  1.0000 0.1191047645
H   H17       1.0  0.64014  0.35394  0.48333  1.0000 0.1191047645
H   H18       1.0  0.95080  0.65611  0.56886  1.0000 0.1125609121
H   H19       1.0  0.63079  0.79326  0.38485  1.0000 0.1298059678
H   H20       1.0  0.82841  0.78551  0.47760  1.0000 0.1298059678
H   H21       1.0  0.04598  0.14469  0.76831  1.0000 0.1298059678
H   H22       1.0  0.80774  0.43954  0.78299  1.0000 0.2751833266
H   H23       1.0  0.92547  0.46166  0.35629  1.0000 0.2566945022
H   H24       1.0  0.15948  0.42337  0.96993  1.0000 0.1125609121
H   H25       1.0  0.17252  0.00289  0.31761  1.0000 0.2699075333
H   H26       1.0  0.17975  0.14552  0.30263  1.0000 0.2699075333
H   H27       1.0  0.27315  0.27878  0.19894  1.0000 0.1125609121
H   H28       1.0  0.40627  0.07587  0.05384  1.0000 0.1191047645
H   H29       1.0  0.59857  0.33006  0.70522  1.0000 0.1191047645
H   H30       1.0  0.27874  0.87945  0.24561  1.0000 0.1191047645
H   H31       1.0  0.97821  0.41191  0.86770  1.0000 0.1298059678
H   H32       1.0  0.53160  0.45443  0.20063  1.0000 0.1021774775
H   H33       1.0  0.16753  0.84122  0.84651  1.0000 0.1386219925
H   H34       1.0  0.72126  0.45432  0.29479  1.0000 0.1298059678
H   H35       1.0  0.34149  0.84123  0.95147  1.0000 0.1125609121
H   H36       1.0  0.55258  0.63948  0.60835  1.0000 0.1191047645
H   H37       1.0  0.75746  0.83863  0.13521  1.0000 0.1191047645
H   H38       1.0  0.35986  0.64606  0.51667  1.0000 0.1191047645
H   H39       1.0  0.04920  0.34389  0.43114  1.0000 0.1125609121
H   H40       1.0  0.36921  0.20674  0.61515  1.0000 0.1298059678
H   H41       1.0  0.17159  0.21449  0.52240  1.0000 0.1298059678
H   H42       1.0  0.95402  0.85531  0.23169  1.0000 0.1298059678
C   C1        1.0  0.83890  0.49140  0.05520  1.0000 0.094378314
C   C2        1.0  0.70890  0.80210  0.81360  1.0000 -0.2277821647
C   C3        1.0  0.65950  0.80360  0.88120  1.0000 -0.023459346
C   C4        1.0  0.62870  0.92300  0.90110  1.0000 -0.1705733695
C   C5        1.0  0.94700  0.37380  0.15620  1.0000 0.0263524233
C   C6        1.0  0.63600  0.67420  0.93270  1.0000 0.5693543023
C   C7        1.0  0.39630  0.58340  0.31930  1.0000 -0.0026836621
C   C8        1.0  0.70420  0.03960  0.78560  1.0000 -0.2189518768
C   C9        1.0  0.51910  0.57810  0.37910  1.0000 0.0808044216
C   C10       1.0  0.05210  0.36440  0.22680  1.0000 0.4180611438
C   C11       1.0  0.73280  0.91910  0.76360  1.0000 0.2883587545
C   C12       1.0  0.94840  0.49980  0.11700  1.0000 -0.1779396766
C   C13       1.0  0.38200  0.46400  0.79320  1.0000 0.0808044216
C   C14       1.0  0.83630  0.24530  0.12930  1.0000 -0.1510046058
C   C15       1.0  0.26880  0.46490  0.73600  1.0000 -0.1889861905
C   C16       1.0  0.73130  0.24600  0.06610  1.0000 0.0808044216
C   C17       1.0  0.13910  0.34370  0.72450  1.0000 0.0183046042
C   C18       1.0  0.52330  0.44610  0.40900  1.0000 -0.1300729485
C   C19       1.0  0.25070  0.23840  0.83140  1.0000 0.094378314
C   C20       1.0  0.63870  0.44230  0.46370  1.0000 -0.1300729485
C   C21       1.0  0.61730  0.16550  0.87420  1.0000 0.5423575705
C   C22       1.0  0.65200  0.03930  0.85150  1.0000 -0.01124208
C   C23       1.0  0.87920  0.56980  0.54940  1.0000 -0.01124208
C   C24       1.0  0.63280  0.70510  0.40460  1.0000 -0.1430905246
C   C25       1.0  0.75440  0.56950  0.49040  1.0000 0.0808044216
C   C26       1.0  0.75160  0.70030  0.46060  1.0000 -0.1430905246
C   C27       1.0  0.01100  0.33300  0.66330  1.0000 0.4278015113
C   C28       1.0  0.13060  0.22800  0.77370  1.0000 -0.1705733695
C   C29       1.0  0.16110  0.50860  0.94480  1.0000 0.094378314
C   C30       1.0  0.29110  0.19790  0.18640  1.0000 -0.2277821647
C   C31       1.0  0.34050  0.19640  0.11880  1.0000 -0.023459346
C   C32       1.0  0.37130  0.07700  0.09890  1.0000 -0.1705733695
C   C33       1.0  0.05300  0.62620  0.84380  1.0000 0.0263524233
C   C34       1.0  0.36400  0.32580  0.06730  1.0000 0.5693543023
C   C35       1.0  0.60370  0.41660  0.68070  1.0000 -0.0026836621
C   C36       1.0  0.29580  0.96040  0.21440  1.0000 -0.2189518768
C   C37       1.0  0.48090  0.42190  0.62090  1.0000 0.0808044216
C   C38       1.0  0.94790  0.63560  0.77320  1.0000 0.4180611438
C   C39       1.0  0.26720  0.08090  0.23640  1.0000 0.2883587545
C   C40       1.0  0.05160  0.50020  0.88300  1.0000 -0.1779396766
C   C41       1.0  0.61800  0.53600  0.20680  1.0000 0.0808044216
C   C42       1.0  0.16370  0.75470  0.87070  1.0000 -0.1510046058
C   C43       1.0  0.73120  0.53510  0.26400  1.0000 -0.1889861905
C   C44       1.0  0.26870  0.75400  0.93390  1.0000 0.0808044216
C   C45       1.0  0.86090  0.65630  0.27550  1.0000 0.0183046042
C   C46       1.0  0.47670  0.55390  0.59100  1.0000 -0.1300729485
C   C47       1.0  0.74930  0.76160  0.16860  1.0000 0.094378314
C   C48       1.0  0.36130  0.55770  0.53630  1.0000 -0.1300729485
C   C49       1.0  0.38270  0.83450  0.12580  1.0000 0.5423575705
C   C50       1.0  0.34800  0.96070  0.14850  1.0000 -0.01124208
C   C51       1.0  0.12080  0.43020  0.45060  1.0000 -0.01124208
C   C52       1.0  0.36720  0.29490  0.59540  1.0000 -0.1430905246
C   C53       1.0  0.24560  0.43050  0.50960  1.0000 0.0808044216
C   C54       1.0  0.24840  0.29970  0.53940  1.0000 -0.1430905246
C   C55       1.0  0.98900  0.66700  0.33670  1.0000 0.4278015113
C   C56       1.0  0.86940  0.77200  0.22630  1.0000 -0.1705733695
N   N1        1.0  0.28340  0.46940  0.30130  1.0000 -0.1186269083
N   N2        1.0  0.17870  0.48190  0.24270  1.0000 -0.2189518768
N   N3        1.0  0.73080  0.36850  0.02920  1.0000 -0.2277821647
N   N4        1.0  0.37610  0.35320  0.84090  1.0000 -0.2189518768
N   N5        1.0  0.00620  0.45660  0.63020  1.0000 -0.2434504861
N   N6        1.0  0.88740  0.44720  0.57360  1.0000 -0.1186269083
N   N7        1.0  0.77190  0.91230  0.69460  1.0000 -0.5842443639
N   N8        1.0  0.71660  0.53060  0.69870  1.0000 -0.1186269083
N   N9        1.0  0.82130  0.51810  0.75730  1.0000 -0.2189518768
N   N10       1.0  0.26920  0.63150  0.97080  1.0000 -0.2277821647
N   N11       1.0  0.62390  0.64680  0.15910  1.0000 -0.2189518768
N   N12       1.0  0.99380  0.54340  0.36980  1.0000 -0.2434504861
N   N13       1.0  0.11260  0.55280  0.42640  1.0000 -0.1186269083
N   N14       1.0  0.22810  0.08770  0.30540  1.0000 -0.5863681966
O   O1        1.0  0.65710  0.56860  0.90830  1.0000 -0.5502123171
O   O2        1.0  0.59790  0.67880  0.99550  1.0000 -0.5502123171
O   O3        1.0  0.52360  0.14570  0.91730  1.0000 -0.5347950393
O   O4        1.0  0.02150  0.25730  0.26590  1.0000 -0.4529202664
O   O5        1.0  0.68320  0.28980  0.84960  1.0000 -0.5728149348
O   O6        1.0  0.91540  0.21550  0.64460  1.0000 -0.4409438902
O   O7        1.0  0.34290  0.43140  0.09170  1.0000 -0.5502123171
O   O8        1.0  0.40210  0.32120  0.00450  1.0000 -0.5502123171
O   O9        1.0  0.47640  0.85430  0.08270  1.0000 -0.5347950393
O   O10       1.0  0.97850  0.74270  0.73410  1.0000 -0.4529202664
O   O11       1.0  0.31680  0.71020  0.15040  1.0000 -0.5728149348
O   O12       1.0  0.08460  0.78450  0.35540  1.0000 -0.4409438902
