# DDEC6 charges by PACMAN v1.1 (https://github.com/mtap-research/PACMAN-charge/)
data_2020[Co][nan]3[ASR]23
_chemical_formula_sum              "Co6 H18 C18 N18 O6"
_cell_length_a       14.3554
_cell_length_b       14.3554
_cell_length_c       14.3554
_cell_angle_alpha    116.892
_cell_angle_beta     116.892
_cell_angle_gamma    116.892

_symmetry_space_group_name_H-M    "P 1"
_symmetry_Int_Tables_number       1

loop_
  _symmetry_equiv_pos_as_xyz
  'x, y, z'

loop_
  _atom_site_type_symbol
  _atom_site_label
  _atom_site_symmetry_multiplicity
  _atom_site_fract_x
  _atom_site_fract_y
  _atom_site_fract_z
  _atom_site_occupancy
  _atom_site_charge
Co  Co1       1.0  0.29024  0.00000  0.70976  1.0000 0.5733956953
Co  Co2       1.0  0.00000  0.70976  0.29024  1.0000 0.5733956953
Co  Co3       1.0  0.70976  0.29024  0.00000  1.0000 0.5733956953
Co  Co4       1.0  0.70976  0.00000  0.29024  1.0000 0.5733956953
Co  Co5       1.0  0.00000  0.29024  0.70976  1.0000 0.5733956953
Co  Co6       1.0  0.29024  0.70976  0.00000  1.0000 0.5733956953
H   H1        1.0  0.17040  0.01970  0.55650  1.0000 0.3432047352
H   H2        1.0  0.01970  0.55650  0.17040  1.0000 0.3432047352
H   H3        1.0  0.55650  0.17040  0.01970  1.0000 0.3432047352
H   H4        1.0  0.98030  0.82960  0.44350  1.0000 0.3432047352
H   H5        1.0  0.44350  0.98030  0.82960  1.0000 0.3432047352
H   H6        1.0  0.82960  0.44350  0.98030  1.0000 0.3432047352
H   H7        1.0  0.82960  0.98030  0.44350  1.0000 0.3432047352
H   H8        1.0  0.98030  0.44350  0.82960  1.0000 0.3432047352
H   H9        1.0  0.44350  0.82960  0.98030  1.0000 0.3432047352
H   H10       1.0  0.01970  0.17040  0.55650  1.0000 0.3432047352
H   H11       1.0  0.55650  0.01970  0.17040  1.0000 0.3432047352
H   H12       1.0  0.17040  0.55650  0.01970  1.0000 0.3432047352
H   H13       1.0  0.26420  0.82760  0.82760  1.0000 0.0821487616
H   H14       1.0  0.82760  0.82760  0.26420  1.0000 0.0821487616
H   H15       1.0  0.82760  0.26420  0.82760  1.0000 0.0821487616
H   H16       1.0  0.17240  0.73580  0.17240  1.0000 0.0821487616
H   H17       1.0  0.17240  0.17240  0.73580  1.0000 0.0821487616
H   H18       1.0  0.73580  0.17240  0.17240  1.0000 0.0821487616
C   C1        1.0  0.07617  0.64108  0.54725  1.0000 0.093152262
C   C2        1.0  0.64108  0.54725  0.07617  1.0000 0.093152262
C   C3        1.0  0.54725  0.07617  0.64108  1.0000 0.093152262
C   C4        1.0  0.35892  0.92383  0.45275  1.0000 0.093152262
C   C5        1.0  0.45275  0.35892  0.92383  1.0000 0.093152262
C   C6        1.0  0.92383  0.45275  0.35892  1.0000 0.093152262
C   C7        1.0  0.92383  0.35892  0.45275  1.0000 0.093152262
C   C8        1.0  0.35892  0.45275  0.92383  1.0000 0.093152262
C   C9        1.0  0.45275  0.92383  0.35892  1.0000 0.093152262
C   C10       1.0  0.64108  0.07617  0.54725  1.0000 0.093152262
C   C11       1.0  0.54725  0.64108  0.07617  1.0000 0.093152262
C   C12       1.0  0.07617  0.54725  0.64108  1.0000 0.093152262
C   C13       1.0  0.15670  0.69190  0.69190  1.0000 -0.2840850492
C   C14       1.0  0.69190  0.69190  0.15670  1.0000 -0.2840850492
C   C15       1.0  0.69190  0.15670  0.69190  1.0000 -0.2840850492
C   C16       1.0  0.30810  0.84330  0.30810  1.0000 -0.2840850492
C   C17       1.0  0.30810  0.30810  0.84330  1.0000 -0.2840850492
C   C18       1.0  0.84330  0.30810  0.30810  1.0000 -0.2840850492
N   N1        1.0  0.11933  0.74537  0.54470  1.0000 -0.2723996604
N   N2        1.0  0.74537  0.54470  0.11933  1.0000 -0.2723996604
N   N3        1.0  0.54470  0.11933  0.74537  1.0000 -0.2723996604
N   N4        1.0  0.25463  0.88067  0.45530  1.0000 -0.2723996604
N   N5        1.0  0.45530  0.25463  0.88067  1.0000 -0.2723996604
N   N6        1.0  0.88067  0.45530  0.25463  1.0000 -0.2723996604
N   N7        1.0  0.88067  0.25463  0.45530  1.0000 -0.2723996604
N   N8        1.0  0.25463  0.45530  0.88067  1.0000 -0.2723996604
N   N9        1.0  0.45530  0.88067  0.25463  1.0000 -0.2723996604
N   N10       1.0  0.74537  0.11933  0.54470  1.0000 -0.2723996604
N   N11       1.0  0.54470  0.74537  0.11933  1.0000 -0.2723996604
N   N12       1.0  0.11933  0.54470  0.74537  1.0000 -0.2723996604
N   N13       1.0  0.37030  0.00000  0.62970  1.0000 -0.0543285487
N   N14       1.0  0.00000  0.62970  0.37030  1.0000 -0.0543285487
N   N15       1.0  0.62970  0.37030  0.00000  1.0000 -0.0543285487
N   N16       1.0  0.62970  0.00000  0.37030  1.0000 -0.0543285487
N   N17       1.0  0.00000  0.37030  0.62970  1.0000 -0.0543285487
N   N18       1.0  0.37030  0.62970  0.00000  1.0000 -0.0543285487
O   O1        1.0  0.09604  0.90396  0.50000  1.0000 -0.6453275701
O   O2        1.0  0.90396  0.50000  0.09604  1.0000 -0.6453275701
O   O3        1.0  0.50000  0.09604  0.90396  1.0000 -0.6453275701
O   O4        1.0  0.90396  0.09604  0.50000  1.0000 -0.6453275701
O   O5        1.0  0.09604  0.50000  0.90396  1.0000 -0.6436353465
O   O6        1.0  0.50000  0.90396  0.09604  1.0000 -0.6453275701
