# DDEC6 charges by PACMAN v1.1 (https://github.com/mtap-research/PACMAN-charge/)
data_2020[Mn][cds]3[ASR]1
_chemical_formula_sum              "Mn8 H112 C96 O40"
_cell_length_a       22.3208
_cell_length_b       22.3208
_cell_length_c       8.1027
_cell_angle_alpha    90
_cell_angle_beta     90
_cell_angle_gamma    90

_symmetry_space_group_name_H-M    "P 1"
_symmetry_Int_Tables_number       1

loop_
  _symmetry_equiv_pos_as_xyz
  'x, y, z'

loop_
  _atom_site_type_symbol
  _atom_site_label
  _atom_site_symmetry_multiplicity
  _atom_site_fract_x
  _atom_site_fract_y
  _atom_site_fract_z
  _atom_site_occupancy
  _atom_site_charge
Mn  Mn1       1.0  0.25586  0.75623  0.75903  1.0000 1.0271589683
Mn  Mn2       1.0  0.74414  0.24377  0.75903  1.0000 1.0271589683
Mn  Mn3       1.0  0.24377  0.25586  0.24097  1.0000 1.0271589683
Mn  Mn4       1.0  0.75623  0.74414  0.24097  1.0000 1.0271589683
Mn  Mn5       1.0  0.24414  0.25623  0.74097  1.0000 1.0271589683
Mn  Mn6       1.0  0.75586  0.74377  0.74097  1.0000 1.0271589683
Mn  Mn7       1.0  0.25623  0.75586  0.25903  1.0000 1.0271589683
Mn  Mn8       1.0  0.74377  0.24414  0.25903  1.0000 1.0271589683
H   H1        1.0  0.32381  0.73290  0.50001  1.0000 0.3800187933
H   H2        1.0  0.27152  0.69113  0.51239  1.0000 0.3746729942
H   H3        1.0  0.25275  0.50672  0.63157  1.0000 0.1310398299
H   H4        1.0  0.16765  0.41730  0.99140  1.0000 0.1199215671
H   H5        1.0  0.17596  0.59611  0.00593  1.0000 0.1199215671
H   H6        1.0  0.04937  0.53134  0.08096  1.0000 0.1310398299
H   H7        1.0  0.08624  0.58763  0.13646  1.0000 0.1199215671
H   H8        1.0  0.05188  0.54923  0.26793  1.0000 0.1310398299
H   H9        1.0  0.08360  0.42941  0.15830  1.0000 0.1310398299
H   H10       1.0  0.08569  0.44977  0.34337  1.0000 0.1310398299
H   H11       1.0  0.14230  0.42064  0.26172  1.0000 0.1310398299
H   H12       1.0  0.18308  0.57318  0.29241  1.0000 0.1310398299
H   H13       1.0  0.20299  0.50842  0.34333  1.0000 0.1399134325
H   H14       1.0  0.14637  0.53756  0.42498  1.0000 0.1310398299
H   H15       1.0  0.67619  0.26710  0.50001  1.0000 0.3800187933
H   H16       1.0  0.72848  0.30887  0.51239  1.0000 0.3746729942
H   H17       1.0  0.74725  0.49328  0.63157  1.0000 0.1310398299
H   H18       1.0  0.83235  0.58270  0.99140  1.0000 0.1199215671
H   H19       1.0  0.82404  0.40389  0.00593  1.0000 0.1199215671
H   H20       1.0  0.95063  0.46866  0.08096  1.0000 0.1310398299
H   H21       1.0  0.91376  0.41237  0.13646  1.0000 0.1199215671
H   H22       1.0  0.94812  0.45077  0.26793  1.0000 0.1310398299
H   H23       1.0  0.91640  0.57059  0.15830  1.0000 0.1310398299
H   H24       1.0  0.91431  0.55023  0.34337  1.0000 0.1310398299
H   H25       1.0  0.85770  0.57936  0.26172  1.0000 0.1310398299
H   H26       1.0  0.81692  0.42682  0.29241  1.0000 0.1310398299
H   H27       1.0  0.79701  0.49158  0.34333  1.0000 0.1399134325
H   H28       1.0  0.85363  0.46244  0.42498  1.0000 0.1310398299
H   H29       1.0  0.26710  0.32381  0.49999  1.0000 0.3800187933
H   H30       1.0  0.30887  0.27152  0.48761  1.0000 0.3746729942
H   H31       1.0  0.49328  0.25275  0.36843  1.0000 0.1310398299
H   H32       1.0  0.58270  0.16765  0.00860  1.0000 0.1199215671
H   H33       1.0  0.40389  0.17596  0.99407  1.0000 0.1199215671
H   H34       1.0  0.46866  0.04937  0.91904  1.0000 0.1310398299
H   H35       1.0  0.41237  0.08624  0.86354  1.0000 0.1199215671
H   H36       1.0  0.45077  0.05188  0.73207  1.0000 0.1310398299
H   H37       1.0  0.57059  0.08360  0.84170  1.0000 0.1310398299
H   H38       1.0  0.55023  0.08569  0.65663  1.0000 0.1310398299
H   H39       1.0  0.57936  0.14230  0.73828  1.0000 0.1310398299
H   H40       1.0  0.42682  0.18308  0.70759  1.0000 0.1310398299
H   H41       1.0  0.49158  0.20299  0.65667  1.0000 0.1399134325
H   H42       1.0  0.46244  0.14637  0.57502  1.0000 0.1310398299
H   H43       1.0  0.73290  0.67619  0.49999  1.0000 0.3800187933
H   H44       1.0  0.69113  0.72848  0.48761  1.0000 0.3746729942
H   H45       1.0  0.50672  0.74725  0.36843  1.0000 0.1310398299
H   H46       1.0  0.41730  0.83235  0.00860  1.0000 0.1199215671
H   H47       1.0  0.59611  0.82404  0.99407  1.0000 0.1199215671
H   H48       1.0  0.53134  0.95063  0.91904  1.0000 0.1310398299
H   H49       1.0  0.58763  0.91376  0.86354  1.0000 0.1199215671
H   H50       1.0  0.54923  0.94812  0.73207  1.0000 0.1310398299
H   H51       1.0  0.42941  0.91640  0.84170  1.0000 0.1310398299
H   H52       1.0  0.44977  0.91431  0.65663  1.0000 0.1310398299
H   H53       1.0  0.42064  0.85770  0.73828  1.0000 0.1310398299
H   H54       1.0  0.57318  0.81692  0.70759  1.0000 0.1310398299
H   H55       1.0  0.50842  0.79701  0.65667  1.0000 0.1399134325
H   H56       1.0  0.53756  0.85363  0.57502  1.0000 0.1310398299
H   H57       1.0  0.17619  0.23290  0.99999  1.0000 0.3800187933
H   H58       1.0  0.22848  0.19113  0.98761  1.0000 0.3746729942
H   H59       1.0  0.24725  0.00672  0.86843  1.0000 0.1310398299
H   H60       1.0  0.33235  0.91730  0.50860  1.0000 0.1199215671
H   H61       1.0  0.32404  0.09611  0.49407  1.0000 0.1199215671
H   H62       1.0  0.45063  0.03134  0.41904  1.0000 0.1310398299
H   H63       1.0  0.41376  0.08763  0.36354  1.0000 0.1199215671
H   H64       1.0  0.44812  0.04923  0.23207  1.0000 0.1310398299
H   H65       1.0  0.41640  0.92941  0.34170  1.0000 0.1310398299
H   H66       1.0  0.41431  0.94977  0.15663  1.0000 0.1310398299
H   H67       1.0  0.35770  0.92064  0.23828  1.0000 0.1310398299
H   H68       1.0  0.31692  0.07318  0.20759  1.0000 0.1310398299
H   H69       1.0  0.29701  0.00842  0.15667  1.0000 0.1399134325
H   H70       1.0  0.35363  0.03756  0.07502  1.0000 0.1310398299
H   H71       1.0  0.82381  0.76710  0.99999  1.0000 0.3800187933
H   H72       1.0  0.77152  0.80887  0.98761  1.0000 0.3746729942
H   H73       1.0  0.75275  0.99328  0.86843  1.0000 0.1310398299
H   H74       1.0  0.66765  0.08270  0.50860  1.0000 0.1199215671
H   H75       1.0  0.67596  0.90389  0.49407  1.0000 0.1199215671
H   H76       1.0  0.54937  0.96866  0.41904  1.0000 0.1310398299
H   H77       1.0  0.58624  0.91237  0.36354  1.0000 0.1199215671
H   H78       1.0  0.55188  0.95077  0.23207  1.0000 0.1310398299
H   H79       1.0  0.58360  0.07059  0.34170  1.0000 0.1310398299
H   H80       1.0  0.58569  0.05023  0.15663  1.0000 0.1310398299
H   H81       1.0  0.64230  0.07936  0.23828  1.0000 0.1310398299
H   H82       1.0  0.68308  0.92682  0.20759  1.0000 0.1310398299
H   H83       1.0  0.70299  0.99158  0.15667  1.0000 0.1399134325
H   H84       1.0  0.64637  0.96244  0.07502  1.0000 0.1310398299
H   H85       1.0  0.23290  0.82381  0.00001  1.0000 0.3800187933
H   H86       1.0  0.19113  0.77152  0.01239  1.0000 0.3746729942
H   H87       1.0  0.00672  0.75275  0.13157  1.0000 0.1310398299
H   H88       1.0  0.91730  0.66765  0.49140  1.0000 0.1199215671
H   H89       1.0  0.09611  0.67596  0.50593  1.0000 0.1199215671
H   H90       1.0  0.03134  0.54937  0.58096  1.0000 0.1310398299
H   H91       1.0  0.08763  0.58624  0.63646  1.0000 0.1199215671
H   H92       1.0  0.04923  0.55188  0.76793  1.0000 0.1310398299
H   H93       1.0  0.92941  0.58360  0.65830  1.0000 0.1310398299
H   H94       1.0  0.94977  0.58569  0.84337  1.0000 0.1310398299
H   H95       1.0  0.92064  0.64230  0.76172  1.0000 0.1310398299
H   H96       1.0  0.07318  0.68308  0.79241  1.0000 0.1310398299
H   H97       1.0  0.00842  0.70299  0.84333  1.0000 0.1399134325
H   H98       1.0  0.03756  0.64637  0.92498  1.0000 0.1310398299
H   H99       1.0  0.76710  0.17619  0.00001  1.0000 0.3800187933
H   H100      1.0  0.80887  0.22848  0.01239  1.0000 0.3746729942
H   H101      1.0  0.99328  0.24725  0.13157  1.0000 0.1310398299
H   H102      1.0  0.08270  0.33235  0.49140  1.0000 0.1199215671
H   H103      1.0  0.90389  0.32404  0.50593  1.0000 0.1199215671
H   H104      1.0  0.96866  0.45063  0.58096  1.0000 0.1310398299
H   H105      1.0  0.91237  0.41376  0.63646  1.0000 0.1199215671
H   H106      1.0  0.95077  0.44812  0.76793  1.0000 0.1310398299
H   H107      1.0  0.07059  0.41640  0.65830  1.0000 0.1310398299
H   H108      1.0  0.05023  0.41431  0.84337  1.0000 0.1310398299
H   H109      1.0  0.07936  0.35770  0.76172  1.0000 0.1310398299
H   H110      1.0  0.92682  0.31692  0.79241  1.0000 0.1310398299
H   H111      1.0  0.99158  0.29701  0.84333  1.0000 0.1399134325
H   H112      1.0  0.96244  0.35363  0.92498  1.0000 0.1310398299
C   C1        1.0  0.24021  0.61794  0.73730  1.0000 0.5761019366
C   C2        1.0  0.23037  0.39459  0.72140  1.0000 0.5709676968
C   C3        1.0  0.21850  0.55993  0.80980  1.0000 -0.0391507799
C   C4        1.0  0.23174  0.50660  0.73070  1.0000 -0.1144077627
C   C5        1.0  0.21330  0.45290  0.80090  1.0000 -0.0325938005
C   C6        1.0  0.18009  0.45350  0.94610  1.0000 -0.1267107546
C   C7        1.0  0.16498  0.50642  0.02550  1.0000 0.051521227
C   C8        1.0  0.18507  0.55989  0.95500  1.0000 -0.1267107546
C   C9        1.0  0.13009  0.50817  0.18970  1.0000 0.2719521226
C   C10       1.0  0.07410  0.54780  0.16660  1.0000 -0.4699026325
C   C11       1.0  0.10840  0.44620  0.24320  1.0000 -0.4699026325
C   C12       1.0  0.16920  0.53420  0.32500  1.0000 -0.4532903803
C   C13       1.0  0.75979  0.38206  0.73730  1.0000 0.5761019366
C   C14       1.0  0.76963  0.60541  0.72140  1.0000 0.5709676968
C   C15       1.0  0.78150  0.44007  0.80980  1.0000 -0.0391507799
C   C16       1.0  0.76826  0.49340  0.73070  1.0000 -0.1144077627
C   C17       1.0  0.78670  0.54710  0.80090  1.0000 -0.0325938005
C   C18       1.0  0.81991  0.54650  0.94610  1.0000 -0.1267107546
C   C19       1.0  0.83502  0.49358  0.02550  1.0000 0.051521227
C   C20       1.0  0.81493  0.44011  0.95500  1.0000 -0.1267107546
C   C21       1.0  0.86991  0.49183  0.18970  1.0000 0.2719521226
C   C22       1.0  0.92590  0.45220  0.16660  1.0000 -0.4699026325
C   C23       1.0  0.89160  0.55380  0.24320  1.0000 -0.4699026325
C   C24       1.0  0.83080  0.46580  0.32500  1.0000 -0.4532903803
C   C25       1.0  0.38206  0.24021  0.26270  1.0000 0.5761019366
C   C26       1.0  0.60541  0.23037  0.27860  1.0000 0.5709676968
C   C27       1.0  0.44007  0.21850  0.19020  1.0000 -0.0391507799
C   C28       1.0  0.49340  0.23174  0.26930  1.0000 -0.1144077627
C   C29       1.0  0.54710  0.21330  0.19910  1.0000 -0.0325938005
C   C30       1.0  0.54650  0.18009  0.05390  1.0000 -0.1267107546
C   C31       1.0  0.49358  0.16498  0.97450  1.0000 0.051521227
C   C32       1.0  0.44011  0.18507  0.04500  1.0000 -0.1267107546
C   C33       1.0  0.49183  0.13009  0.81030  1.0000 0.2719521226
C   C34       1.0  0.45220  0.07410  0.83340  1.0000 -0.4699026325
C   C35       1.0  0.55380  0.10840  0.75680  1.0000 -0.4699026325
C   C36       1.0  0.46580  0.16920  0.67500  1.0000 -0.4532903803
C   C37       1.0  0.61794  0.75979  0.26270  1.0000 0.5761019366
C   C38       1.0  0.39459  0.76963  0.27860  1.0000 0.5709676968
C   C39       1.0  0.55993  0.78150  0.19020  1.0000 -0.0391507799
C   C40       1.0  0.50660  0.76826  0.26930  1.0000 -0.1144077627
C   C41       1.0  0.45290  0.78670  0.19910  1.0000 -0.0325938005
C   C42       1.0  0.45350  0.81991  0.05390  1.0000 -0.1267107546
C   C43       1.0  0.50642  0.83502  0.97450  1.0000 0.051521227
C   C44       1.0  0.55989  0.81493  0.04500  1.0000 -0.1267107546
C   C45       1.0  0.50817  0.86991  0.81030  1.0000 0.2719521226
C   C46       1.0  0.54780  0.92590  0.83340  1.0000 -0.4699026325
C   C47       1.0  0.44620  0.89160  0.75680  1.0000 -0.4699026325
C   C48       1.0  0.53420  0.83080  0.67500  1.0000 -0.4532903803
C   C49       1.0  0.25979  0.11794  0.76270  1.0000 0.5761019366
C   C50       1.0  0.26963  0.89459  0.77860  1.0000 0.5709676968
C   C51       1.0  0.28150  0.05993  0.69020  1.0000 -0.0391507799
C   C52       1.0  0.26826  0.00660  0.76930  1.0000 -0.1144077627
C   C53       1.0  0.28670  0.95290  0.69910  1.0000 -0.0325938005
C   C54       1.0  0.31991  0.95350  0.55390  1.0000 -0.1267107546
C   C55       1.0  0.33502  0.00642  0.47450  1.0000 0.051521227
C   C56       1.0  0.31493  0.05989  0.54500  1.0000 -0.1267107546
C   C57       1.0  0.36991  0.00817  0.31030  1.0000 0.2719521226
C   C58       1.0  0.42590  0.04780  0.33340  1.0000 -0.4699026325
C   C59       1.0  0.39160  0.94620  0.25680  1.0000 -0.4699026325
C   C60       1.0  0.33080  0.03420  0.17500  1.0000 -0.4532903803
C   C61       1.0  0.74021  0.88206  0.76270  1.0000 0.5761019366
C   C62       1.0  0.73037  0.10541  0.77860  1.0000 0.5709676968
C   C63       1.0  0.71850  0.94007  0.69020  1.0000 -0.0391507799
C   C64       1.0  0.73174  0.99340  0.76930  1.0000 -0.1144077627
C   C65       1.0  0.71330  0.04710  0.69910  1.0000 -0.0325938005
C   C66       1.0  0.68009  0.04650  0.55390  1.0000 -0.1267107546
C   C67       1.0  0.66498  0.99358  0.47450  1.0000 0.051521227
C   C68       1.0  0.68507  0.94011  0.54500  1.0000 -0.1267107546
C   C69       1.0  0.63009  0.99183  0.31030  1.0000 0.2719521226
C   C70       1.0  0.57410  0.95220  0.33340  1.0000 -0.4699026325
C   C71       1.0  0.60840  0.05380  0.25680  1.0000 -0.4699026325
C   C72       1.0  0.66920  0.96580  0.17500  1.0000 -0.4532903803
C   C73       1.0  0.11794  0.74021  0.23730  1.0000 0.5761019366
C   C74       1.0  0.89459  0.73037  0.22140  1.0000 0.5709676968
C   C75       1.0  0.05993  0.71850  0.30980  1.0000 -0.0391507799
C   C76       1.0  0.00660  0.73174  0.23070  1.0000 -0.1144077627
C   C77       1.0  0.95290  0.71330  0.30090  1.0000 -0.0325938005
C   C78       1.0  0.95350  0.68009  0.44610  1.0000 -0.1267107546
C   C79       1.0  0.00642  0.66498  0.52550  1.0000 0.051521227
C   C80       1.0  0.05989  0.68507  0.45500  1.0000 -0.1267107546
C   C81       1.0  0.00817  0.63009  0.68970  1.0000 0.2719521226
C   C82       1.0  0.04780  0.57410  0.66667  1.0000 -0.4699026325
C   C83       1.0  0.94620  0.60840  0.74320  1.0000 -0.4699026325
C   C84       1.0  0.03420  0.66920  0.82500  1.0000 -0.4532903803
C   C85       1.0  0.88206  0.25979  0.23730  1.0000 0.5761019366
C   C86       1.0  0.10541  0.26963  0.22140  1.0000 0.5709676968
C   C87       1.0  0.94007  0.28150  0.30980  1.0000 -0.0391507799
C   C88       1.0  0.99340  0.26826  0.23070  1.0000 -0.1144077627
C   C89       1.0  0.04710  0.28670  0.30090  1.0000 -0.0325938005
C   C90       1.0  0.04650  0.31991  0.44610  1.0000 -0.1267107546
C   C91       1.0  0.99358  0.33502  0.52550  1.0000 0.051521227
C   C92       1.0  0.94011  0.31493  0.45500  1.0000 -0.1267107546
C   C93       1.0  0.99183  0.36991  0.68970  1.0000 0.2719521226
C   C94       1.0  0.95220  0.42590  0.66667  1.0000 -0.4699026325
C   C95       1.0  0.05380  0.39160  0.74320  1.0000 -0.4699026325
C   C96       1.0  0.96580  0.33080  0.82500  1.0000 -0.4532903803
O   O1        1.0  0.28669  0.72619  0.50910  1.0000 -0.7174165619
O   O2        1.0  0.23449  0.66522  0.82420  1.0000 -0.6037455944
O   O3        1.0  0.26286  0.61772  0.59570  1.0000 -0.5313709078
O   O4        1.0  0.25034  0.39521  0.57770  1.0000 -0.5313709078
O   O5        1.0  0.22394  0.34761  0.80600  1.0000 -0.5838170422
O   O6        1.0  0.71331  0.27381  0.50910  1.0000 -0.7174165619
O   O7        1.0  0.76551  0.33478  0.82420  1.0000 -0.6037455944
O   O8        1.0  0.73714  0.38228  0.59570  1.0000 -0.5313709078
O   O9        1.0  0.74966  0.60479  0.57770  1.0000 -0.5313709078
O   O10       1.0  0.77606  0.65239  0.80600  1.0000 -0.5838170422
O   O11       1.0  0.27381  0.28669  0.49090  1.0000 -0.7174165619
O   O12       1.0  0.33478  0.23449  0.17580  1.0000 -0.6037455944
O   O13       1.0  0.38228  0.26286  0.40430  1.0000 -0.5313709078
O   O14       1.0  0.60479  0.25034  0.42230  1.0000 -0.5313709078
O   O15       1.0  0.65239  0.22394  0.19400  1.0000 -0.5838170422
O   O16       1.0  0.72619  0.71331  0.49090  1.0000 -0.7174165619
O   O17       1.0  0.66522  0.76551  0.17580  1.0000 -0.6037455944
O   O18       1.0  0.61772  0.73714  0.40430  1.0000 -0.5313709078
O   O19       1.0  0.39521  0.74966  0.42230  1.0000 -0.5313709078
O   O20       1.0  0.34761  0.77606  0.19400  1.0000 -0.5838170422
O   O21       1.0  0.21331  0.22619  0.99090  1.0000 -0.7174165619
O   O22       1.0  0.26551  0.16522  0.67580  1.0000 -0.6037455944
O   O23       1.0  0.23714  0.11772  0.90430  1.0000 -0.5313709078
O   O24       1.0  0.24966  0.89521  0.92230  1.0000 -0.5313709078
O   O25       1.0  0.27606  0.84761  0.69400  1.0000 -0.5838170422
O   O26       1.0  0.78669  0.77381  0.99090  1.0000 -0.7174165619
O   O27       1.0  0.73449  0.83478  0.67580  1.0000 -0.6037455944
O   O28       1.0  0.76286  0.88228  0.90430  1.0000 -0.5313709078
O   O29       1.0  0.75034  0.10479  0.92230  1.0000 -0.5313709078
O   O30       1.0  0.72394  0.15239  0.69400  1.0000 -0.5838170422
O   O31       1.0  0.22619  0.78669  0.00910  1.0000 -0.7174165619
O   O32       1.0  0.16522  0.73449  0.32420  1.0000 -0.6037455944
O   O33       1.0  0.11772  0.76286  0.09570  1.0000 -0.5313709078
O   O34       1.0  0.89521  0.75034  0.07770  1.0000 -0.5313709078
O   O35       1.0  0.84761  0.72394  0.30600  1.0000 -0.5838170422
O   O36       1.0  0.77381  0.21331  0.00910  1.0000 -0.7174165619
O   O37       1.0  0.83478  0.26551  0.32420  1.0000 -0.6037455944
O   O38       1.0  0.88228  0.23714  0.09570  1.0000 -0.5313709078
O   O39       1.0  0.10479  0.24966  0.07770  1.0000 -0.5313709078
O   O40       1.0  0.15239  0.27606  0.30600  1.0000 -0.5838170422
