# DDEC6 charges by PACMAN v1.1 (https://github.com/mtap-research/PACMAN-charge/)
data_2020[Cd][sql]2[ASR]4
_chemical_formula_sum              "Cd8 H96 C160 N16 O32"
_cell_length_a       11.905
_cell_length_b       19.283
_cell_length_c       18.462
_cell_angle_alpha    90
_cell_angle_beta     98.6
_cell_angle_gamma    90

_symmetry_space_group_name_H-M    "P 1"
_symmetry_Int_Tables_number       1

loop_
  _symmetry_equiv_pos_as_xyz
  'x, y, z'

loop_
  _atom_site_type_symbol
  _atom_site_label
  _atom_site_symmetry_multiplicity
  _atom_site_fract_x
  _atom_site_fract_y
  _atom_site_fract_z
  _atom_site_occupancy
  _atom_site_charge
Cd  Cd1       1.0  0.65608  0.89528  0.28669  1.0000 0.8723323295
Cd  Cd2       1.0  0.33284  0.89072  0.21759  1.0000 0.8723323295
Cd  Cd3       1.0  0.34392  0.10472  0.71331  1.0000 0.8723323295
Cd  Cd4       1.0  0.66716  0.10928  0.78241  1.0000 0.8723323295
Cd  Cd5       1.0  0.34392  0.39528  0.21331  1.0000 0.8723323295
Cd  Cd6       1.0  0.66716  0.39072  0.28241  1.0000 0.8723323295
Cd  Cd7       1.0  0.65608  0.60472  0.78669  1.0000 0.8723323295
Cd  Cd8       1.0  0.33284  0.60928  0.71759  1.0000 0.8723323295
H   H1        1.0  0.38910  0.91030  0.03780  1.0000 0.1185864342
H   H2        1.0  0.35180  0.95140  0.91740  1.0000 0.1132037711
H   H3        1.0  0.59920  0.91040  0.45170  1.0000 0.1185864342
H   H4        1.0  0.65640  0.94790  0.57230  1.0000 0.1132037711
H   H5        1.0  0.95330  0.05440  0.38640  1.0000 0.1132037711
H   H6        1.0  0.10390  0.09600  0.47050  1.0000 0.1185864342
H   H7        1.0  0.09410  0.06800  0.09520  1.0000 0.1132037711
H   H8        1.0  0.94860  0.11590  0.01120  1.0000 0.1185864342
H   H9        1.0  0.86660  0.91630  0.18840  1.0000 0.1132037711
H   H10       1.0  0.99590  0.85270  0.13140  1.0000 0.1296039689
H   H11       1.0  0.99460  0.73210  0.13800  1.0000 0.1296039689
H   H12       1.0  0.62660  0.58340  0.32820  1.0000 0.1419241415
H   H13       1.0  0.50180  0.65540  0.37910  1.0000 0.1296039689
H   H14       1.0  0.50860  0.77520  0.36080  1.0000 0.1132037711
H   H15       1.0  0.91020  0.62270  0.18500  1.0000 0.1296039689
H   H16       1.0  0.78500  0.57150  0.25150  1.0000 0.1419241415
H   H17       1.0  0.47510  0.76650  0.14490  1.0000 0.1132037711
H   H18       1.0  0.48720  0.64590  0.13670  1.0000 0.1296039689
H   H19       1.0  0.37040  0.57630  0.19710  1.0000 0.1419241415
H   H20       1.0  0.99630  0.73430  0.37510  1.0000 0.1296039689
H   H21       1.0  0.99110  0.85510  0.37200  1.0000 0.1296039689
H   H22       1.0  0.12230  0.91580  0.31460  1.0000 0.1132037711
H   H23       1.0  0.21340  0.56810  0.27600  1.0000 0.1419241415
H   H24       1.0  0.08540  0.62320  0.33760  1.0000 0.1185864342
H   H25       1.0  0.61090  0.08970  0.96220  1.0000 0.1185864342
H   H26       1.0  0.64820  0.04860  0.08260  1.0000 0.1132037711
H   H27       1.0  0.40080  0.08960  0.54830  1.0000 0.1185864342
H   H28       1.0  0.34360  0.05210  0.42770  1.0000 0.1132037711
H   H29       1.0  0.04670  0.94560  0.61360  1.0000 0.1185864342
H   H30       1.0  0.89610  0.90400  0.52950  1.0000 0.1185864342
H   H31       1.0  0.90590  0.93200  0.90480  1.0000 0.1132037711
H   H32       1.0  0.05140  0.88410  0.98880  1.0000 0.1185864342
H   H33       1.0  0.13340  0.08370  0.81160  1.0000 0.1132037711
H   H34       1.0  0.00410  0.14730  0.86860  1.0000 0.1296039689
H   H35       1.0  0.00540  0.26790  0.86200  1.0000 0.1296039689
H   H36       1.0  0.37340  0.41660  0.67180  1.0000 0.1419241415
H   H37       1.0  0.49820  0.34460  0.62090  1.0000 0.1296039689
H   H38       1.0  0.49140  0.22480  0.63920  1.0000 0.1132037711
H   H39       1.0  0.08980  0.37730  0.81500  1.0000 0.1296039689
H   H40       1.0  0.21500  0.42850  0.74850  1.0000 0.1419241415
H   H41       1.0  0.52490  0.23350  0.85510  1.0000 0.1132037711
H   H42       1.0  0.51280  0.35410  0.86330  1.0000 0.1296039689
H   H43       1.0  0.62960  0.42370  0.80290  1.0000 0.1419241415
H   H44       1.0  0.00370  0.26570  0.62490  1.0000 0.1296039689
H   H45       1.0  0.00890  0.14490  0.62800  1.0000 0.1296039689
H   H46       1.0  0.87770  0.08420  0.68540  1.0000 0.1132037711
H   H47       1.0  0.78660  0.43190  0.72400  1.0000 0.1419241415
H   H48       1.0  0.91460  0.37680  0.66240  1.0000 0.1185864342
H   H49       1.0  0.61090  0.41030  0.46220  1.0000 0.1185864342
H   H50       1.0  0.64820  0.45140  0.58260  1.0000 0.1132037711
H   H51       1.0  0.40080  0.41040  0.04830  1.0000 0.1185864342
H   H52       1.0  0.34360  0.44790  0.92770  1.0000 0.1132037711
H   H53       1.0  0.04670  0.55440  0.11360  1.0000 0.1132037711
H   H54       1.0  0.89610  0.59600  0.02950  1.0000 0.1185864342
H   H55       1.0  0.90590  0.56800  0.40480  1.0000 0.1132037711
H   H56       1.0  0.05140  0.61590  0.48880  1.0000 0.1185864342
H   H57       1.0  0.13340  0.41630  0.31160  1.0000 0.1132037711
H   H58       1.0  0.00410  0.35270  0.36860  1.0000 0.1296039689
H   H59       1.0  0.00540  0.23210  0.36200  1.0000 0.1296039689
H   H60       1.0  0.37340  0.08340  0.17180  1.0000 0.1419241415
H   H61       1.0  0.49820  0.15540  0.12090  1.0000 0.1296039689
H   H62       1.0  0.49140  0.27520  0.13920  1.0000 0.1132037711
H   H63       1.0  0.08980  0.12270  0.31500  1.0000 0.1296039689
H   H64       1.0  0.21500  0.07150  0.24850  1.0000 0.1419241415
H   H65       1.0  0.52490  0.26650  0.35510  1.0000 0.1132037711
H   H66       1.0  0.51280  0.14590  0.36330  1.0000 0.1296039689
H   H67       1.0  0.62960  0.07630  0.30290  1.0000 0.1419241415
H   H68       1.0  0.00370  0.23430  0.12490  1.0000 0.1296039689
H   H69       1.0  0.00890  0.35510  0.12800  1.0000 0.1296039689
H   H70       1.0  0.87770  0.41580  0.18540  1.0000 0.1132037711
H   H71       1.0  0.78660  0.06810  0.22400  1.0000 0.1419241415
H   H72       1.0  0.91460  0.12320  0.16240  1.0000 0.1185864342
H   H73       1.0  0.38910  0.58970  0.53780  1.0000 0.1185864342
H   H74       1.0  0.35180  0.54860  0.41740  1.0000 0.1132037711
H   H75       1.0  0.59920  0.58960  0.95170  1.0000 0.1185864342
H   H76       1.0  0.65640  0.55210  0.07230  1.0000 0.1132037711
H   H77       1.0  0.95330  0.44560  0.88640  1.0000 0.1132037711
H   H78       1.0  0.10390  0.40400  0.97050  1.0000 0.1185864342
H   H79       1.0  0.09410  0.43200  0.59520  1.0000 0.1132037711
H   H80       1.0  0.94860  0.38410  0.51120  1.0000 0.1185864342
H   H81       1.0  0.86660  0.58370  0.68840  1.0000 0.1132037711
H   H82       1.0  0.99590  0.64730  0.63140  1.0000 0.1296039689
H   H83       1.0  0.99460  0.76790  0.63800  1.0000 0.1296039689
H   H84       1.0  0.62660  0.91660  0.82820  1.0000 0.1419241415
H   H85       1.0  0.50180  0.84460  0.87910  1.0000 0.1296039689
H   H86       1.0  0.50860  0.72480  0.86080  1.0000 0.1132037711
H   H87       1.0  0.91020  0.87730  0.68500  1.0000 0.1296039689
H   H88       1.0  0.78500  0.92850  0.75150  1.0000 0.1419241415
H   H89       1.0  0.47510  0.73350  0.64490  1.0000 0.1132037711
H   H90       1.0  0.48720  0.85410  0.63670  1.0000 0.1296039689
H   H91       1.0  0.37040  0.92370  0.69710  1.0000 0.1419241415
H   H92       1.0  0.99630  0.76570  0.87510  1.0000 0.1296039689
H   H93       1.0  0.99110  0.64490  0.87200  1.0000 0.1296039689
H   H94       1.0  0.12230  0.58420  0.81460  1.0000 0.1132037711
H   H95       1.0  0.21340  0.93190  0.77600  1.0000 0.1419241415
H   H96       1.0  0.08540  0.87680  0.83760  1.0000 0.1185864342
C   C1        1.0  0.54980  0.94601  0.14789  1.0000 0.5638545329
C   C2        1.0  0.52176  0.97550  0.07180  1.0000 -0.0184866629
C   C3        1.0  0.43390  0.94665  0.02246  1.0000 -0.0991118948
C   C4        1.0  0.41180  0.97101  0.95089  1.0000 -0.1193237471
C   C5        1.0  0.42610  0.95157  0.35168  1.0000 0.5638545329
C   C6        1.0  0.46640  0.97779  0.42798  1.0000 -0.0184866629
C   C7        1.0  0.55910  0.94681  0.47132  1.0000 -0.1115474559
C   C8        1.0  0.59310  0.96894  0.54310  1.0000 -0.1115474559
C   C9        1.0  0.81507  0.94709  0.39436  1.0000 0.541799205
C   C10       1.0  0.91020  0.97495  0.44945  1.0000 -0.0136138773
C   C11       1.0  0.97220  0.03212  0.43257  1.0000 -0.1193237471
C   C12       1.0  0.06160  0.05696  0.48265  1.0000 -0.1115474559
C   C13       1.0  0.18010  0.93985  0.10443  1.0000 0.541799205
C   C14       1.0  0.08765  0.97136  0.05003  1.0000 -0.0184866629
C   C15       1.0  0.05610  0.04027  0.05655  1.0000 -0.1193237471
C   C16       1.0  0.96930  0.06872  0.00663  1.0000 -0.1193237471
C   C17       1.0  0.86530  0.86708  0.19114  1.0000 0.0989288805
C   C18       1.0  0.94340  0.82945  0.15693  1.0000 -0.1308963771
C   C19       1.0  0.94260  0.75854  0.16105  1.0000 -0.0991118948
C   C20       1.0  0.86430  0.72467  0.19953  1.0000 0.0422539446
C   C21       1.0  0.78884  0.76692  0.23197  1.0000 0.1132037711
C   C22       1.0  0.70725  0.73461  0.27248  1.0000 0.1185864342
C   C23       1.0  0.70750  0.66166  0.28024  1.0000 0.0475707525
C   C24       1.0  0.62880  0.63219  0.32133  1.0000 -0.0759131959
C   C25       1.0  0.55530  0.67448  0.35128  1.0000 -0.1409205994
C   C26       1.0  0.56030  0.74638  0.34025  1.0000 0.0989288805
C   C27       1.0  0.85990  0.65092  0.20750  1.0000 -0.161671677
C   C28       1.0  0.78550  0.62051  0.24649  1.0000 -0.1193237471
C   C29       1.0  0.42680  0.73869  0.16955  1.0000 0.0989288805
C   C30       1.0  0.43460  0.66638  0.16434  1.0000 -0.1409205994
C   C31       1.0  0.36550  0.62537  0.19960  1.0000 -0.0723822167
C   C32       1.0  0.28700  0.65697  0.23962  1.0000 0.0475707525
C   C33       1.0  0.28472  0.73019  0.24154  1.0000 0.1132037711
C   C34       1.0  0.20337  0.76450  0.28043  1.0000 0.1185864342
C   C35       1.0  0.12860  0.72390  0.31538  1.0000 0.0422539446
C   C36       1.0  0.04810  0.75944  0.35071  1.0000 -0.0991118948
C   C37       1.0  0.04570  0.83057  0.34934  1.0000 -0.1308963771
C   C38       1.0  0.12420  0.86653  0.31437  1.0000 0.0989288805
C   C39       1.0  0.21080  0.61738  0.27685  1.0000 -0.1308963771
C   C40       1.0  0.13520  0.65004  0.31311  1.0000 -0.161671677
C   C41       1.0  0.45020  0.05399  0.85211  1.0000 0.5638545329
C   C42       1.0  0.47824  0.02450  0.92820  1.0000 -0.0184866629
C   C43       1.0  0.56610  0.05335  0.97754  1.0000 -0.0991118948
C   C44       1.0  0.58820  0.02899  0.04911  1.0000 -0.1193237471
C   C45       1.0  0.57390  0.04843  0.64832  1.0000 0.5638545329
C   C46       1.0  0.53360  0.02221  0.57202  1.0000 -0.0184866629
C   C47       1.0  0.44090  0.05319  0.52868  1.0000 -0.1115474559
C   C48       1.0  0.40690  0.03106  0.45690  1.0000 -0.1115474559
C   C49       1.0  0.18493  0.05291  0.60564  1.0000 0.541799205
C   C50       1.0  0.08980  0.02505  0.55055  1.0000 -0.0136138773
C   C51       1.0  0.02780  0.96788  0.56743  1.0000 -0.1193237471
C   C52       1.0  0.93840  0.94304  0.51735  1.0000 -0.1115474559
C   C53       1.0  0.81990  0.06015  0.89557  1.0000 0.541799205
C   C54       1.0  0.91235  0.02864  0.94997  1.0000 -0.0184866629
C   C55       1.0  0.94390  0.95973  0.94345  1.0000 -0.1193237471
C   C56       1.0  0.03070  0.93128  0.99337  1.0000 -0.1193237471
C   C57       1.0  0.13470  0.13292  0.80886  1.0000 0.0989288805
C   C58       1.0  0.05660  0.17055  0.84307  1.0000 -0.1308963771
C   C59       1.0  0.05740  0.24146  0.83895  1.0000 -0.0991118948
C   C60       1.0  0.13570  0.27533  0.80047  1.0000 0.0422539446
C   C61       1.0  0.21116  0.23308  0.76803  1.0000 0.1132037711
C   C62       1.0  0.29275  0.26539  0.72752  1.0000 0.1185864342
C   C63       1.0  0.29250  0.33834  0.71976  1.0000 0.0475707525
C   C64       1.0  0.37120  0.36781  0.67867  1.0000 -0.0759131959
C   C65       1.0  0.44470  0.32552  0.64872  1.0000 -0.1409205994
C   C66       1.0  0.43970  0.25362  0.65975  1.0000 0.0989288805
C   C67       1.0  0.14010  0.34908  0.79250  1.0000 -0.161671677
C   C68       1.0  0.21450  0.37949  0.75351  1.0000 -0.1193237471
C   C69       1.0  0.57320  0.26131  0.83045  1.0000 0.0989288805
C   C70       1.0  0.56540  0.33362  0.83566  1.0000 -0.1409205994
C   C71       1.0  0.63450  0.37463  0.80040  1.0000 -0.0723822167
C   C72       1.0  0.71300  0.34303  0.76038  1.0000 0.0475707525
C   C73       1.0  0.71528  0.26981  0.75846  1.0000 0.1132037711
C   C74       1.0  0.79663  0.23550  0.71957  1.0000 0.1185864342
C   C75       1.0  0.87140  0.27610  0.68462  1.0000 0.0422539446
C   C76       1.0  0.95190  0.24056  0.64929  1.0000 -0.0991118948
C   C77       1.0  0.95430  0.16943  0.65066  1.0000 -0.1308963771
C   C78       1.0  0.87580  0.13347  0.68563  1.0000 0.0989288805
C   C79       1.0  0.78920  0.38262  0.72315  1.0000 -0.1308963771
C   C80       1.0  0.86480  0.34996  0.68689  1.0000 -0.161671677
C   C81       1.0  0.45020  0.44601  0.35211  1.0000 0.5638545329
C   C82       1.0  0.47824  0.47550  0.42820  1.0000 -0.0184866629
C   C83       1.0  0.56610  0.44665  0.47754  1.0000 -0.0991118948
C   C84       1.0  0.58820  0.47101  0.54911  1.0000 -0.1193237471
C   C85       1.0  0.57390  0.45157  0.14832  1.0000 0.5638545329
C   C86       1.0  0.53360  0.47779  0.07202  1.0000 -0.0184866629
C   C87       1.0  0.44090  0.44681  0.02868  1.0000 -0.1115474559
C   C88       1.0  0.40690  0.46894  0.95690  1.0000 -0.1115474559
C   C89       1.0  0.18493  0.44709  0.10564  1.0000 0.541799205
C   C90       1.0  0.08980  0.47495  0.05055  1.0000 -0.0136138773
C   C91       1.0  0.02780  0.53212  0.06743  1.0000 -0.1193237471
C   C92       1.0  0.93840  0.55696  0.01735  1.0000 -0.1115474559
C   C93       1.0  0.81990  0.43985  0.39557  1.0000 0.541799205
C   C94       1.0  0.91235  0.47136  0.44997  1.0000 -0.0184866629
C   C95       1.0  0.94390  0.54027  0.44345  1.0000 -0.1193237471
C   C96       1.0  0.03070  0.56872  0.49337  1.0000 -0.1193237471
C   C97       1.0  0.13470  0.36708  0.30886  1.0000 0.0989288805
C   C98       1.0  0.05660  0.32945  0.34307  1.0000 -0.1308963771
C   C99       1.0  0.05740  0.25854  0.33895  1.0000 -0.0991118948
C   C100      1.0  0.13570  0.22467  0.30047  1.0000 0.0422539446
C   C101      1.0  0.21116  0.26692  0.26803  1.0000 0.1132037711
C   C102      1.0  0.29275  0.23461  0.22752  1.0000 0.1185864342
C   C103      1.0  0.29250  0.16166  0.21976  1.0000 0.0475707525
C   C104      1.0  0.37120  0.13219  0.17867  1.0000 -0.0759131959
C   C105      1.0  0.44470  0.17448  0.14872  1.0000 -0.1409205994
C   C106      1.0  0.43970  0.24638  0.15975  1.0000 0.0989288805
C   C107      1.0  0.14010  0.15092  0.29250  1.0000 -0.161671677
C   C108      1.0  0.21450  0.12051  0.25351  1.0000 -0.1193237471
C   C109      1.0  0.57320  0.23869  0.33045  1.0000 0.0989288805
C   C110      1.0  0.56540  0.16638  0.33566  1.0000 -0.1409205994
C   C111      1.0  0.63450  0.12537  0.30040  1.0000 -0.0723822167
C   C112      1.0  0.71300  0.15697  0.26038  1.0000 0.0475707525
C   C113      1.0  0.71528  0.23019  0.25846  1.0000 0.1132037711
C   C114      1.0  0.79663  0.26450  0.21957  1.0000 0.1185864342
C   C115      1.0  0.87140  0.22390  0.18462  1.0000 0.0422539446
C   C116      1.0  0.95190  0.25944  0.14929  1.0000 -0.0991118948
C   C117      1.0  0.95430  0.33057  0.15066  1.0000 -0.1308963771
C   C118      1.0  0.87580  0.36653  0.18563  1.0000 0.0989288805
C   C119      1.0  0.78920  0.11738  0.22315  1.0000 -0.1308963771
C   C120      1.0  0.86480  0.15004  0.18689  1.0000 -0.161671677
C   C121      1.0  0.54980  0.55399  0.64789  1.0000 0.5638545329
C   C122      1.0  0.52176  0.52450  0.57180  1.0000 -0.0184866629
C   C123      1.0  0.43390  0.55335  0.52246  1.0000 -0.0991118948
C   C124      1.0  0.41180  0.52899  0.45089  1.0000 -0.1193237471
C   C125      1.0  0.42610  0.54843  0.85168  1.0000 0.5638545329
C   C126      1.0  0.46640  0.52221  0.92798  1.0000 -0.0184866629
C   C127      1.0  0.55910  0.55319  0.97132  1.0000 -0.1115474559
C   C128      1.0  0.59310  0.53106  0.04310  1.0000 -0.1115474559
C   C129      1.0  0.81507  0.55291  0.89436  1.0000 0.541799205
C   C130      1.0  0.91020  0.52505  0.94945  1.0000 -0.0136138773
C   C131      1.0  0.97220  0.46788  0.93257  1.0000 -0.1193237471
C   C132      1.0  0.06160  0.44304  0.98265  1.0000 -0.1115474559
C   C133      1.0  0.18010  0.56015  0.60443  1.0000 0.541799205
C   C134      1.0  0.08765  0.52864  0.55003  1.0000 -0.0184866629
C   C135      1.0  0.05610  0.45973  0.55655  1.0000 -0.1193237471
C   C136      1.0  0.96930  0.43128  0.50663  1.0000 -0.1193237471
C   C137      1.0  0.86530  0.63292  0.69114  1.0000 0.0989288805
C   C138      1.0  0.94340  0.67055  0.65693  1.0000 -0.1308963771
C   C139      1.0  0.94260  0.74146  0.66105  1.0000 -0.0991118948
C   C140      1.0  0.86430  0.77533  0.69953  1.0000 0.0422539446
C   C141      1.0  0.78884  0.73308  0.73197  1.0000 0.1132037711
C   C142      1.0  0.70725  0.76539  0.77248  1.0000 0.1185864342
C   C143      1.0  0.70750  0.83834  0.78024  1.0000 0.0475707525
C   C144      1.0  0.62880  0.86781  0.82133  1.0000 -0.0759131959
C   C145      1.0  0.55530  0.82552  0.85128  1.0000 -0.1409205994
C   C146      1.0  0.56030  0.75362  0.84025  1.0000 0.0989288805
C   C147      1.0  0.85990  0.84908  0.70750  1.0000 -0.161671677
C   C148      1.0  0.78550  0.87949  0.74649  1.0000 -0.1193237471
C   C149      1.0  0.42680  0.76131  0.66955  1.0000 0.0989288805
C   C150      1.0  0.43460  0.83362  0.66434  1.0000 -0.1409205994
C   C151      1.0  0.36550  0.87463  0.69960  1.0000 -0.0723822167
C   C152      1.0  0.28700  0.84303  0.73962  1.0000 0.0475707525
C   C153      1.0  0.28472  0.76981  0.74154  1.0000 0.1132037711
C   C154      1.0  0.20337  0.73550  0.78043  1.0000 0.1185864342
C   C155      1.0  0.12860  0.77610  0.81538  1.0000 0.0422539446
C   C156      1.0  0.04810  0.74056  0.85071  1.0000 -0.0991118948
C   C157      1.0  0.04570  0.66943  0.84934  1.0000 -0.1308963771
C   C158      1.0  0.12420  0.63347  0.81437  1.0000 0.0989288805
C   C159      1.0  0.21080  0.88262  0.77685  1.0000 -0.1308963771
C   C160      1.0  0.13520  0.84996  0.81311  1.0000 -0.161671677
N   N1        1.0  0.78978  0.83738  0.22710  1.0000 -0.2779982811
N   N2        1.0  0.63427  0.77612  0.30229  1.0000 -0.2678885287
N   N3        1.0  0.35485  0.77009  0.20741  1.0000 -0.2678885287
N   N4        1.0  0.20139  0.83517  0.28071  1.0000 -0.2779982811
N   N5        1.0  0.21022  0.16262  0.77290  1.0000 -0.2779982811
N   N6        1.0  0.36573  0.22388  0.69771  1.0000 -0.2678885287
N   N7        1.0  0.64515  0.22991  0.79259  1.0000 -0.2678885287
N   N8        1.0  0.79861  0.16483  0.71929  1.0000 -0.2779982811
N   N9        1.0  0.21022  0.33738  0.27290  1.0000 -0.2779982811
N   N10       1.0  0.36573  0.27612  0.19771  1.0000 -0.2678885287
N   N11       1.0  0.64515  0.27009  0.29259  1.0000 -0.2678885287
N   N12       1.0  0.79861  0.33517  0.21929  1.0000 -0.2779982811
N   N13       1.0  0.78978  0.66262  0.72710  1.0000 -0.2779982811
N   N14       1.0  0.63427  0.72388  0.80229  1.0000 -0.2678885287
N   N15       1.0  0.35485  0.72991  0.70741  1.0000 -0.2678885287
N   N16       1.0  0.20139  0.66483  0.78071  1.0000 -0.2779982811
O   O1        1.0  0.62875  0.97301  0.19150  1.0000 -0.5314320228
O   O2        1.0  0.49590  0.89295  0.16446  1.0000 -0.5837884372
O   O3        1.0  0.48255  0.90401  0.32547  1.0000 -0.5837884372
O   O4        1.0  0.33535  0.97417  0.31721  1.0000 -0.5314320228
O   O5        1.0  0.77926  0.98261  0.33864  1.0000 -0.543647421
O   O6        1.0  0.77505  0.88813  0.40499  1.0000 -0.5507487183
O   O7        1.0  0.19898  0.87563  0.10180  1.0000 -0.5585506683
O   O8        1.0  0.23487  0.97825  0.15287  1.0000 -0.5507487183
O   O9        1.0  0.37125  0.02699  0.80850  1.0000 -0.5314320228
O   O10       1.0  0.50410  0.10705  0.83554  1.0000 -0.5837884372
O   O11       1.0  0.51745  0.09599  0.67453  1.0000 -0.5837884372
O   O12       1.0  0.66465  0.02583  0.68279  1.0000 -0.5314320228
O   O13       1.0  0.22074  0.01739  0.66136  1.0000 -0.543647421
O   O14       1.0  0.22495  0.11187  0.59501  1.0000 -0.5507487183
O   O15       1.0  0.80102  0.12437  0.89820  1.0000 -0.5585506683
O   O16       1.0  0.76513  0.02175  0.84713  1.0000 -0.5507487183
O   O17       1.0  0.37125  0.47301  0.30850  1.0000 -0.5314320228
O   O18       1.0  0.50410  0.39295  0.33554  1.0000 -0.5837884372
O   O19       1.0  0.51745  0.40401  0.17453  1.0000 -0.5837884372
O   O20       1.0  0.66465  0.47417  0.18279  1.0000 -0.5314320228
O   O21       1.0  0.22074  0.48261  0.16136  1.0000 -0.543647421
O   O22       1.0  0.22495  0.38813  0.09501  1.0000 -0.5507487183
O   O23       1.0  0.80102  0.37563  0.39820  1.0000 -0.5585506683
O   O24       1.0  0.76513  0.47825  0.34713  1.0000 -0.5507487183
O   O25       1.0  0.62875  0.52699  0.69150  1.0000 -0.5314320228
O   O26       1.0  0.49590  0.60705  0.66446  1.0000 -0.5837884372
O   O27       1.0  0.48255  0.59599  0.82547  1.0000 -0.5837884372
O   O28       1.0  0.33535  0.52583  0.81721  1.0000 -0.5314320228
O   O29       1.0  0.77926  0.51739  0.83864  1.0000 -0.543647421
O   O30       1.0  0.77505  0.61187  0.90499  1.0000 -0.5507487183
O   O31       1.0  0.19898  0.62437  0.60180  1.0000 -0.5585506683
O   O32       1.0  0.23487  0.52175  0.65287  1.0000 -0.5507487183
