# DDEC6 charges by PACMAN v1.1 (https://github.com/mtap-research/PACMAN-charge/)
data_2020[Cu][nan]3[ASR]8
_chemical_formula_sum              "Cu6 H264 C372 N24"
_cell_length_a       26.619
_cell_length_b       26.619
_cell_length_c       17.897
_cell_angle_alpha    90
_cell_angle_beta     90
_cell_angle_gamma    120

_symmetry_space_group_name_H-M    "P 1"
_symmetry_Int_Tables_number       1

loop_
  _symmetry_equiv_pos_as_xyz
  'x, y, z'

loop_
  _atom_site_type_symbol
  _atom_site_label
  _atom_site_symmetry_multiplicity
  _atom_site_fract_x
  _atom_site_fract_y
  _atom_site_fract_z
  _atom_site_occupancy
  _atom_site_charge
Cu  Cu1       1.0  0.66653  0.66653  0.50000  1.0000 0.2016422211
Cu  Cu2       1.0  0.00000  0.33347  0.50000  1.0000 0.2016422211
Cu  Cu3       1.0  0.33347  0.00000  0.50000  1.0000 0.2016422211
Cu  Cu4       1.0  0.33347  0.33347  0.50000  1.0000 0.2016422211
Cu  Cu5       1.0  0.00000  0.66653  0.50000  1.0000 0.2016422211
Cu  Cu6       1.0  0.66653  0.00000  0.50000  1.0000 0.2016422211
H   H1        1.0  0.19545  0.75906  0.02942  1.0000 0.0983756184
H   H2        1.0  0.26819  0.90992  0.97529  1.0000 0.0983756184
H   H3        1.0  0.24218  0.93268  0.03912  1.0000 0.1095893211
H   H4        1.0  0.17249  0.86319  0.13197  1.0000 0.0983756184
H   H5        1.0  0.15307  0.79576  0.12911  1.0000 0.0983756184
H   H6        1.0  0.09630  0.86309  0.96717  1.0000 0.0983756184
H   H7        1.0  0.04477  0.86757  0.06645  1.0000 0.1203013487
H   H8        1.0  0.97334  0.85044  0.14650  1.0000 0.1203013487
H   H9        1.0  0.97400  0.70741  0.22662  1.0000 0.1095893211
H   H10       1.0  0.05465  0.72998  0.14805  1.0000 0.1203013487
H   H11       1.0  0.82989  0.80592  0.33679  1.0000 0.1302979081
H   H12       1.0  0.74996  0.77631  0.41208  1.0000 0.0983756184
H   H13       1.0  0.75245  0.63111  0.45226  1.0000 0.0983756184
H   H14       1.0  0.83003  0.65649  0.37653  1.0000 0.1302979081
H   H15       1.0  0.23201  0.85995  0.20145  1.0000 0.1095893211
H   H16       1.0  0.31288  0.87999  0.27756  1.0000 0.1095893211
H   H17       1.0  0.40455  0.88953  0.08800  1.0000 0.1302979081
H   H18       1.0  0.32244  0.86344  0.02355  1.0000 0.1203013487
H   H19       1.0  0.45616  0.89567  0.43080  1.0000 0.1302979081
H   H20       1.0  0.53536  0.91700  0.50629  1.0000 0.0983756184
H   H21       1.0  0.63930  0.99929  0.33911  1.0000 0.0983756184
H   H22       1.0  0.56017  0.97080  0.26293  1.0000 0.1302979081
H   H23       1.0  0.56361  0.80455  0.02942  1.0000 0.0983756184
H   H24       1.0  0.64173  0.73181  0.97529  1.0000 0.0983756184
H   H25       1.0  0.69050  0.75782  0.03912  1.0000 0.1095893211
H   H26       1.0  0.69070  0.82751  0.13197  1.0000 0.0983756184
H   H27       1.0  0.64269  0.84693  0.12911  1.0000 0.0983756184
H   H28       1.0  0.76679  0.90370  0.96717  1.0000 0.0983756184
H   H29       1.0  0.82280  0.95523  0.06645  1.0000 0.1203013487
H   H30       1.0  0.87710  0.02666  0.14650  1.0000 0.1203013487
H   H31       1.0  0.73341  0.02600  0.22662  1.0000 0.1095893211
H   H32       1.0  0.67533  0.94535  0.14805  1.0000 0.1203013487
H   H33       1.0  0.97603  0.17011  0.33679  1.0000 0.1302979081
H   H34       1.0  0.02635  0.25004  0.41208  1.0000 0.0983756184
H   H35       1.0  0.87866  0.24755  0.45226  1.0000 0.0983756184
H   H36       1.0  0.82646  0.16997  0.37653  1.0000 0.1302979081
H   H37       1.0  0.62794  0.76799  0.20145  1.0000 0.1095893211
H   H38       1.0  0.56711  0.68712  0.27756  1.0000 0.1095893211
H   H39       1.0  0.48498  0.59545  0.08800  1.0000 0.1302979081
H   H40       1.0  0.54100  0.67756  0.02355  1.0000 0.1203013487
H   H41       1.0  0.43951  0.54384  0.43080  1.0000 0.1302979081
H   H42       1.0  0.38164  0.46464  0.50629  1.0000 0.0983756184
H   H43       1.0  0.35999  0.36070  0.33911  1.0000 0.0983756184
H   H44       1.0  0.41063  0.43983  0.26293  1.0000 0.1302979081
H   H45       1.0  0.24094  0.43639  0.02942  1.0000 0.0983756184
H   H46       1.0  0.09008  0.35827  0.97529  1.0000 0.0983756184
H   H47       1.0  0.06732  0.30950  0.03912  1.0000 0.1095893211
H   H48       1.0  0.13681  0.30930  0.13197  1.0000 0.0983756184
H   H49       1.0  0.20424  0.35731  0.12911  1.0000 0.0983756184
H   H50       1.0  0.13691  0.23321  0.96717  1.0000 0.0983756184
H   H51       1.0  0.13243  0.17720  0.06645  1.0000 0.1203013487
H   H52       1.0  0.14956  0.12290  0.14650  1.0000 0.1203013487
H   H53       1.0  0.29259  0.26659  0.22662  1.0000 0.1095893211
H   H54       1.0  0.27002  0.32467  0.14805  1.0000 0.1203013487
H   H55       1.0  0.19408  0.02397  0.33679  1.0000 0.1302979081
H   H56       1.0  0.22369  0.97365  0.41208  1.0000 0.0983756184
H   H57       1.0  0.36889  0.12134  0.45226  1.0000 0.0983756184
H   H58       1.0  0.34351  0.17354  0.37653  1.0000 0.1302979081
H   H59       1.0  0.14005  0.37206  0.20145  1.0000 0.1095893211
H   H60       1.0  0.12001  0.43289  0.27756  1.0000 0.1095893211
H   H61       1.0  0.11047  0.51502  0.08800  1.0000 0.1302979081
H   H62       1.0  0.13656  0.45900  0.02355  1.0000 0.1203013487
H   H63       1.0  0.10433  0.56049  0.43080  1.0000 0.1302979081
H   H64       1.0  0.08300  0.61836  0.50629  1.0000 0.0983756184
H   H65       1.0  0.00071  0.64001  0.33911  1.0000 0.0983756184
H   H66       1.0  0.02920  0.58937  0.26293  1.0000 0.1302979081
H   H67       1.0  0.80455  0.24094  0.02942  1.0000 0.0983756184
H   H68       1.0  0.73181  0.09008  0.97529  1.0000 0.0983756184
H   H69       1.0  0.75782  0.06732  0.03912  1.0000 0.1095893211
H   H70       1.0  0.82751  0.13681  0.13197  1.0000 0.0983756184
H   H71       1.0  0.84693  0.20424  0.12911  1.0000 0.0983756184
H   H72       1.0  0.90370  0.13691  0.96717  1.0000 0.0983756184
H   H73       1.0  0.95523  0.13243  0.06645  1.0000 0.1203013487
H   H74       1.0  0.02666  0.14956  0.14650  1.0000 0.1203013487
H   H75       1.0  0.02600  0.29259  0.22662  1.0000 0.1095893211
H   H76       1.0  0.94535  0.27002  0.14805  1.0000 0.1203013487
H   H77       1.0  0.17011  0.19408  0.33679  1.0000 0.1302979081
H   H78       1.0  0.25004  0.22369  0.41208  1.0000 0.0983756184
H   H79       1.0  0.24755  0.36889  0.45226  1.0000 0.0983756184
H   H80       1.0  0.16997  0.34351  0.37653  1.0000 0.1302979081
H   H81       1.0  0.76799  0.14005  0.20145  1.0000 0.1095893211
H   H82       1.0  0.68712  0.12001  0.27756  1.0000 0.1095893211
H   H83       1.0  0.59545  0.11047  0.08800  1.0000 0.1302979081
H   H84       1.0  0.67756  0.13656  0.02355  1.0000 0.1203013487
H   H85       1.0  0.54384  0.10433  0.43080  1.0000 0.1302979081
H   H86       1.0  0.46464  0.08300  0.50629  1.0000 0.0983756184
H   H87       1.0  0.36070  0.00071  0.33911  1.0000 0.0983756184
H   H88       1.0  0.43983  0.02920  0.26293  1.0000 0.1302979081
H   H89       1.0  0.43639  0.19545  0.02942  1.0000 0.0983756184
H   H90       1.0  0.35827  0.26819  0.97529  1.0000 0.0983756184
H   H91       1.0  0.30950  0.24218  0.03912  1.0000 0.1095893211
H   H92       1.0  0.30930  0.17249  0.13197  1.0000 0.0983756184
H   H93       1.0  0.35731  0.15307  0.12911  1.0000 0.0983756184
H   H94       1.0  0.23321  0.09630  0.96717  1.0000 0.0983756184
H   H95       1.0  0.17720  0.04477  0.06645  1.0000 0.1203013487
H   H96       1.0  0.12290  0.97334  0.14650  1.0000 0.1203013487
H   H97       1.0  0.26659  0.97400  0.22662  1.0000 0.1095893211
H   H98       1.0  0.32467  0.05465  0.14805  1.0000 0.1203013487
H   H99       1.0  0.02397  0.82989  0.33679  1.0000 0.1302979081
H   H100      1.0  0.97365  0.74996  0.41208  1.0000 0.0983756184
H   H101      1.0  0.12134  0.75245  0.45226  1.0000 0.0983756184
H   H102      1.0  0.17354  0.83003  0.37653  1.0000 0.1302979081
H   H103      1.0  0.37206  0.23201  0.20145  1.0000 0.1095893211
H   H104      1.0  0.43289  0.31288  0.27756  1.0000 0.1095893211
H   H105      1.0  0.51502  0.40455  0.08800  1.0000 0.1302979081
H   H106      1.0  0.45900  0.32244  0.02355  1.0000 0.1203013487
H   H107      1.0  0.56049  0.45616  0.43080  1.0000 0.1302979081
H   H108      1.0  0.61836  0.53536  0.50629  1.0000 0.0983756184
H   H109      1.0  0.64001  0.63930  0.33911  1.0000 0.0983756184
H   H110      1.0  0.58937  0.56017  0.26293  1.0000 0.1302979081
H   H111      1.0  0.75906  0.56361  0.02942  1.0000 0.0983756184
H   H112      1.0  0.90992  0.64173  0.97529  1.0000 0.0983756184
H   H113      1.0  0.93268  0.69050  0.03912  1.0000 0.1095893211
H   H114      1.0  0.86319  0.69070  0.13197  1.0000 0.0983756184
H   H115      1.0  0.79576  0.64269  0.12911  1.0000 0.0983756184
H   H116      1.0  0.86309  0.76679  0.96717  1.0000 0.0983756184
H   H117      1.0  0.86757  0.82280  0.06645  1.0000 0.1203013487
H   H118      1.0  0.85044  0.87710  0.14650  1.0000 0.1203013487
H   H119      1.0  0.70741  0.73341  0.22662  1.0000 0.1095893211
H   H120      1.0  0.72998  0.67533  0.14805  1.0000 0.1203013487
H   H121      1.0  0.80592  0.97603  0.33679  1.0000 0.1302979081
H   H122      1.0  0.77631  0.02635  0.41208  1.0000 0.0983756184
H   H123      1.0  0.63111  0.87866  0.45226  1.0000 0.0983756184
H   H124      1.0  0.65649  0.82646  0.37653  1.0000 0.1302979081
H   H125      1.0  0.85995  0.62794  0.20145  1.0000 0.1095893211
H   H126      1.0  0.87999  0.56711  0.27756  1.0000 0.1095893211
H   H127      1.0  0.88953  0.48498  0.08800  1.0000 0.1302979081
H   H128      1.0  0.86344  0.54100  0.02355  1.0000 0.1203013487
H   H129      1.0  0.89567  0.43951  0.43080  1.0000 0.1302979081
H   H130      1.0  0.91700  0.38164  0.50629  1.0000 0.0983756184
H   H131      1.0  0.99929  0.35999  0.33911  1.0000 0.0983756184
H   H132      1.0  0.97080  0.41063  0.26293  1.0000 0.1302979081
H   H133      1.0  0.43639  0.24094  0.97058  1.0000 0.0983756184
H   H134      1.0  0.35827  0.09008  0.02471  1.0000 0.0983756184
H   H135      1.0  0.30950  0.06732  0.96088  1.0000 0.1095893211
H   H136      1.0  0.30930  0.13681  0.86803  1.0000 0.0983756184
H   H137      1.0  0.35731  0.20424  0.87089  1.0000 0.0983756184
H   H138      1.0  0.23321  0.13691  0.03283  1.0000 0.0983756184
H   H139      1.0  0.17720  0.13243  0.93355  1.0000 0.1203013487
H   H140      1.0  0.12290  0.14956  0.85350  1.0000 0.1203013487
H   H141      1.0  0.26659  0.29259  0.77338  1.0000 0.1095893211
H   H142      1.0  0.32467  0.27002  0.85195  1.0000 0.1203013487
H   H143      1.0  0.02397  0.19408  0.66321  1.0000 0.1302979081
H   H144      1.0  0.97365  0.22369  0.58792  1.0000 0.0983756184
H   H145      1.0  0.12134  0.36889  0.54774  1.0000 0.0983756184
H   H146      1.0  0.17354  0.34351  0.62347  1.0000 0.1302979081
H   H147      1.0  0.37206  0.14005  0.79855  1.0000 0.1095893211
H   H148      1.0  0.43289  0.12001  0.72244  1.0000 0.1095893211
H   H149      1.0  0.51502  0.11047  0.91200  1.0000 0.1302979081
H   H150      1.0  0.45900  0.13656  0.97645  1.0000 0.1203013487
H   H151      1.0  0.56049  0.10433  0.56920  1.0000 0.1302979081
H   H152      1.0  0.61836  0.08300  0.49371  1.0000 0.0983756184
H   H153      1.0  0.64001  0.00071  0.66089  1.0000 0.0983756184
H   H154      1.0  0.58937  0.02920  0.73707  1.0000 0.1302979081
H   H155      1.0  0.75906  0.19545  0.97058  1.0000 0.0983756184
H   H156      1.0  0.90992  0.26819  0.02471  1.0000 0.0983756184
H   H157      1.0  0.93268  0.24218  0.96088  1.0000 0.1095893211
H   H158      1.0  0.86319  0.17249  0.86803  1.0000 0.0983756184
H   H159      1.0  0.79576  0.15307  0.87089  1.0000 0.0983756184
H   H160      1.0  0.86309  0.09630  0.03283  1.0000 0.0983756184
H   H161      1.0  0.86757  0.04477  0.93355  1.0000 0.1203013487
H   H162      1.0  0.85044  0.97334  0.85350  1.0000 0.1203013487
H   H163      1.0  0.70741  0.97400  0.77338  1.0000 0.1095893211
H   H164      1.0  0.72998  0.05465  0.85195  1.0000 0.1203013487
H   H165      1.0  0.80592  0.82989  0.66321  1.0000 0.1302979081
H   H166      1.0  0.77631  0.74996  0.58792  1.0000 0.0983756184
H   H167      1.0  0.63111  0.75245  0.54774  1.0000 0.0983756184
H   H168      1.0  0.65649  0.83003  0.62347  1.0000 0.1302979081
H   H169      1.0  0.85995  0.23201  0.79855  1.0000 0.1095893211
H   H170      1.0  0.87999  0.31288  0.72244  1.0000 0.1095893211
H   H171      1.0  0.88953  0.40455  0.91200  1.0000 0.1302979081
H   H172      1.0  0.86344  0.32244  0.97645  1.0000 0.1203013487
H   H173      1.0  0.89567  0.45616  0.56920  1.0000 0.1302979081
H   H174      1.0  0.91700  0.53536  0.49371  1.0000 0.0983756184
H   H175      1.0  0.99929  0.63930  0.66089  1.0000 0.0983756184
H   H176      1.0  0.97080  0.56017  0.73707  1.0000 0.1302979081
H   H177      1.0  0.80455  0.56361  0.97058  1.0000 0.0983756184
H   H178      1.0  0.73181  0.64173  0.02471  1.0000 0.0983756184
H   H179      1.0  0.75782  0.69050  0.96088  1.0000 0.1095893211
H   H180      1.0  0.82751  0.69070  0.86803  1.0000 0.0983756184
H   H181      1.0  0.84693  0.64269  0.87089  1.0000 0.0983756184
H   H182      1.0  0.90370  0.76679  0.03283  1.0000 0.0983756184
H   H183      1.0  0.95523  0.82280  0.93355  1.0000 0.1203013487
H   H184      1.0  0.02666  0.87710  0.85350  1.0000 0.1203013487
H   H185      1.0  0.02600  0.73341  0.77338  1.0000 0.1095893211
H   H186      1.0  0.94535  0.67533  0.85195  1.0000 0.1203013487
H   H187      1.0  0.17011  0.97603  0.66321  1.0000 0.1302979081
H   H188      1.0  0.25004  0.02635  0.58792  1.0000 0.0983756184
H   H189      1.0  0.24755  0.87866  0.54774  1.0000 0.0983756184
H   H190      1.0  0.16997  0.82646  0.62347  1.0000 0.1302979081
H   H191      1.0  0.76799  0.62794  0.79855  1.0000 0.1095893211
H   H192      1.0  0.68712  0.56711  0.72244  1.0000 0.1095893211
H   H193      1.0  0.59545  0.48498  0.91200  1.0000 0.1302979081
H   H194      1.0  0.67756  0.54100  0.97645  1.0000 0.1203013487
H   H195      1.0  0.54384  0.43951  0.56920  1.0000 0.1302979081
H   H196      1.0  0.46464  0.38164  0.49371  1.0000 0.0983756184
H   H197      1.0  0.36070  0.35999  0.66089  1.0000 0.0983756184
H   H198      1.0  0.43983  0.41063  0.73707  1.0000 0.1302979081
H   H199      1.0  0.56361  0.75906  0.97058  1.0000 0.0983756184
H   H200      1.0  0.64173  0.90992  0.02471  1.0000 0.0983756184
H   H201      1.0  0.69050  0.93268  0.96088  1.0000 0.1095893211
H   H202      1.0  0.69070  0.86319  0.86803  1.0000 0.0983756184
H   H203      1.0  0.64269  0.79576  0.87089  1.0000 0.0983756184
H   H204      1.0  0.76679  0.86309  0.03283  1.0000 0.0983756184
H   H205      1.0  0.82280  0.86757  0.93355  1.0000 0.1203013487
H   H206      1.0  0.87710  0.85044  0.85350  1.0000 0.1203013487
H   H207      1.0  0.73341  0.70741  0.77338  1.0000 0.1095893211
H   H208      1.0  0.67533  0.72998  0.85195  1.0000 0.1203013487
H   H209      1.0  0.97603  0.80592  0.66321  1.0000 0.1302979081
H   H210      1.0  0.02635  0.77631  0.58792  1.0000 0.0983756184
H   H211      1.0  0.87866  0.63111  0.54774  1.0000 0.0983756184
H   H212      1.0  0.82646  0.65649  0.62347  1.0000 0.1302979081
H   H213      1.0  0.62794  0.85995  0.79855  1.0000 0.1095893211
H   H214      1.0  0.56711  0.87999  0.72244  1.0000 0.1095893211
H   H215      1.0  0.48498  0.88953  0.91200  1.0000 0.1302979081
H   H216      1.0  0.54100  0.86344  0.97645  1.0000 0.1203013487
H   H217      1.0  0.43951  0.89567  0.56920  1.0000 0.1302979081
H   H218      1.0  0.38164  0.91700  0.49371  1.0000 0.0983756184
H   H219      1.0  0.35999  0.99929  0.66089  1.0000 0.0983756184
H   H220      1.0  0.41063  0.97080  0.73707  1.0000 0.1302979081
H   H221      1.0  0.24094  0.80455  0.97058  1.0000 0.0983756184
H   H222      1.0  0.09008  0.73181  0.02471  1.0000 0.0983756184
H   H223      1.0  0.06732  0.75782  0.96088  1.0000 0.1095893211
H   H224      1.0  0.13681  0.82751  0.86803  1.0000 0.0983756184
H   H225      1.0  0.20424  0.84693  0.87089  1.0000 0.0983756184
H   H226      1.0  0.13691  0.90370  0.03283  1.0000 0.0983756184
H   H227      1.0  0.13243  0.95523  0.93355  1.0000 0.1203013487
H   H228      1.0  0.14956  0.02666  0.85350  1.0000 0.1203013487
H   H229      1.0  0.29259  0.02600  0.77338  1.0000 0.1095893211
H   H230      1.0  0.27002  0.94535  0.85195  1.0000 0.1203013487
H   H231      1.0  0.19408  0.17011  0.66321  1.0000 0.1302979081
H   H232      1.0  0.22369  0.25004  0.58792  1.0000 0.0983756184
H   H233      1.0  0.36889  0.24755  0.54774  1.0000 0.0983756184
H   H234      1.0  0.34351  0.16997  0.62347  1.0000 0.1302979081
H   H235      1.0  0.14005  0.76799  0.79855  1.0000 0.1095893211
H   H236      1.0  0.12001  0.68712  0.72244  1.0000 0.1095893211
H   H237      1.0  0.11047  0.59545  0.91200  1.0000 0.1302979081
H   H238      1.0  0.13656  0.67756  0.97645  1.0000 0.1203013487
H   H239      1.0  0.10433  0.54384  0.56920  1.0000 0.1302979081
H   H240      1.0  0.08300  0.46464  0.49371  1.0000 0.0983756184
H   H241      1.0  0.00071  0.36070  0.66089  1.0000 0.0983756184
H   H242      1.0  0.02920  0.43983  0.73707  1.0000 0.1302979081
H   H243      1.0  0.19545  0.43639  0.97058  1.0000 0.0983756184
H   H244      1.0  0.26819  0.35827  0.02471  1.0000 0.0983756184
H   H245      1.0  0.24218  0.30950  0.96088  1.0000 0.1095893211
H   H246      1.0  0.17249  0.30930  0.86803  1.0000 0.0983756184
H   H247      1.0  0.15307  0.35731  0.87089  1.0000 0.0983756184
H   H248      1.0  0.09630  0.23321  0.03283  1.0000 0.0983756184
H   H249      1.0  0.04477  0.17720  0.93355  1.0000 0.1203013487
H   H250      1.0  0.97334  0.12290  0.85350  1.0000 0.1203013487
H   H251      1.0  0.97400  0.26659  0.77338  1.0000 0.1095893211
H   H252      1.0  0.05465  0.32467  0.85195  1.0000 0.1203013487
H   H253      1.0  0.82989  0.02397  0.66321  1.0000 0.1302979081
H   H254      1.0  0.74996  0.97365  0.58792  1.0000 0.0983756184
H   H255      1.0  0.75245  0.12134  0.54774  1.0000 0.0983756184
H   H256      1.0  0.83003  0.17354  0.62347  1.0000 0.1302979081
H   H257      1.0  0.23201  0.37206  0.79855  1.0000 0.1095893211
H   H258      1.0  0.31288  0.43289  0.72244  1.0000 0.1095893211
H   H259      1.0  0.40455  0.51502  0.91200  1.0000 0.1302979081
H   H260      1.0  0.32244  0.45900  0.97645  1.0000 0.1203013487
H   H261      1.0  0.45616  0.56049  0.56920  1.0000 0.1302979081
H   H262      1.0  0.53536  0.61836  0.49371  1.0000 0.0983756184
H   H263      1.0  0.63930  0.64001  0.66089  1.0000 0.0983756184
H   H264      1.0  0.56017  0.58937  0.73707  1.0000 0.1302979081
C   C1        1.0  0.21720  0.84470  0.05290  1.0000 0.1674751052
C   C2        1.0  0.23320  0.89960  0.00560  1.0000 -0.2920756108
C   C3        1.0  0.16370  0.83037  0.09800  1.0000 -0.3069326024
C   C4        1.0  0.11190  0.81880  0.04750  1.0000 0.1792715474
C   C5        1.0  0.05760  0.80200  0.09850  1.0000 0.049781376
C   C6        1.0  0.03160  0.83590  0.10010  1.0000 -0.1420200948
C   C7        1.0  0.98940  0.82560  0.14640  1.0000 -0.1420200948
C   C8        1.0  0.96710  0.77720  0.19690  1.0000 0.1095893211
C   C9        1.0  0.98990  0.74090  0.19560  1.0000 -0.1498406178
C   C10       1.0  0.03700  0.75340  0.14760  1.0000 -0.1498406178
C   C11       1.0  0.91930  0.76170  0.25240  1.0000 -0.0772036559
C   C12       1.0  0.88360  0.75240  0.29460  1.0000 -0.1026137354
C   C13       1.0  0.83830  0.73360  0.34510  1.0000 0.1402333922
C   C14       1.0  0.81310  0.76870  0.35960  1.0000 -0.2006442207
C   C15       1.0  0.76570  0.75150  0.40500  1.0000 0.049781376
C   C16       1.0  0.76810  0.66730  0.42700  1.0000 0.027386215
C   C17       1.0  0.81460  0.68170  0.38210  1.0000 -0.2006442207
C   C18       1.0  0.26690  0.85760  0.10290  1.0000 0.049781376
C   C19       1.0  0.26610  0.86400  0.17870  1.0000 -0.1622715514
C   C20       1.0  0.31510  0.87650  0.22500  1.0000 -0.1622715514
C   C21       1.0  0.36230  0.88300  0.19490  1.0000 0.1203013487
C   C22       1.0  0.36940  0.88150  0.11190  1.0000 -0.1221111489
C   C23       1.0  0.32080  0.86750  0.07610  1.0000 -0.1498406178
C   C24       1.0  0.41720  0.89960  0.24330  1.0000 -0.0685645606
C   C25       1.0  0.45280  0.91010  0.28710  1.0000 -0.1026137354
C   C26       1.0  0.49940  0.92650  0.33280  1.0000 0.1402333922
C   C27       1.0  0.49390  0.91500  0.40960  1.0000 -0.2108331189
C   C28       1.0  0.54130  0.93060  0.45620  1.0000 0.027386215
C   C29       1.0  0.60160  0.97730  0.36010  1.0000 0.091802706
C   C30       1.0  0.55290  0.95860  0.31360  1.0000 -0.2190737069
C   C31       1.0  0.62750  0.78280  0.05290  1.0000 0.1674751052
C   C32       1.0  0.66640  0.76680  0.00560  1.0000 -0.2920756108
C   C33       1.0  0.66667  0.83630  0.09800  1.0000 -0.3069326024
C   C34       1.0  0.70690  0.88810  0.04750  1.0000 0.1792715474
C   C35       1.0  0.74440  0.94240  0.09850  1.0000 0.049781376
C   C36       1.0  0.80430  0.96840  0.10010  1.0000 -0.1420200948
C   C37       1.0  0.83620  0.01060  0.14640  1.0000 -0.1420200948
C   C38       1.0  0.81010  0.03290  0.19690  1.0000 0.1095893211
C   C39       1.0  0.75100  0.01010  0.19560  1.0000 -0.1498406178
C   C40       1.0  0.71640  0.96300  0.14760  1.0000 -0.1498406178
C   C41       1.0  0.84240  0.08070  0.25240  1.0000 -0.0772036559
C   C42       1.0  0.86880  0.11640  0.29460  1.0000 -0.1026137354
C   C43       1.0  0.89530  0.16170  0.34510  1.0000 0.1402333922
C   C44       1.0  0.95560  0.18690  0.35960  1.0000 -0.2006442207
C   C45       1.0  0.98580  0.23430  0.40500  1.0000 0.049781376
C   C46       1.0  0.89920  0.23190  0.42700  1.0000 0.027386215
C   C47       1.0  0.86710  0.18540  0.38210  1.0000 -0.2006442207
C   C48       1.0  0.59070  0.73310  0.10290  1.0000 0.049781376
C   C49       1.0  0.59790  0.73390  0.17870  1.0000 -0.1622715514
C   C50       1.0  0.56140  0.68490  0.22500  1.0000 -0.1622715514
C   C51       1.0  0.52070  0.63770  0.19490  1.0000 0.1203013487
C   C52       1.0  0.51210  0.63060  0.11190  1.0000 -0.1221111489
C   C53       1.0  0.54670  0.67920  0.07610  1.0000 -0.1498406178
C   C54       1.0  0.48240  0.58280  0.24330  1.0000 -0.0685645606
C   C55       1.0  0.45730  0.54720  0.28710  1.0000 -0.1026137354
C   C56       1.0  0.42710  0.50060  0.33280  1.0000 0.1402333922
C   C57       1.0  0.42110  0.50610  0.40960  1.0000 -0.2108331189
C   C58       1.0  0.38930  0.45870  0.45620  1.0000 0.027386215
C   C59       1.0  0.37570  0.39840  0.36010  1.0000 0.091802706
C   C60       1.0  0.40570  0.44710  0.31360  1.0000 -0.2190737069
C   C61       1.0  0.15530  0.37250  0.05290  1.0000 0.1674751052
C   C62       1.0  0.10040  0.33360  0.00560  1.0000 -0.2920756108
C   C63       1.0  0.16963  0.33333  0.09800  1.0000 -0.3069326024
C   C64       1.0  0.18120  0.29310  0.04750  1.0000 0.1792715474
C   C65       1.0  0.19800  0.25560  0.09850  1.0000 0.049781376
C   C66       1.0  0.16410  0.19570  0.10010  1.0000 -0.1348853276
C   C67       1.0  0.17440  0.16380  0.14640  1.0000 -0.1420200948
C   C68       1.0  0.22280  0.18990  0.19690  1.0000 0.1095893211
C   C69       1.0  0.25910  0.24900  0.19560  1.0000 -0.1498406178
C   C70       1.0  0.24660  0.28360  0.14760  1.0000 -0.1420200948
C   C71       1.0  0.23830  0.15760  0.25240  1.0000 -0.0772036559
C   C72       1.0  0.24760  0.13120  0.29460  1.0000 -0.1026137354
C   C73       1.0  0.26640  0.10470  0.34510  1.0000 0.1402333922
C   C74       1.0  0.23130  0.04440  0.35960  1.0000 -0.2006442207
C   C75       1.0  0.24850  0.01420  0.40500  1.0000 0.049781376
C   C76       1.0  0.33270  0.10080  0.42700  1.0000 0.027386215
C   C77       1.0  0.31830  0.13290  0.38210  1.0000 -0.2006442207
C   C78       1.0  0.14240  0.40930  0.10290  1.0000 0.049781376
C   C79       1.0  0.13600  0.40210  0.17870  1.0000 -0.1622715514
C   C80       1.0  0.12350  0.43860  0.22500  1.0000 -0.1622715514
C   C81       1.0  0.11700  0.47930  0.19490  1.0000 0.1203013487
C   C82       1.0  0.11850  0.48790  0.11190  1.0000 -0.1221111489
C   C83       1.0  0.13250  0.45330  0.07610  1.0000 -0.1498406178
C   C84       1.0  0.10040  0.51760  0.24330  1.0000 -0.0685645606
C   C85       1.0  0.08990  0.54270  0.28710  1.0000 -0.1026137354
C   C86       1.0  0.07350  0.57290  0.33280  1.0000 0.1402333922
C   C87       1.0  0.08500  0.57890  0.40960  1.0000 -0.2108331189
C   C88       1.0  0.06940  0.61070  0.45620  1.0000 0.027386215
C   C89       1.0  0.02270  0.62430  0.36010  1.0000 0.091802706
C   C90       1.0  0.04140  0.59430  0.31360  1.0000 -0.2190737069
C   C91       1.0  0.78280  0.15530  0.05290  1.0000 0.1674751052
C   C92       1.0  0.76680  0.10040  0.00560  1.0000 -0.2920756108
C   C93       1.0  0.83630  0.16963  0.09800  1.0000 -0.3069326024
C   C94       1.0  0.88810  0.18120  0.04750  1.0000 0.1792715474
C   C95       1.0  0.94240  0.19800  0.09850  1.0000 0.049781376
C   C96       1.0  0.96840  0.16410  0.10010  1.0000 -0.1348853276
C   C97       1.0  0.01060  0.17440  0.14640  1.0000 -0.1498406178
C   C98       1.0  0.03290  0.22280  0.19690  1.0000 0.1095893211
C   C99       1.0  0.01010  0.25910  0.19560  1.0000 -0.1622715514
C   C100      1.0  0.96300  0.24660  0.14760  1.0000 -0.1420200948
C   C101      1.0  0.08070  0.23830  0.25240  1.0000 -0.0772036559
C   C102      1.0  0.11640  0.24760  0.29460  1.0000 -0.1026137354
C   C103      1.0  0.16170  0.26640  0.34510  1.0000 0.1402333922
C   C104      1.0  0.18690  0.23130  0.35960  1.0000 -0.2006442207
C   C105      1.0  0.23430  0.24850  0.40500  1.0000 0.049781376
C   C106      1.0  0.23190  0.33270  0.42700  1.0000 0.027386215
C   C107      1.0  0.18540  0.31830  0.38210  1.0000 -0.2006442207
C   C108      1.0  0.73310  0.14240  0.10290  1.0000 0.049781376
C   C109      1.0  0.73390  0.13600  0.17870  1.0000 -0.1622715514
C   C110      1.0  0.68490  0.12350  0.22500  1.0000 -0.1622715514
C   C111      1.0  0.63770  0.11700  0.19490  1.0000 0.1203013487
C   C112      1.0  0.63060  0.11850  0.11190  1.0000 -0.1221111489
C   C113      1.0  0.67920  0.13250  0.07610  1.0000 -0.1498406178
C   C114      1.0  0.58280  0.10040  0.24330  1.0000 -0.0685645606
C   C115      1.0  0.54720  0.08990  0.28710  1.0000 -0.1026137354
C   C116      1.0  0.50060  0.07350  0.33280  1.0000 0.1402333922
C   C117      1.0  0.50610  0.08500  0.40960  1.0000 -0.2108331189
C   C118      1.0  0.45870  0.06940  0.45620  1.0000 0.027386215
C   C119      1.0  0.39840  0.02270  0.36010  1.0000 0.091802706
C   C120      1.0  0.44710  0.04140  0.31360  1.0000 -0.2190737069
C   C121      1.0  0.37250  0.21720  0.05290  1.0000 0.1674751052
C   C122      1.0  0.33360  0.23320  0.00560  1.0000 -0.2920756108
C   C123      1.0  0.33333  0.16370  0.09800  1.0000 -0.3069326024
C   C124      1.0  0.29310  0.11190  0.04750  1.0000 0.1792715474
C   C125      1.0  0.25560  0.05760  0.09850  1.0000 0.049781376
C   C126      1.0  0.19570  0.03160  0.10010  1.0000 -0.1420200948
C   C127      1.0  0.16380  0.98940  0.14640  1.0000 -0.1420200948
C   C128      1.0  0.18990  0.96710  0.19690  1.0000 0.1095893211
C   C129      1.0  0.24900  0.98990  0.19560  1.0000 -0.1622715514
C   C130      1.0  0.28360  0.03700  0.14760  1.0000 -0.1420200948
C   C131      1.0  0.15760  0.91930  0.25240  1.0000 -0.0772036559
C   C132      1.0  0.13120  0.88360  0.29460  1.0000 -0.1026137354
C   C133      1.0  0.10470  0.83830  0.34510  1.0000 0.1402333922
C   C134      1.0  0.04440  0.81310  0.35960  1.0000 -0.2006442207
C   C135      1.0  0.01420  0.76570  0.40500  1.0000 0.049781376
C   C136      1.0  0.10080  0.76810  0.42700  1.0000 0.027386215
C   C137      1.0  0.13290  0.81460  0.38210  1.0000 -0.2006442207
C   C138      1.0  0.40930  0.26690  0.10290  1.0000 0.049781376
C   C139      1.0  0.40210  0.26610  0.17870  1.0000 -0.1622715514
C   C140      1.0  0.43860  0.31510  0.22500  1.0000 -0.1622715514
C   C141      1.0  0.47930  0.36230  0.19490  1.0000 0.1203013487
C   C142      1.0  0.48790  0.36940  0.11190  1.0000 -0.1221111489
C   C143      1.0  0.45330  0.32080  0.07610  1.0000 -0.1498406178
C   C144      1.0  0.51760  0.41720  0.24330  1.0000 -0.0685645606
C   C145      1.0  0.54270  0.45280  0.28710  1.0000 -0.1026137354
C   C146      1.0  0.57290  0.49940  0.33280  1.0000 0.1402333922
C   C147      1.0  0.57890  0.49390  0.40960  1.0000 -0.2108331189
C   C148      1.0  0.61070  0.54130  0.45620  1.0000 0.027386215
C   C149      1.0  0.62430  0.60160  0.36010  1.0000 0.091802706
C   C150      1.0  0.59430  0.55290  0.31360  1.0000 -0.2190737069
C   C151      1.0  0.84470  0.62750  0.05290  1.0000 0.1674751052
C   C152      1.0  0.89960  0.66640  0.00560  1.0000 -0.2920756108
C   C153      1.0  0.83037  0.66667  0.09800  1.0000 -0.3069326024
C   C154      1.0  0.81880  0.70690  0.04750  1.0000 0.1792715474
C   C155      1.0  0.80200  0.74440  0.09850  1.0000 0.049781376
C   C156      1.0  0.83590  0.80430  0.10010  1.0000 -0.1348853276
C   C157      1.0  0.82560  0.83620  0.14640  1.0000 -0.1420200948
C   C158      1.0  0.77720  0.81010  0.19690  1.0000 0.1095893211
C   C159      1.0  0.74090  0.75100  0.19560  1.0000 -0.1498406178
C   C160      1.0  0.75340  0.71640  0.14760  1.0000 -0.1498406178
C   C161      1.0  0.76170  0.84240  0.25240  1.0000 -0.0772036559
C   C162      1.0  0.75240  0.86880  0.29460  1.0000 -0.1026137354
C   C163      1.0  0.73360  0.89530  0.34510  1.0000 0.1402333922
C   C164      1.0  0.76870  0.95560  0.35960  1.0000 -0.2006442207
C   C165      1.0  0.75150  0.98580  0.40500  1.0000 0.049781376
C   C166      1.0  0.66730  0.89920  0.42700  1.0000 0.027386215
C   C167      1.0  0.68170  0.86710  0.38210  1.0000 -0.2006442207
C   C168      1.0  0.85760  0.59070  0.10290  1.0000 0.049781376
C   C169      1.0  0.86400  0.59790  0.17870  1.0000 -0.1622715514
C   C170      1.0  0.87650  0.56140  0.22500  1.0000 -0.1622715514
C   C171      1.0  0.88300  0.52070  0.19490  1.0000 0.1203013487
C   C172      1.0  0.88150  0.51210  0.11190  1.0000 -0.1221111489
C   C173      1.0  0.86750  0.54670  0.07610  1.0000 -0.1498406178
C   C174      1.0  0.89960  0.48240  0.24330  1.0000 -0.0685645606
C   C175      1.0  0.91010  0.45730  0.28710  1.0000 -0.1026137354
C   C176      1.0  0.92650  0.42710  0.33280  1.0000 0.1402333922
C   C177      1.0  0.91500  0.42110  0.40960  1.0000 -0.2108331189
C   C178      1.0  0.93060  0.38930  0.45620  1.0000 0.027386215
C   C179      1.0  0.97730  0.37570  0.36010  1.0000 0.091802706
C   C180      1.0  0.95860  0.40570  0.31360  1.0000 -0.2190737069
C   C181      1.0  0.37250  0.15530  0.94710  1.0000 0.1674751052
C   C182      1.0  0.33360  0.10040  0.99440  1.0000 -0.2920756108
C   C183      1.0  0.33333  0.16963  0.90200  1.0000 -0.3069326024
C   C184      1.0  0.29310  0.18120  0.95250  1.0000 0.1792715474
C   C185      1.0  0.25560  0.19800  0.90150  1.0000 0.049781376
C   C186      1.0  0.19570  0.16410  0.89990  1.0000 -0.1420200948
C   C187      1.0  0.16380  0.17440  0.85360  1.0000 -0.1420200948
C   C188      1.0  0.18990  0.22280  0.80310  1.0000 0.1095893211
C   C189      1.0  0.24900  0.25910  0.80440  1.0000 -0.1498406178
C   C190      1.0  0.28360  0.24660  0.85240  1.0000 -0.1420200948
C   C191      1.0  0.15760  0.23830  0.74760  1.0000 -0.0772036559
C   C192      1.0  0.13120  0.24760  0.70540  1.0000 -0.1026137354
C   C193      1.0  0.10470  0.26640  0.65490  1.0000 0.1402333922
C   C194      1.0  0.04440  0.23130  0.64040  1.0000 -0.2006442207
C   C195      1.0  0.01420  0.24850  0.59500  1.0000 0.049781376
C   C196      1.0  0.10080  0.33270  0.57300  1.0000 0.027386215
C   C197      1.0  0.13290  0.31830  0.61790  1.0000 -0.2006442207
C   C198      1.0  0.40930  0.14240  0.89710  1.0000 0.049781376
C   C199      1.0  0.40210  0.13600  0.82130  1.0000 -0.1622715514
C   C200      1.0  0.43860  0.12350  0.77500  1.0000 -0.1622715514
C   C201      1.0  0.47930  0.11700  0.80510  1.0000 0.1203013487
C   C202      1.0  0.48790  0.11850  0.88810  1.0000 -0.1221111489
C   C203      1.0  0.45330  0.13250  0.92390  1.0000 -0.1498406178
C   C204      1.0  0.51760  0.10040  0.75670  1.0000 -0.0685645606
C   C205      1.0  0.54270  0.08990  0.71290  1.0000 -0.1026137354
C   C206      1.0  0.57290  0.07350  0.66720  1.0000 0.1402333922
C   C207      1.0  0.57890  0.08500  0.59040  1.0000 -0.2108331189
C   C208      1.0  0.61070  0.06940  0.54380  1.0000 0.027386215
C   C209      1.0  0.62430  0.02270  0.63990  1.0000 0.091802706
C   C210      1.0  0.59430  0.04140  0.68640  1.0000 -0.2190737069
C   C211      1.0  0.84470  0.21720  0.94710  1.0000 0.1674751052
C   C212      1.0  0.89960  0.23320  0.99440  1.0000 -0.2920756108
C   C213      1.0  0.83037  0.16370  0.90200  1.0000 -0.3069326024
C   C214      1.0  0.81880  0.11190  0.95250  1.0000 0.1792715474
C   C215      1.0  0.80200  0.05760  0.90150  1.0000 0.049781376
C   C216      1.0  0.83590  0.03160  0.89990  1.0000 -0.1348853276
C   C217      1.0  0.82560  0.98940  0.85360  1.0000 -0.1420200948
C   C218      1.0  0.77720  0.96710  0.80310  1.0000 0.1095893211
C   C219      1.0  0.74090  0.98990  0.80440  1.0000 -0.1498406178
C   C220      1.0  0.75340  0.03700  0.85240  1.0000 -0.1420200948
C   C221      1.0  0.76170  0.91930  0.74760  1.0000 -0.0772036559
C   C222      1.0  0.75240  0.88360  0.70540  1.0000 -0.1026137354
C   C223      1.0  0.73360  0.83830  0.65490  1.0000 0.1402333922
C   C224      1.0  0.76870  0.81310  0.64040  1.0000 -0.2006442207
C   C225      1.0  0.75150  0.76570  0.59500  1.0000 0.049781376
C   C226      1.0  0.66730  0.76810  0.57300  1.0000 0.027386215
C   C227      1.0  0.68170  0.81460  0.61790  1.0000 -0.2006442207
C   C228      1.0  0.85760  0.26690  0.89710  1.0000 0.049781376
C   C229      1.0  0.86400  0.26610  0.82130  1.0000 -0.1622715514
C   C230      1.0  0.87650  0.31510  0.77500  1.0000 -0.1622715514
C   C231      1.0  0.88300  0.36230  0.80510  1.0000 0.1203013487
C   C232      1.0  0.88150  0.36940  0.88810  1.0000 -0.1221111489
C   C233      1.0  0.86750  0.32080  0.92390  1.0000 -0.1498406178
C   C234      1.0  0.89960  0.41720  0.75670  1.0000 -0.0685645606
C   C235      1.0  0.91010  0.45280  0.71290  1.0000 -0.1026137354
C   C236      1.0  0.92650  0.49940  0.66720  1.0000 0.1402333922
C   C237      1.0  0.91500  0.49390  0.59040  1.0000 -0.2108331189
C   C238      1.0  0.93060  0.54130  0.54380  1.0000 0.027386215
C   C239      1.0  0.97730  0.60160  0.63990  1.0000 0.091802706
C   C240      1.0  0.95860  0.55290  0.68640  1.0000 -0.2190737069
C   C241      1.0  0.78280  0.62750  0.94710  1.0000 0.1674751052
C   C242      1.0  0.76680  0.66640  0.99440  1.0000 -0.2920756108
C   C243      1.0  0.83630  0.66667  0.90200  1.0000 -0.3069326024
C   C244      1.0  0.88810  0.70690  0.95250  1.0000 0.1792715474
C   C245      1.0  0.94240  0.74440  0.90150  1.0000 0.049781376
C   C246      1.0  0.96840  0.80430  0.89990  1.0000 -0.1348853276
C   C247      1.0  0.01060  0.83620  0.85360  1.0000 -0.1498406178
C   C248      1.0  0.03290  0.81010  0.80310  1.0000 0.1095893211
C   C249      1.0  0.01010  0.75100  0.80440  1.0000 -0.1622715514
C   C250      1.0  0.96300  0.71640  0.85240  1.0000 -0.1420200948
C   C251      1.0  0.08070  0.84240  0.74760  1.0000 -0.0772036559
C   C252      1.0  0.11640  0.86880  0.70540  1.0000 -0.1026137354
C   C253      1.0  0.16170  0.89530  0.65490  1.0000 0.1402333922
C   C254      1.0  0.18690  0.95560  0.64040  1.0000 -0.2006442207
C   C255      1.0  0.23430  0.98580  0.59500  1.0000 0.049781376
C   C256      1.0  0.23190  0.89920  0.57300  1.0000 0.027386215
C   C257      1.0  0.18540  0.86710  0.61790  1.0000 -0.2006442207
C   C258      1.0  0.73310  0.59070  0.89710  1.0000 0.049781376
C   C259      1.0  0.73390  0.59790  0.82130  1.0000 -0.1622715514
C   C260      1.0  0.68490  0.56140  0.77500  1.0000 -0.1622715514
C   C261      1.0  0.63770  0.52070  0.80510  1.0000 0.1203013487
C   C262      1.0  0.63060  0.51210  0.88810  1.0000 -0.1221111489
C   C263      1.0  0.67920  0.54670  0.92390  1.0000 -0.1498406178
C   C264      1.0  0.58280  0.48240  0.75670  1.0000 -0.0685645606
C   C265      1.0  0.54720  0.45730  0.71290  1.0000 -0.1026137354
C   C266      1.0  0.50060  0.42710  0.66720  1.0000 0.1402333922
C   C267      1.0  0.50610  0.42110  0.59040  1.0000 -0.2108331189
C   C268      1.0  0.45870  0.38930  0.54380  1.0000 0.027386215
C   C269      1.0  0.39840  0.37570  0.63990  1.0000 0.091802706
C   C270      1.0  0.44710  0.40570  0.68640  1.0000 -0.2190737069
C   C271      1.0  0.62750  0.84470  0.94710  1.0000 0.1674751052
C   C272      1.0  0.66640  0.89960  0.99440  1.0000 -0.2920756108
C   C273      1.0  0.66667  0.83037  0.90200  1.0000 -0.3069326024
C   C274      1.0  0.70690  0.81880  0.95250  1.0000 0.1792715474
C   C275      1.0  0.74440  0.80200  0.90150  1.0000 0.049781376
C   C276      1.0  0.80430  0.83590  0.89990  1.0000 -0.1420200948
C   C277      1.0  0.83620  0.82560  0.85360  1.0000 -0.1420200948
C   C278      1.0  0.81010  0.77720  0.80310  1.0000 0.1095893211
C   C279      1.0  0.75100  0.74090  0.80440  1.0000 -0.1498406178
C   C280      1.0  0.71640  0.75340  0.85240  1.0000 -0.1420200948
C   C281      1.0  0.84240  0.76170  0.74760  1.0000 -0.0772036559
C   C282      1.0  0.86880  0.75240  0.70540  1.0000 -0.1026137354
C   C283      1.0  0.89530  0.73360  0.65490  1.0000 0.1402333922
C   C284      1.0  0.95560  0.76870  0.64040  1.0000 -0.2006442207
C   C285      1.0  0.98580  0.75150  0.59500  1.0000 0.049781376
C   C286      1.0  0.89920  0.66730  0.57300  1.0000 0.027386215
C   C287      1.0  0.86710  0.68170  0.61790  1.0000 -0.2006442207
C   C288      1.0  0.59070  0.85760  0.89710  1.0000 0.049781376
C   C289      1.0  0.59790  0.86400  0.82130  1.0000 -0.1622715514
C   C290      1.0  0.56140  0.87650  0.77500  1.0000 -0.1622715514
C   C291      1.0  0.52070  0.88300  0.80510  1.0000 0.1203013487
C   C292      1.0  0.51210  0.88150  0.88810  1.0000 -0.1221111489
C   C293      1.0  0.54670  0.86750  0.92390  1.0000 -0.1498406178
C   C294      1.0  0.48240  0.89960  0.75670  1.0000 -0.0685645606
C   C295      1.0  0.45730  0.91010  0.71290  1.0000 -0.1026137354
C   C296      1.0  0.42710  0.92650  0.66720  1.0000 0.1402333922
C   C297      1.0  0.42110  0.91500  0.59040  1.0000 -0.2108331189
C   C298      1.0  0.38930  0.93060  0.54380  1.0000 0.027386215
C   C299      1.0  0.37570  0.97730  0.63990  1.0000 0.091802706
C   C300      1.0  0.40570  0.95860  0.68640  1.0000 -0.2190737069
C   C301      1.0  0.15530  0.78280  0.94710  1.0000 0.1674751052
C   C302      1.0  0.10040  0.76680  0.99440  1.0000 -0.2920756108
C   C303      1.0  0.16963  0.83630  0.90200  1.0000 -0.3069326024
C   C304      1.0  0.18120  0.88810  0.95250  1.0000 0.1792715474
C   C305      1.0  0.19800  0.94240  0.90150  1.0000 0.049781376
C   C306      1.0  0.16410  0.96840  0.89990  1.0000 -0.1420200948
C   C307      1.0  0.17440  0.01060  0.85360  1.0000 -0.1420200948
C   C308      1.0  0.22280  0.03290  0.80310  1.0000 0.1095893211
C   C309      1.0  0.25910  0.01010  0.80440  1.0000 -0.1498406178
C   C310      1.0  0.24660  0.96300  0.85240  1.0000 -0.1498406178
C   C311      1.0  0.23830  0.08070  0.74760  1.0000 -0.0772036559
C   C312      1.0  0.24760  0.11640  0.70540  1.0000 -0.1026137354
C   C313      1.0  0.26640  0.16170  0.65490  1.0000 0.1402333922
C   C314      1.0  0.23130  0.18690  0.64040  1.0000 -0.2006442207
C   C315      1.0  0.24850  0.23430  0.59500  1.0000 0.049781376
C   C316      1.0  0.33270  0.23190  0.57300  1.0000 0.027386215
C   C317      1.0  0.31830  0.18540  0.61790  1.0000 -0.2006442207
C   C318      1.0  0.14240  0.73310  0.89710  1.0000 0.049781376
C   C319      1.0  0.13600  0.73390  0.82130  1.0000 -0.1622715514
C   C320      1.0  0.12350  0.68490  0.77500  1.0000 -0.1622715514
C   C321      1.0  0.11700  0.63770  0.80510  1.0000 0.1203013487
C   C322      1.0  0.11850  0.63060  0.88810  1.0000 -0.1221111489
C   C323      1.0  0.13250  0.67920  0.92390  1.0000 -0.1498406178
C   C324      1.0  0.10040  0.58280  0.75670  1.0000 -0.0685645606
C   C325      1.0  0.08990  0.54720  0.71290  1.0000 -0.1026137354
C   C326      1.0  0.07350  0.50060  0.66720  1.0000 0.1402333922
C   C327      1.0  0.08500  0.50610  0.59040  1.0000 -0.2108331189
C   C328      1.0  0.06940  0.45870  0.54380  1.0000 0.027386215
C   C329      1.0  0.02270  0.39840  0.63990  1.0000 0.091802706
C   C330      1.0  0.04140  0.44710  0.68640  1.0000 -0.2190737069
C   C331      1.0  0.21720  0.37250  0.94710  1.0000 0.1674751052
C   C332      1.0  0.23320  0.33360  0.99440  1.0000 -0.2920756108
C   C333      1.0  0.16370  0.33333  0.90200  1.0000 -0.3069326024
C   C334      1.0  0.11190  0.29310  0.95250  1.0000 0.1792715474
C   C335      1.0  0.05760  0.25560  0.90150  1.0000 0.049781376
C   C336      1.0  0.03160  0.19570  0.89990  1.0000 -0.1420200948
C   C337      1.0  0.98940  0.16380  0.85360  1.0000 -0.1420200948
C   C338      1.0  0.96710  0.18990  0.80310  1.0000 0.1095893211
C   C339      1.0  0.98990  0.24900  0.80440  1.0000 -0.1498406178
C   C340      1.0  0.03700  0.28360  0.85240  1.0000 -0.1498406178
C   C341      1.0  0.91930  0.15760  0.74760  1.0000 -0.0772036559
C   C342      1.0  0.88360  0.13120  0.70540  1.0000 -0.1026137354
C   C343      1.0  0.83830  0.10470  0.65490  1.0000 0.1402333922
C   C344      1.0  0.81310  0.04440  0.64040  1.0000 -0.2006442207
C   C345      1.0  0.76570  0.01420  0.59500  1.0000 0.049781376
C   C346      1.0  0.76810  0.10080  0.57300  1.0000 0.027386215
C   C347      1.0  0.81460  0.13290  0.61790  1.0000 -0.2006442207
C   C348      1.0  0.26690  0.40930  0.89710  1.0000 0.049781376
C   C349      1.0  0.26610  0.40210  0.82130  1.0000 -0.1622715514
C   C350      1.0  0.31510  0.43860  0.77500  1.0000 -0.1622715514
C   C351      1.0  0.36230  0.47930  0.80510  1.0000 0.1203013487
C   C352      1.0  0.36940  0.48790  0.88810  1.0000 -0.1221111489
C   C353      1.0  0.32080  0.45330  0.92390  1.0000 -0.1498406178
C   C354      1.0  0.41720  0.51760  0.75670  1.0000 -0.0685645606
C   C355      1.0  0.45280  0.54270  0.71290  1.0000 -0.1026137354
C   C356      1.0  0.49940  0.57290  0.66720  1.0000 0.1402333922
C   C357      1.0  0.49390  0.57890  0.59040  1.0000 -0.2108331189
C   C358      1.0  0.54130  0.61070  0.54380  1.0000 0.027386215
C   C359      1.0  0.60160  0.62430  0.63990  1.0000 0.091802706
C   C360      1.0  0.55290  0.59430  0.68640  1.0000 -0.2190737069
C   C361      1.0  0.20560  0.79440  0.00000  1.0000 -0.2978535459
C   C362      1.0  0.12930  0.87070  0.00000  1.0000 -0.3408500866
C   C363      1.0  0.58880  0.79440  0.00000  1.0000 -0.2978535459
C   C364      1.0  0.74140  0.87070  0.00000  1.0000 -0.3408500866
C   C365      1.0  0.20560  0.41120  0.00000  1.0000 -0.2978535459
C   C366      1.0  0.12930  0.25860  0.00000  1.0000 -0.3408500866
C   C367      1.0  0.79440  0.20560  0.00000  1.0000 -0.2978535459
C   C368      1.0  0.87070  0.12930  0.00000  1.0000 -0.3408500866
C   C369      1.0  0.41120  0.20560  0.00000  1.0000 -0.2978535459
C   C370      1.0  0.25860  0.12930  0.00000  1.0000 -0.3408500866
C   C371      1.0  0.79440  0.58880  0.00000  1.0000 -0.2978535459
C   C372      1.0  0.87070  0.74140  0.00000  1.0000 -0.3408500866
N   N1        1.0  0.74100  0.69900  0.43990  1.0000 -0.2319894051
N   N2        1.0  0.59640  0.96540  0.43000  1.0000 -0.2006442207
N   N3        1.0  0.95800  0.25900  0.43990  1.0000 -0.2319894051
N   N4        1.0  0.36900  0.40360  0.43000  1.0000 -0.2006442207
N   N5        1.0  0.30100  0.04200  0.43990  1.0000 -0.2319894051
N   N6        1.0  0.03460  0.63100  0.43000  1.0000 -0.2006442207
N   N7        1.0  0.25900  0.30100  0.43990  1.0000 -0.2319894051
N   N8        1.0  0.40360  0.03460  0.43000  1.0000 -0.2006442207
N   N9        1.0  0.04200  0.74100  0.43990  1.0000 -0.2319894051
N   N10       1.0  0.63100  0.59640  0.43000  1.0000 -0.2006442207
N   N11       1.0  0.69900  0.95800  0.43990  1.0000 -0.2319894051
N   N12       1.0  0.96540  0.36900  0.43000  1.0000 -0.2006442207
N   N13       1.0  0.04200  0.30100  0.56010  1.0000 -0.2319894051
N   N14       1.0  0.63100  0.03460  0.57000  1.0000 -0.2006442207
N   N15       1.0  0.69900  0.74100  0.56010  1.0000 -0.2319894051
N   N16       1.0  0.96540  0.59640  0.57000  1.0000 -0.2006442207
N   N17       1.0  0.25900  0.95800  0.56010  1.0000 -0.2319894051
N   N18       1.0  0.40360  0.36900  0.57000  1.0000 -0.2006442207
N   N19       1.0  0.95800  0.69900  0.56010  1.0000 -0.2319894051
N   N20       1.0  0.36900  0.96540  0.57000  1.0000 -0.2006442207
N   N21       1.0  0.30100  0.25900  0.56010  1.0000 -0.2319894051
N   N22       1.0  0.03460  0.40360  0.57000  1.0000 -0.2006442207
N   N23       1.0  0.74100  0.04200  0.56010  1.0000 -0.2319894051
N   N24       1.0  0.59640  0.63100  0.57000  1.0000 -0.2006442207
