# DDEC6 charges by PACMAN v1.1 (https://github.com/mtap-research/PACMAN-charge/)
data_2020[CuZr][flu]3[ASR]1
_chemical_formula_sum              "Zr12 Cu16 H48 C96 S16 N16 O48"
_cell_length_a       15.0071
_cell_length_b       15.0071
_cell_length_c       30.8086
_cell_angle_alpha    90
_cell_angle_beta     90
_cell_angle_gamma    90

_symmetry_space_group_name_H-M    "P 1"
_symmetry_Int_Tables_number       1

loop_
  _symmetry_equiv_pos_as_xyz
  'x, y, z'

loop_
  _atom_site_type_symbol
  _atom_site_label
  _atom_site_symmetry_multiplicity
  _atom_site_fract_x
  _atom_site_fract_y
  _atom_site_fract_z
  _atom_site_occupancy
  _atom_site_charge
Zr  Zr1       1.0  0.61651  0.38349  0.50000  1.0000 2.3612940546
Zr  Zr2       1.0  0.38349  0.61651  0.50000  1.0000 2.3612940546
Zr  Zr3       1.0  0.11651  0.11651  0.00000  1.0000 2.3612940546
Zr  Zr4       1.0  0.88349  0.88349  0.00000  1.0000 2.3612940546
Zr  Zr5       1.0  0.41711  0.41711  0.44276  1.0000 2.4503553943
Zr  Zr6       1.0  0.58289  0.58289  0.44276  1.0000 2.4560646053
Zr  Zr7       1.0  0.08289  0.91711  0.94276  1.0000 2.4503553943
Zr  Zr8       1.0  0.91711  0.08289  0.94276  1.0000 2.4503553943
Zr  Zr9       1.0  0.08289  0.91711  0.05724  1.0000 2.4503553943
Zr  Zr10      1.0  0.91711  0.08289  0.05724  1.0000 2.4503553943
Zr  Zr11      1.0  0.41711  0.41711  0.55724  1.0000 2.4503553943
Zr  Zr12      1.0  0.58289  0.58289  0.55724  1.0000 2.4560646053
Cu  Cu1       1.0  0.46685  0.08988  0.27576  1.0000 0.1647801038
Cu  Cu2       1.0  0.53315  0.91012  0.27576  1.0000 0.1653877135
Cu  Cu3       1.0  0.41012  0.96685  0.77576  1.0000 0.1653877135
Cu  Cu4       1.0  0.58988  0.03315  0.77576  1.0000 0.1653877135
Cu  Cu5       1.0  0.03315  0.58988  0.22424  1.0000 0.1647801038
Cu  Cu6       1.0  0.96685  0.41012  0.22424  1.0000 0.1647801038
Cu  Cu7       1.0  0.08988  0.46685  0.72424  1.0000 0.1647801038
Cu  Cu8       1.0  0.91012  0.53315  0.72424  1.0000 0.1653877135
Cu  Cu9       1.0  0.53315  0.91012  0.72424  1.0000 0.1653877135
Cu  Cu10      1.0  0.46685  0.08988  0.72424  1.0000 0.1653877135
Cu  Cu11      1.0  0.58988  0.03315  0.22424  1.0000 0.1647801038
Cu  Cu12      1.0  0.41012  0.96685  0.22424  1.0000 0.1647801038
Cu  Cu13      1.0  0.96685  0.41012  0.77576  1.0000 0.1653877135
Cu  Cu14      1.0  0.03315  0.58988  0.77576  1.0000 0.1653877135
Cu  Cu15      1.0  0.91012  0.53315  0.27576  1.0000 0.1653877135
Cu  Cu16      1.0  0.08988  0.46685  0.27576  1.0000 0.1647801038
H   H1        1.0  0.46820  0.18990  0.35730  1.0000 0.1089806382
H   H2        1.0  0.74340  0.05340  0.36290  1.0000 0.1340047356
H   H3        1.0  0.70500  0.15510  0.41730  1.0000 0.1211670388
H   H4        1.0  0.53180  0.81010  0.35730  1.0000 0.1089806382
H   H5        1.0  0.25660  0.94660  0.36290  1.0000 0.1340047356
H   H6        1.0  0.29500  0.84490  0.41730  1.0000 0.1211670388
H   H7        1.0  0.31010  0.96820  0.85730  1.0000 0.1089806382
H   H8        1.0  0.44660  0.24340  0.86290  1.0000 0.1340047356
H   H9        1.0  0.34490  0.20500  0.91730  1.0000 0.1211670388
H   H10       1.0  0.68990  0.03180  0.85730  1.0000 0.1089806382
H   H11       1.0  0.55340  0.75660  0.86290  1.0000 0.1340047356
H   H12       1.0  0.65510  0.79500  0.91730  1.0000 0.1211670388
H   H13       1.0  0.03180  0.68990  0.14270  1.0000 0.1089806382
H   H14       1.0  0.75660  0.55340  0.13710  1.0000 0.1340047356
H   H15       1.0  0.79500  0.65510  0.08270  1.0000 0.1211670388
H   H16       1.0  0.96820  0.31010  0.14270  1.0000 0.1089806382
H   H17       1.0  0.24340  0.44660  0.13710  1.0000 0.1340047356
H   H18       1.0  0.20500  0.34490  0.08270  1.0000 0.1211670388
H   H19       1.0  0.18990  0.46820  0.64270  1.0000 0.1089806382
H   H20       1.0  0.05340  0.74340  0.63710  1.0000 0.1340047356
H   H21       1.0  0.15510  0.70500  0.58270  1.0000 0.1211670388
H   H22       1.0  0.81010  0.53180  0.64270  1.0000 0.1089806382
H   H23       1.0  0.94660  0.25660  0.63710  1.0000 0.1340047356
H   H24       1.0  0.84490  0.29500  0.58270  1.0000 0.1211670388
H   H25       1.0  0.53180  0.81010  0.64270  1.0000 0.1089806382
H   H26       1.0  0.25660  0.94660  0.63710  1.0000 0.1340047356
H   H27       1.0  0.29500  0.84490  0.58270  1.0000 0.1211670388
H   H28       1.0  0.46820  0.18990  0.64270  1.0000 0.1089806382
H   H29       1.0  0.74340  0.05340  0.63710  1.0000 0.1340047356
H   H30       1.0  0.70500  0.15510  0.58270  1.0000 0.1211670388
H   H31       1.0  0.68990  0.03180  0.14270  1.0000 0.1089806382
H   H32       1.0  0.55340  0.75660  0.13710  1.0000 0.1340047356
H   H33       1.0  0.65510  0.79500  0.08270  1.0000 0.1211670388
H   H34       1.0  0.31010  0.96820  0.14270  1.0000 0.1089806382
H   H35       1.0  0.44660  0.24340  0.13710  1.0000 0.1340047356
H   H36       1.0  0.34490  0.20500  0.08270  1.0000 0.1211670388
H   H37       1.0  0.96820  0.31010  0.85730  1.0000 0.1089806382
H   H38       1.0  0.24340  0.44660  0.86290  1.0000 0.1340047356
H   H39       1.0  0.20500  0.34490  0.91730  1.0000 0.1211670388
H   H40       1.0  0.03180  0.68990  0.85730  1.0000 0.1089806382
H   H41       1.0  0.75660  0.55340  0.86290  1.0000 0.1340047356
H   H42       1.0  0.79500  0.65510  0.91730  1.0000 0.1211670388
H   H43       1.0  0.81010  0.53180  0.35730  1.0000 0.1089806382
H   H44       1.0  0.94660  0.25660  0.36290  1.0000 0.1340047356
H   H45       1.0  0.84490  0.29500  0.41730  1.0000 0.1211670388
H   H46       1.0  0.18990  0.46820  0.35730  1.0000 0.1089806382
H   H47       1.0  0.05340  0.74340  0.36290  1.0000 0.1340047356
H   H48       1.0  0.15510  0.70500  0.41730  1.0000 0.1211670388
C   C1        1.0  0.58080  0.18290  0.39319  1.0000 -0.1085713914
C   C2        1.0  0.52530  0.16270  0.35844  1.0000 0.0608531876
C   C3        1.0  0.55410  0.25210  0.42528  1.0000 0.6298031892
C   C4        1.0  0.62720  0.06700  0.32798  1.0000 0.2403957743
C   C5        1.0  0.68750  0.08300  0.36214  1.0000 -0.1812092576
C   C6        1.0  0.66450  0.14220  0.39445  1.0000 -0.0514394975
C   C7        1.0  0.41920  0.81710  0.39319  1.0000 -0.1085713914
C   C8        1.0  0.47470  0.83730  0.35844  1.0000 0.0608531876
C   C9        1.0  0.44590  0.74790  0.42528  1.0000 0.6298031892
C   C10       1.0  0.37280  0.93300  0.32798  1.0000 0.2403957743
C   C11       1.0  0.31250  0.91700  0.36214  1.0000 -0.1812092576
C   C12       1.0  0.33550  0.85780  0.39445  1.0000 -0.0514394975
C   C13       1.0  0.31710  0.08080  0.89319  1.0000 -0.1085713914
C   C14       1.0  0.33730  0.02530  0.85844  1.0000 0.0608531876
C   C15       1.0  0.24790  0.05410  0.92528  1.0000 0.6298031892
C   C16       1.0  0.43300  0.12720  0.82798  1.0000 0.2403957743
C   C17       1.0  0.41700  0.18750  0.86214  1.0000 -0.1812092576
C   C18       1.0  0.35780  0.16450  0.89445  1.0000 -0.0514394975
C   C19       1.0  0.68290  0.91920  0.89319  1.0000 -0.1085713914
C   C20       1.0  0.66270  0.97470  0.85844  1.0000 0.0608531876
C   C21       1.0  0.75210  0.94590  0.92528  1.0000 0.6298031892
C   C22       1.0  0.56700  0.87280  0.82798  1.0000 0.2403957743
C   C23       1.0  0.58300  0.81250  0.86214  1.0000 -0.1812092576
C   C24       1.0  0.64220  0.83550  0.89445  1.0000 -0.0514394975
C   C25       1.0  0.91920  0.68290  0.10681  1.0000 -0.1085713914
C   C26       1.0  0.97470  0.66270  0.14156  1.0000 0.0608531876
C   C27       1.0  0.94590  0.75210  0.07472  1.0000 0.6298031892
C   C28       1.0  0.87280  0.56700  0.17202  1.0000 0.2403957743
C   C29       1.0  0.81250  0.58300  0.13786  1.0000 -0.1812092576
C   C30       1.0  0.83550  0.64220  0.10555  1.0000 -0.0514394975
C   C31       1.0  0.08080  0.31710  0.10681  1.0000 -0.1085713914
C   C32       1.0  0.02530  0.33730  0.14156  1.0000 0.0608531876
C   C33       1.0  0.05410  0.24790  0.07472  1.0000 0.6298031892
C   C34       1.0  0.12720  0.43300  0.17202  1.0000 0.2403957743
C   C35       1.0  0.18750  0.41700  0.13786  1.0000 -0.1812092576
C   C36       1.0  0.16450  0.35780  0.10555  1.0000 -0.0514394975
C   C37       1.0  0.18290  0.58080  0.60681  1.0000 -0.1085713914
C   C38       1.0  0.16270  0.52530  0.64156  1.0000 0.0608531876
C   C39       1.0  0.25210  0.55410  0.57472  1.0000 0.6298031892
C   C40       1.0  0.06700  0.62720  0.67202  1.0000 0.2403957743
C   C41       1.0  0.08300  0.68750  0.63786  1.0000 -0.1812092576
C   C42       1.0  0.14220  0.66450  0.60555  1.0000 -0.0514394975
C   C43       1.0  0.81710  0.41920  0.60681  1.0000 -0.1085713914
C   C44       1.0  0.83730  0.47470  0.64156  1.0000 0.0608531876
C   C45       1.0  0.74790  0.44590  0.57472  1.0000 0.6298031892
C   C46       1.0  0.93300  0.37280  0.67202  1.0000 0.2403957743
C   C47       1.0  0.91700  0.31250  0.63786  1.0000 -0.1812092576
C   C48       1.0  0.85780  0.33550  0.60555  1.0000 -0.0514394975
C   C49       1.0  0.41920  0.81710  0.60681  1.0000 -0.1085713914
C   C50       1.0  0.47470  0.83730  0.64156  1.0000 0.0608531876
C   C51       1.0  0.44590  0.74790  0.57472  1.0000 0.6298031892
C   C52       1.0  0.37280  0.93300  0.67202  1.0000 0.2403957743
C   C53       1.0  0.31250  0.91700  0.63786  1.0000 -0.1812092576
C   C54       1.0  0.33550  0.85780  0.60555  1.0000 -0.0514394975
C   C55       1.0  0.58080  0.18290  0.60681  1.0000 -0.1085713914
C   C56       1.0  0.52530  0.16270  0.64156  1.0000 0.0608531876
C   C57       1.0  0.55410  0.25210  0.57472  1.0000 0.6298031892
C   C58       1.0  0.62720  0.06700  0.67202  1.0000 0.2403957743
C   C59       1.0  0.68750  0.08300  0.63786  1.0000 -0.1812092576
C   C60       1.0  0.66450  0.14220  0.60555  1.0000 -0.0514394975
C   C61       1.0  0.68290  0.91920  0.10681  1.0000 -0.1085713914
C   C62       1.0  0.66270  0.97470  0.14156  1.0000 0.0608531876
C   C63       1.0  0.75210  0.94590  0.07472  1.0000 0.6298031892
C   C64       1.0  0.56700  0.87280  0.17202  1.0000 0.2403957743
C   C65       1.0  0.58300  0.81250  0.13786  1.0000 -0.1812092576
C   C66       1.0  0.64220  0.83550  0.10555  1.0000 -0.0514394975
C   C67       1.0  0.31710  0.08080  0.10681  1.0000 -0.1085713914
C   C68       1.0  0.33730  0.02530  0.14156  1.0000 0.0608531876
C   C69       1.0  0.24790  0.05410  0.07472  1.0000 0.6298031892
C   C70       1.0  0.43300  0.12720  0.17202  1.0000 0.2403957743
C   C71       1.0  0.41700  0.18750  0.13786  1.0000 -0.1812092576
C   C72       1.0  0.35780  0.16450  0.10555  1.0000 -0.0514394975
C   C73       1.0  0.08080  0.31710  0.89319  1.0000 -0.1085713914
C   C74       1.0  0.02530  0.33730  0.85844  1.0000 0.0608531876
C   C75       1.0  0.05410  0.24790  0.92528  1.0000 0.6298031892
C   C76       1.0  0.12720  0.43300  0.82798  1.0000 0.2403957743
C   C77       1.0  0.18750  0.41700  0.86214  1.0000 -0.1812092576
C   C78       1.0  0.16450  0.35780  0.89445  1.0000 -0.0514394975
C   C79       1.0  0.91920  0.68290  0.89319  1.0000 -0.1085713914
C   C80       1.0  0.97470  0.66270  0.85844  1.0000 0.0608531876
C   C81       1.0  0.94590  0.75210  0.92528  1.0000 0.6298031892
C   C82       1.0  0.87280  0.56700  0.82798  1.0000 0.2403957743
C   C83       1.0  0.81250  0.58300  0.86214  1.0000 -0.1812092576
C   C84       1.0  0.83550  0.64220  0.89445  1.0000 -0.0514394975
C   C85       1.0  0.81710  0.41920  0.39319  1.0000 -0.1085713914
C   C86       1.0  0.83730  0.47470  0.35844  1.0000 0.0608531876
C   C87       1.0  0.74790  0.44590  0.42528  1.0000 0.6298031892
C   C88       1.0  0.93300  0.37280  0.32798  1.0000 0.2403957743
C   C89       1.0  0.91700  0.31250  0.36214  1.0000 -0.1812092576
C   C90       1.0  0.85780  0.33550  0.39445  1.0000 -0.0514394975
C   C91       1.0  0.18290  0.58080  0.39319  1.0000 -0.1085713914
C   C92       1.0  0.16270  0.52530  0.35844  1.0000 0.0608531876
C   C93       1.0  0.25210  0.55410  0.42528  1.0000 0.6298031892
C   C94       1.0  0.06700  0.62720  0.32798  1.0000 0.2403957743
C   C95       1.0  0.08300  0.68750  0.36214  1.0000 -0.1812092576
C   C96       1.0  0.14220  0.66450  0.39445  1.0000 -0.0514394975
S   S1        1.0  0.65834  0.99242  0.28642  1.0000 -0.3045796219
S   S2        1.0  0.34166  0.00758  0.28642  1.0000 -0.3045796219
S   S3        1.0  0.50758  0.15834  0.78642  1.0000 -0.3045796219
S   S4        1.0  0.49242  0.84166  0.78642  1.0000 -0.3045796219
S   S5        1.0  0.84166  0.49242  0.21358  1.0000 -0.3045796219
S   S6        1.0  0.15834  0.50758  0.21358  1.0000 -0.3045796219
S   S7        1.0  0.99242  0.65834  0.71358  1.0000 -0.3045796219
S   S8        1.0  0.00758  0.34166  0.71358  1.0000 -0.3045796219
S   S9        1.0  0.34166  0.00758  0.71358  1.0000 -0.3045796219
S   S10       1.0  0.65834  0.99242  0.71358  1.0000 -0.3045796219
S   S11       1.0  0.49242  0.84166  0.21358  1.0000 -0.3045796219
S   S12       1.0  0.50758  0.15834  0.21358  1.0000 -0.3045796219
S   S13       1.0  0.15834  0.50758  0.78642  1.0000 -0.3045796219
S   S14       1.0  0.84166  0.49242  0.78642  1.0000 -0.3045796219
S   S15       1.0  0.00758  0.34166  0.28642  1.0000 -0.3045796219
S   S16       1.0  0.99242  0.65834  0.28642  1.0000 -0.3045796219
N   N1        1.0  0.54820  0.10730  0.32686  1.0000 -0.2420176089
N   N2        1.0  0.45180  0.89270  0.32686  1.0000 -0.2420176089
N   N3        1.0  0.39270  0.04820  0.82686  1.0000 -0.2420176089
N   N4        1.0  0.60730  0.95180  0.82686  1.0000 -0.2420176089
N   N5        1.0  0.95180  0.60730  0.17314  1.0000 -0.2420176089
N   N6        1.0  0.04820  0.39270  0.17314  1.0000 -0.2420176089
N   N7        1.0  0.10730  0.54820  0.67314  1.0000 -0.2420176089
N   N8        1.0  0.89270  0.45180  0.67314  1.0000 -0.2420176089
N   N9        1.0  0.45180  0.89270  0.67314  1.0000 -0.2420176089
N   N10       1.0  0.54820  0.10730  0.67314  1.0000 -0.2420176089
N   N11       1.0  0.60730  0.95180  0.17314  1.0000 -0.2420176089
N   N12       1.0  0.39270  0.04820  0.17314  1.0000 -0.2420176089
N   N13       1.0  0.04820  0.39270  0.82686  1.0000 -0.2420176089
N   N14       1.0  0.95180  0.60730  0.82686  1.0000 -0.2420176089
N   N15       1.0  0.89270  0.45180  0.32686  1.0000 -0.2420176089
N   N16       1.0  0.10730  0.54820  0.32686  1.0000 -0.2420176089
O   O1        1.0  0.60733  0.26720  0.45629  1.0000 -0.5903789315
O   O2        1.0  0.47980  0.29040  0.41888  1.0000 -0.6310530257
O   O3        1.0  0.39267  0.73280  0.45629  1.0000 -0.5903789315
O   O4        1.0  0.52020  0.70960  0.41888  1.0000 -0.6310530257
O   O5        1.0  0.23280  0.10733  0.95629  1.0000 -0.5903789315
O   O6        1.0  0.20960  0.97980  0.91888  1.0000 -0.6310530257
O   O7        1.0  0.76720  0.89267  0.95629  1.0000 -0.5903789315
O   O8        1.0  0.79040  0.02020  0.91888  1.0000 -0.6310530257
O   O9        1.0  0.89267  0.76720  0.04371  1.0000 -0.5903789315
O   O10       1.0  0.02020  0.79040  0.08112  1.0000 -0.6310530257
O   O11       1.0  0.10733  0.23280  0.04371  1.0000 -0.5903789315
O   O12       1.0  0.97980  0.20960  0.08112  1.0000 -0.6310530257
O   O13       1.0  0.26720  0.60733  0.54371  1.0000 -0.5903789315
O   O14       1.0  0.29040  0.47980  0.58112  1.0000 -0.6310530257
O   O15       1.0  0.73280  0.39267  0.54371  1.0000 -0.5903789315
O   O16       1.0  0.70960  0.52020  0.58112  1.0000 -0.6310530257
O   O17       1.0  0.39267  0.73280  0.54371  1.0000 -0.5903789315
O   O18       1.0  0.52020  0.70960  0.58112  1.0000 -0.6310530257
O   O19       1.0  0.60733  0.26720  0.54371  1.0000 -0.5903789315
O   O20       1.0  0.47980  0.29040  0.58112  1.0000 -0.6310530257
O   O21       1.0  0.76720  0.89267  0.04371  1.0000 -0.5903789315
O   O22       1.0  0.79040  0.02020  0.08112  1.0000 -0.6310530257
O   O23       1.0  0.23280  0.10733  0.04371  1.0000 -0.5903789315
O   O24       1.0  0.20960  0.97980  0.08112  1.0000 -0.6310530257
O   O25       1.0  0.10733  0.23280  0.95629  1.0000 -0.5903789315
O   O26       1.0  0.97980  0.20960  0.91888  1.0000 -0.6310530257
O   O27       1.0  0.89267  0.76720  0.95629  1.0000 -0.5903789315
O   O28       1.0  0.02020  0.79040  0.91888  1.0000 -0.6310530257
O   O29       1.0  0.73280  0.39267  0.45629  1.0000 -0.5903789315
O   O30       1.0  0.70960  0.52020  0.41888  1.0000 -0.6310530257
O   O31       1.0  0.26720  0.60733  0.45629  1.0000 -0.5903789315
O   O32       1.0  0.29040  0.47980  0.41888  1.0000 -0.6310530257
O   O33       1.0  0.47530  0.36010  0.50000  1.0000 -1.1708134349
O   O34       1.0  0.52470  0.63990  0.50000  1.0000 -1.1708134349
O   O35       1.0  0.13990  0.97530  0.00000  1.0000 -1.1708134349
O   O36       1.0  0.86010  0.02470  0.00000  1.0000 -1.1781534318
O   O37       1.0  0.02470  0.86010  0.00000  1.0000 -1.1781534318
O   O38       1.0  0.97530  0.13990  0.00000  1.0000 -1.1708134349
O   O39       1.0  0.36010  0.47530  0.50000  1.0000 -1.1708134349
O   O40       1.0  0.63990  0.52470  0.50000  1.0000 -1.1708134349
O   O41       1.0  0.44460  0.55540  0.44390  1.0000 -1.1606672427
O   O42       1.0  0.55540  0.44460  0.44390  1.0000 -1.1606672427
O   O43       1.0  0.94460  0.94460  0.94390  1.0000 -1.1606672427
O   O44       1.0  0.05540  0.05540  0.94390  1.0000 -1.1708134349
O   O45       1.0  0.05540  0.05540  0.05610  1.0000 -1.1606672427
O   O46       1.0  0.94460  0.94460  0.05610  1.0000 -1.1606672427
O   O47       1.0  0.55540  0.44460  0.55610  1.0000 -1.1606672427
O   O48       1.0  0.44460  0.55540  0.55610  1.0000 -1.1606672427
