# DDEC6 charges by PACMAN v1.1 (https://github.com/mtap-research/PACMAN-charge/)
data_2020[Eu][flu]3[ASR]2
_chemical_formula_sum              "Eu2 P2 H24 C42 O14"
_cell_length_a       10.724
_cell_length_b       11.831
_cell_length_c       14.593
_cell_angle_alpha    73.66
_cell_angle_beta     71.98
_cell_angle_gamma    66.9

_symmetry_space_group_name_H-M    "P 1"
_symmetry_Int_Tables_number       1

loop_
  _symmetry_equiv_pos_as_xyz
  'x, y, z'

loop_
  _atom_site_type_symbol
  _atom_site_label
  _atom_site_symmetry_multiplicity
  _atom_site_fract_x
  _atom_site_fract_y
  _atom_site_fract_z
  _atom_site_occupancy
  _atom_site_charge
Eu  Eu1       1.0  0.98752  0.55120  0.62776  1.0000 2.1241232772
Eu  Eu2       1.0  0.01248  0.44880  0.37224  1.0000 2.1241232772
P   P1        1.0  0.14279  0.71939  0.72613  1.0000 0.9043536205
P   P2        1.0  0.85721  0.28061  0.27387  1.0000 0.9043536205
H   H1        1.0  0.50715  0.63205  0.44281  1.0000 0.1217510644
H   H2        1.0  0.95410  0.89744  0.61675  1.0000 0.1217510644
H   H3        1.0  0.27962  0.67917  0.53491  1.0000 0.1269625295
H   H4        1.0  0.96927  0.82250  0.89534  1.0000 0.1109158962
H   H5        1.0  0.64187  0.61650  0.67844  1.0000 0.1269625295
H   H6        1.0  0.41006  0.67240  0.77086  1.0000 0.1109158962
H   H7        1.0  0.18657  0.91936  0.78054  1.0000 0.1109158962
H   H8        1.0  0.24983  0.42317  0.01689  1.0000 0.1217510644
H   H9        1.0  0.93461  0.74671  0.06332  1.0000 0.1269625295
H   H10       1.0  0.88521  0.11468  0.56573  1.0000 0.1217510644
H   H11       1.0  0.11180  0.13605  0.73323  1.0000 0.1361430753
H   H12       1.0  0.27719  0.49573  0.84789  1.0000 0.1217510644
H   H13       1.0  0.49285  0.36795  0.55719  1.0000 0.1217510644
H   H14       1.0  0.04590  0.10256  0.38325  1.0000 0.1217510644
H   H15       1.0  0.72038  0.32083  0.46509  1.0000 0.1269625295
H   H16       1.0  0.03073  0.17750  0.10466  1.0000 0.1109158962
H   H17       1.0  0.35813  0.38350  0.32156  1.0000 0.1269625295
H   H18       1.0  0.58994  0.32760  0.22914  1.0000 0.1109158962
H   H19       1.0  0.81343  0.08064  0.21946  1.0000 0.1109158962
H   H20       1.0  0.75017  0.57683  0.98311  1.0000 0.1217510644
H   H21       1.0  0.06539  0.25329  0.93668  1.0000 0.1269625295
H   H22       1.0  0.11479  0.88532  0.43427  1.0000 0.1217510644
H   H23       1.0  0.88820  0.86395  0.26677  1.0000 0.1361430753
H   H24       1.0  0.72281  0.50427  0.15211  1.0000 0.1217510644
C   C1        1.0  0.12910  0.66710  0.85520  1.0000 -0.157327665
C   C2        1.0  0.48760  0.63920  0.50940  1.0000 -0.0923452742
C   C3        1.0  0.07870  0.88680  0.70250  1.0000 -0.157327665
C   C4        1.0  0.32260  0.67760  0.66270  1.0000 -0.157327665
C   C5        1.0  0.98780  0.94560  0.63920  1.0000 -0.0811830591
C   C6        1.0  0.35280  0.66700  0.56410  1.0000 -0.0715018939
C   C7        1.0  0.59530  0.62140  0.55180  1.0000 -0.0110671628
C   C8        1.0  0.02590  0.74140  0.91990  1.0000 -0.0923452742
C   C9        1.0  0.56770  0.63100  0.64940  1.0000 -0.0923452742
C   C10       1.0  0.43000  0.66200  0.70500  1.0000 -0.0980305063
C   C11       1.0  0.12530  0.95890  0.73710  1.0000 -0.0980305063
C   C12       1.0  0.09040  0.57980  0.05610  1.0000 0.006956365
C   C13       1.0  0.06750  0.53500  0.16490  1.0000 0.5632140655
C   C14       1.0  0.19260  0.50390  0.99210  1.0000 -0.0980305063
C   C15       1.0  0.00640  0.69670  0.01950  1.0000 -0.0980305063
C   C16       1.0  0.99580  0.14580  0.64200  1.0000 -0.0110671628
C   C17       1.0  0.94680  0.07480  0.60900  1.0000 -0.0980305063
C   C18       1.0  0.08220  0.08740  0.70800  1.0000 -0.0980305063
C   C19       1.0  0.96110  0.28360  0.60170  1.0000 0.6330800374
C   C20       1.0  0.74140  0.58530  0.49310  1.0000 0.6191456635
C   C21       1.0  0.20960  0.54780  0.89190  1.0000 -0.0811830591
C   C22       1.0  0.87090  0.33290  0.14480  1.0000 -0.157327665
C   C23       1.0  0.51240  0.36080  0.49060  1.0000 -0.0923452742
C   C24       1.0  0.92130  0.11320  0.29750  1.0000 -0.157327665
C   C25       1.0  0.67740  0.32240  0.33730  1.0000 -0.157327665
C   C26       1.0  0.01220  0.05440  0.36080  1.0000 -0.0811830591
C   C27       1.0  0.64720  0.33300  0.43590  1.0000 -0.0715018939
C   C28       1.0  0.40470  0.37860  0.44820  1.0000 -0.0110671628
C   C29       1.0  0.97410  0.25860  0.08010  1.0000 -0.0923452742
C   C30       1.0  0.43230  0.36900  0.35060  1.0000 -0.0923452742
C   C31       1.0  0.57000  0.33800  0.29500  1.0000 -0.0980305063
C   C32       1.0  0.87470  0.04110  0.26290  1.0000 -0.0980305063
C   C33       1.0  0.90960  0.42020  0.94390  1.0000 0.006956365
C   C34       1.0  0.93250  0.46500  0.83510  1.0000 0.5632140655
C   C35       1.0  0.80740  0.49610  0.00790  1.0000 -0.0980305063
C   C36       1.0  0.99360  0.30330  0.98050  1.0000 -0.0980305063
C   C37       1.0  0.00420  0.85420  0.35800  1.0000 -0.0110671628
C   C38       1.0  0.05320  0.92520  0.39100  1.0000 -0.0980305063
C   C39       1.0  0.91780  0.91260  0.29200  1.0000 -0.0980305063
C   C40       1.0  0.03890  0.71640  0.39830  1.0000 0.6330800374
C   C41       1.0  0.25860  0.41470  0.50690  1.0000 0.6191456635
C   C42       1.0  0.79040  0.45220  0.10810  1.0000 -0.0923452742
O   O1        1.0  0.94670  0.57550  0.21620  1.0000 -0.6056604664
O   O2        1.0  0.76430  0.56110  0.40930  1.0000 -0.6040230672
O   O3        1.0  0.93220  0.31910  0.51860  1.0000 -0.6701600533
O   O4        1.0  0.16810  0.45870  0.20340  1.0000 -0.6565463822
O   O5        1.0  0.96630  0.35080  0.65290  1.0000 -0.6473123412
O   O6        1.0  0.84000  0.57490  0.52840  1.0000 -0.7531130295
O   O7        1.0  0.06400  0.67090  0.68680  1.0000 -0.7738060634
O   O8        1.0  0.05330  0.42450  0.78380  1.0000 -0.6056604664
O   O9        1.0  0.23570  0.43890  0.59070  1.0000 -0.6040230672
O   O10       1.0  0.06780  0.68090  0.48140  1.0000 -0.6701600533
O   O11       1.0  0.83190  0.54130  0.79660  1.0000 -0.6565463822
O   O12       1.0  0.03370  0.64920  0.34710  1.0000 -0.6473123412
O   O13       1.0  0.16000  0.42510  0.47160  1.0000 -0.7531130295
O   O14       1.0  0.93600  0.32910  0.31320  1.0000 -0.7738060634
