# DDEC6 charges by PACMAN v1.1 (https://github.com/mtap-research/PACMAN-charge/)
data_2020[Al][nan]3[ASR]3
_chemical_formula_sum              "Al12 H132 C216 O84"
_cell_length_a       20.1925
_cell_length_b       20.1925
_cell_length_c       17.1433
_cell_angle_alpha    90
_cell_angle_beta     90
_cell_angle_gamma    97.5379

_symmetry_space_group_name_H-M    "P 1"
_symmetry_Int_Tables_number       1

loop_
  _symmetry_equiv_pos_as_xyz
  'x, y, z'

loop_
  _atom_site_type_symbol
  _atom_site_label
  _atom_site_symmetry_multiplicity
  _atom_site_fract_x
  _atom_site_fract_y
  _atom_site_fract_z
  _atom_site_occupancy
  _atom_site_charge
Al  Al1       1.0  0.72397  0.32939  0.08594  1.0000 1.6398477426
Al  Al2       1.0  0.27603  0.67061  0.08594  1.0000 1.6398477426
Al  Al3       1.0  0.67061  0.27603  0.91406  1.0000 1.6398477426
Al  Al4       1.0  0.32939  0.72397  0.91406  1.0000 1.6398477426
Al  Al5       1.0  0.77603  0.17061  0.41406  1.0000 1.6398477426
Al  Al6       1.0  0.22397  0.82939  0.41406  1.0000 1.6398477426
Al  Al7       1.0  0.82939  0.22397  0.58594  1.0000 1.6398477426
Al  Al8       1.0  0.17061  0.77603  0.58594  1.0000 1.6398477426
Al  Al9       1.0  0.75000  0.25000  0.25000  1.0000 1.6619398465
Al  Al10      1.0  0.25000  0.75000  0.25000  1.0000 1.6619398465
Al  Al11      1.0  0.75000  0.25000  0.75000  1.0000 1.6619398465
Al  Al12      1.0  0.25000  0.75000  0.75000  1.0000 1.6619398465
H   H1        1.0  0.95576  0.27952  0.22910  1.0000 0.1210609073
H   H2        1.0  0.06996  0.29028  0.20356  1.0000 0.1304248201
H   H3        1.0  0.03778  0.36724  0.99156  1.0000 0.1379120817
H   H4        1.0  0.92398  0.35832  0.01885  1.0000 0.1210609073
H   H5        1.0  0.10574  0.20980  0.06507  1.0000 0.1531667283
H   H6        1.0  0.28246  0.16516  0.15357  1.0000 0.160610201
H   H7        1.0  0.24657  0.35779  0.13891  1.0000 0.160610201
H   H8        1.0  0.22098  0.01255  0.04013  1.0000 0.1304248201
H   H9        1.0  0.24373  0.91875  0.10919  1.0000 0.1210609073
H   H10       1.0  0.18320  0.99942  0.30837  1.0000 0.1304248201
H   H11       1.0  0.16060  0.09380  0.23879  1.0000 0.1304248201
H   H12       1.0  0.54853  0.33681  0.17796  1.0000 0.1304248201
H   H13       1.0  0.44521  0.33305  0.23647  1.0000 0.1304248201
H   H14       1.0  0.35837  0.24153  0.04549  1.0000 0.1304248201
H   H15       1.0  0.46359  0.24497  0.98707  1.0000 0.1210609073
H   H16       1.0  0.67726  0.22522  0.13378  1.0000 0.4226399929
H   H17       1.0  0.04424  0.72048  0.22910  1.0000 0.1210609073
H   H18       1.0  0.93004  0.70972  0.20356  1.0000 0.1304248201
H   H19       1.0  0.96222  0.63276  0.99156  1.0000 0.1379120817
H   H20       1.0  0.07602  0.64168  0.01885  1.0000 0.1210609073
H   H21       1.0  0.89426  0.79020  0.06507  1.0000 0.1531667283
H   H22       1.0  0.71754  0.83484  0.15357  1.0000 0.160610201
H   H23       1.0  0.75343  0.64221  0.13891  1.0000 0.160610201
H   H24       1.0  0.77902  0.98745  0.04013  1.0000 0.1304248201
H   H25       1.0  0.75627  0.08125  0.10919  1.0000 0.1210609073
H   H26       1.0  0.81680  0.00058  0.30837  1.0000 0.1304248201
H   H27       1.0  0.83940  0.90620  0.23879  1.0000 0.1304248201
H   H28       1.0  0.45147  0.66319  0.17796  1.0000 0.1304248201
H   H29       1.0  0.55479  0.66695  0.23647  1.0000 0.1304248201
H   H30       1.0  0.64163  0.75847  0.04549  1.0000 0.1304248201
H   H31       1.0  0.53641  0.75503  0.98707  1.0000 0.1210609073
H   H32       1.0  0.32274  0.77478  0.13378  1.0000 0.4226399929
H   H33       1.0  0.72048  0.04424  0.77090  1.0000 0.1210609073
H   H34       1.0  0.70972  0.93004  0.79644  1.0000 0.1304248201
H   H35       1.0  0.63276  0.96222  0.00844  1.0000 0.1379120817
H   H36       1.0  0.64168  0.07602  0.98115  1.0000 0.1210609073
H   H37       1.0  0.79020  0.89426  0.93493  1.0000 0.1531667283
H   H38       1.0  0.83484  0.71754  0.84643  1.0000 0.160610201
H   H39       1.0  0.64221  0.75343  0.86109  1.0000 0.160610201
H   H40       1.0  0.98745  0.77902  0.95987  1.0000 0.1304248201
H   H41       1.0  0.08125  0.75627  0.89081  1.0000 0.1210609073
H   H42       1.0  0.00058  0.81680  0.69163  1.0000 0.1304248201
H   H43       1.0  0.90620  0.83940  0.76121  1.0000 0.1304248201
H   H44       1.0  0.66319  0.45147  0.82204  1.0000 0.1304248201
H   H45       1.0  0.66695  0.55479  0.76353  1.0000 0.1304248201
H   H46       1.0  0.75847  0.64163  0.95451  1.0000 0.1304248201
H   H47       1.0  0.75503  0.53641  0.01293  1.0000 0.1210609073
H   H48       1.0  0.77478  0.32274  0.86622  1.0000 0.4226399929
H   H49       1.0  0.27952  0.95576  0.77090  1.0000 0.1210609073
H   H50       1.0  0.29028  0.06996  0.79644  1.0000 0.1304248201
H   H51       1.0  0.36724  0.03778  0.00844  1.0000 0.1379120817
H   H52       1.0  0.35832  0.92398  0.98115  1.0000 0.1210609073
H   H53       1.0  0.20980  0.10574  0.93493  1.0000 0.1531667283
H   H54       1.0  0.16516  0.28246  0.84643  1.0000 0.160610201
H   H55       1.0  0.35779  0.24657  0.86109  1.0000 0.160610201
H   H56       1.0  0.01255  0.22098  0.95987  1.0000 0.1304248201
H   H57       1.0  0.91875  0.24373  0.89081  1.0000 0.1210609073
H   H58       1.0  0.99942  0.18320  0.69163  1.0000 0.1304248201
H   H59       1.0  0.09380  0.16060  0.76121  1.0000 0.1304248201
H   H60       1.0  0.33681  0.54853  0.82204  1.0000 0.1304248201
H   H61       1.0  0.33305  0.44521  0.76353  1.0000 0.1304248201
H   H62       1.0  0.24153  0.35837  0.95451  1.0000 0.1304248201
H   H63       1.0  0.24497  0.46359  0.01293  1.0000 0.1210609073
H   H64       1.0  0.22522  0.67726  0.86622  1.0000 0.4226399929
H   H65       1.0  0.54424  0.22048  0.27090  1.0000 0.1210609073
H   H66       1.0  0.43004  0.20972  0.29644  1.0000 0.1304248201
H   H67       1.0  0.46222  0.13276  0.50844  1.0000 0.1379120817
H   H68       1.0  0.57602  0.14168  0.48115  1.0000 0.1210609073
H   H69       1.0  0.39426  0.29020  0.43493  1.0000 0.1531667283
H   H70       1.0  0.21754  0.33484  0.34643  1.0000 0.160610201
H   H71       1.0  0.25343  0.14221  0.36109  1.0000 0.160610201
H   H72       1.0  0.27902  0.48746  0.45987  1.0000 0.1304248201
H   H73       1.0  0.25627  0.58125  0.39081  1.0000 0.1210609073
H   H74       1.0  0.31680  0.50058  0.19163  1.0000 0.1304248201
H   H75       1.0  0.33940  0.40620  0.26121  1.0000 0.1304248201
H   H76       1.0  0.95147  0.16319  0.32204  1.0000 0.1304248201
H   H77       1.0  0.05479  0.16695  0.26353  1.0000 0.1304248201
H   H78       1.0  0.14163  0.25847  0.45451  1.0000 0.1304248201
H   H79       1.0  0.03641  0.25503  0.51293  1.0000 0.1210609073
H   H80       1.0  0.82274  0.27478  0.36622  1.0000 0.4226399929
H   H81       1.0  0.45576  0.77952  0.27090  1.0000 0.1210609073
H   H82       1.0  0.56996  0.79028  0.29644  1.0000 0.1304248201
H   H83       1.0  0.53778  0.86724  0.50844  1.0000 0.1379120817
H   H84       1.0  0.42398  0.85832  0.48115  1.0000 0.1210609073
H   H85       1.0  0.60574  0.70980  0.43493  1.0000 0.1531667283
H   H86       1.0  0.78246  0.66516  0.34643  1.0000 0.160610201
H   H87       1.0  0.74657  0.85779  0.36109  1.0000 0.160610201
H   H88       1.0  0.72098  0.51255  0.45987  1.0000 0.1304248201
H   H89       1.0  0.74373  0.41875  0.39081  1.0000 0.1210609073
H   H90       1.0  0.68320  0.49942  0.19163  1.0000 0.1304248201
H   H91       1.0  0.66060  0.59380  0.26121  1.0000 0.1304248201
H   H92       1.0  0.04853  0.83681  0.32204  1.0000 0.1304248201
H   H93       1.0  0.94521  0.83305  0.26353  1.0000 0.1304248201
H   H94       1.0  0.85837  0.74153  0.45451  1.0000 0.1304248201
H   H95       1.0  0.96359  0.74497  0.51293  1.0000 0.1210609073
H   H96       1.0  0.17726  0.72522  0.36622  1.0000 0.4226399929
H   H97       1.0  0.77952  0.45576  0.72910  1.0000 0.1210609073
H   H98       1.0  0.79028  0.56996  0.70356  1.0000 0.1304248201
H   H99       1.0  0.86724  0.53778  0.49156  1.0000 0.1379120817
H   H100      1.0  0.85832  0.42398  0.51885  1.0000 0.1210609073
H   H101      1.0  0.70980  0.60574  0.56507  1.0000 0.1531667283
H   H102      1.0  0.66516  0.78246  0.65357  1.0000 0.160610201
H   H103      1.0  0.85779  0.74657  0.63891  1.0000 0.160610201
H   H104      1.0  0.51255  0.72099  0.54013  1.0000 0.1304248201
H   H105      1.0  0.41875  0.74373  0.60919  1.0000 0.1210609073
H   H106      1.0  0.49942  0.68320  0.80837  1.0000 0.1304248201
H   H107      1.0  0.59380  0.66060  0.73879  1.0000 0.1304248201
H   H108      1.0  0.83681  0.04853  0.67796  1.0000 0.1304248201
H   H109      1.0  0.83305  0.94521  0.73647  1.0000 0.1304248201
H   H110      1.0  0.74153  0.85837  0.54549  1.0000 0.1304248201
H   H111      1.0  0.74497  0.96359  0.48707  1.0000 0.1210609073
H   H112      1.0  0.72522  0.17726  0.63378  1.0000 0.4226399929
H   H113      1.0  0.22048  0.54424  0.72910  1.0000 0.1210609073
H   H114      1.0  0.20972  0.43004  0.70356  1.0000 0.1304248201
H   H115      1.0  0.13276  0.46222  0.49156  1.0000 0.1379120817
H   H116      1.0  0.14168  0.57602  0.51885  1.0000 0.1210609073
H   H117      1.0  0.29020  0.39426  0.56507  1.0000 0.1531667283
H   H118      1.0  0.33484  0.21754  0.65357  1.0000 0.160610201
H   H119      1.0  0.14221  0.25343  0.63891  1.0000 0.160610201
H   H120      1.0  0.48745  0.27902  0.54013  1.0000 0.1304248201
H   H121      1.0  0.58125  0.25627  0.60919  1.0000 0.1210609073
H   H122      1.0  0.50058  0.31680  0.80837  1.0000 0.1304248201
H   H123      1.0  0.40620  0.33940  0.73879  1.0000 0.1304248201
H   H124      1.0  0.16319  0.95147  0.67796  1.0000 0.1304248201
H   H125      1.0  0.16695  0.05479  0.73647  1.0000 0.1304248201
H   H126      1.0  0.25847  0.14163  0.54549  1.0000 0.1304248201
H   H127      1.0  0.25503  0.03641  0.48707  1.0000 0.1210609073
H   H128      1.0  0.27478  0.82274  0.63378  1.0000 0.4226399929
H   H129      1.0  0.75699  0.24301  0.00000  1.0000 0.4226399929
H   H130      1.0  0.24301  0.75699  0.00000  1.0000 0.4226399929
H   H131      1.0  0.74301  0.25699  0.50000  1.0000 0.4226399929
H   H132      1.0  0.25699  0.74301  0.50000  1.0000 0.4226399929
C   C1        1.0  0.85549  0.31139  0.14390  1.0000 0.6305917894
C   C2        1.0  0.92899  0.31857  0.12640  1.0000 -0.0529268848
C   C3        1.0  0.97251  0.29789  0.18090  1.0000 -0.0805254848
C   C4        1.0  0.04010  0.30390  0.16580  1.0000 -0.2106801512
C   C5        1.0  0.06385  0.32969  0.09550  1.0000 0.2447469702
C   C6        1.0  0.02103  0.34977  0.04020  1.0000 -0.2029404303
C   C7        1.0  0.95370  0.34422  0.05650  1.0000 -0.0805254848
C   C8        1.0  0.17013  0.29039  0.10020  1.0000 0.2742631903
C   C9        1.0  0.14839  0.22383  0.08730  1.0000 -0.3376413414
C   C10       1.0  0.19105  0.17759  0.10790  1.0000 0.2969582324
C   C11       1.0  0.25376  0.19702  0.13990  1.0000 -0.3376413414
C   C12       1.0  0.27245  0.26367  0.15070  1.0000 0.2742631903
C   C13       1.0  0.23193  0.31161  0.13110  1.0000 -0.3326091563
C   C14       1.0  0.18802  0.06088  0.13340  1.0000 0.2484977385
C   C15       1.0  0.21301  0.00959  0.09470  1.0000 -0.2106801512
C   C16       1.0  0.22634  0.95406  0.13560  1.0000 -0.0805254848
C   C17       1.0  0.21452  0.94978  0.21510  1.0000 -0.0589392258
C   C18       1.0  0.19052  0.00192  0.25360  1.0000 -0.0805254848
C   C19       1.0  0.17710  0.05790  0.21250  1.0000 -0.2106801512
C   C20       1.0  0.22583  0.88891  0.25940  1.0000 0.6358432045
C   C21       1.0  0.58432  0.29502  0.04140  1.0000 0.6305917894
C   C22       1.0  0.51602  0.29104  0.07720  1.0000 -0.0529268848
C   C23       1.0  0.50975  0.31715  0.15100  1.0000 -0.0805254848
C   C24       1.0  0.44883  0.31511  0.18560  1.0000 -0.2106801512
C   C25       1.0  0.39212  0.28672  0.14640  1.0000 0.2584138384
C   C26       1.0  0.39727  0.26073  0.07250  1.0000 -0.2291563701
C   C27       1.0  0.45970  0.26290  0.03790  1.0000 -0.0805254848
C   C28       1.0  0.14451  0.68861  0.14390  1.0000 0.6305917894
C   C29       1.0  0.07101  0.68143  0.12640  1.0000 -0.0529268848
C   C30       1.0  0.02749  0.70211  0.18090  1.0000 -0.0805254848
C   C31       1.0  0.95990  0.69610  0.16580  1.0000 -0.2106801512
C   C32       1.0  0.93615  0.67031  0.09550  1.0000 0.2447469702
C   C33       1.0  0.97897  0.65023  0.04020  1.0000 -0.2029404303
C   C34       1.0  0.04630  0.65578  0.05650  1.0000 -0.0805254848
C   C35       1.0  0.82987  0.70961  0.10020  1.0000 0.2742631903
C   C36       1.0  0.85161  0.77617  0.08730  1.0000 -0.3376413414
C   C37       1.0  0.80895  0.82241  0.10790  1.0000 0.2969582324
C   C38       1.0  0.74624  0.80298  0.13990  1.0000 -0.3376413414
C   C39       1.0  0.72755  0.73633  0.15070  1.0000 0.2742631903
C   C40       1.0  0.76807  0.68839  0.13110  1.0000 -0.3326091563
C   C41       1.0  0.81198  0.93912  0.13340  1.0000 0.2484977385
C   C42       1.0  0.78699  0.99041  0.09470  1.0000 -0.2106801512
C   C43       1.0  0.77366  0.04594  0.13560  1.0000 -0.0805254848
C   C44       1.0  0.78548  0.05022  0.21510  1.0000 -0.0589392258
C   C45       1.0  0.80948  0.99808  0.25360  1.0000 -0.0805254848
C   C46       1.0  0.82290  0.94210  0.21250  1.0000 -0.2106801512
C   C47       1.0  0.77417  0.11109  0.25940  1.0000 0.6358432045
C   C48       1.0  0.41568  0.70498  0.04140  1.0000 0.6305917894
C   C49       1.0  0.48398  0.70896  0.07720  1.0000 -0.0529268848
C   C50       1.0  0.49025  0.68285  0.15100  1.0000 -0.0805254848
C   C51       1.0  0.55117  0.68489  0.18560  1.0000 -0.2106801512
C   C52       1.0  0.60788  0.71328  0.14640  1.0000 0.2584138384
C   C53       1.0  0.60273  0.73927  0.07250  1.0000 -0.2291563701
C   C54       1.0  0.54030  0.73710  0.03790  1.0000 -0.0805254848
C   C55       1.0  0.68861  0.14451  0.85610  1.0000 0.6305917894
C   C56       1.0  0.68143  0.07101  0.87360  1.0000 -0.0529268848
C   C57       1.0  0.70211  0.02749  0.81910  1.0000 -0.0805254848
C   C58       1.0  0.69610  0.95990  0.83420  1.0000 -0.2106801512
C   C59       1.0  0.67031  0.93615  0.90450  1.0000 0.2484977385
C   C60       1.0  0.65023  0.97897  0.95980  1.0000 -0.2029404303
C   C61       1.0  0.65578  0.04630  0.94350  1.0000 -0.0805254848
C   C62       1.0  0.70961  0.82987  0.89980  1.0000 0.2742631903
C   C63       1.0  0.77617  0.85161  0.91270  1.0000 -0.3376413414
C   C64       1.0  0.82241  0.80895  0.89210  1.0000 0.2969582324
C   C65       1.0  0.80298  0.74624  0.86010  1.0000 -0.3376413414
C   C66       1.0  0.73633  0.72755  0.84930  1.0000 0.2742631903
C   C67       1.0  0.68839  0.76807  0.86890  1.0000 -0.3326091563
C   C68       1.0  0.93912  0.81198  0.86660  1.0000 0.2484977385
C   C69       1.0  0.99041  0.78699  0.90530  1.0000 -0.2106801512
C   C70       1.0  0.04594  0.77366  0.86440  1.0000 -0.0805254848
C   C71       1.0  0.05022  0.78548  0.78490  1.0000 -0.0589392258
C   C72       1.0  0.99808  0.80948  0.74640  1.0000 -0.0805254848
C   C73       1.0  0.94210  0.82290  0.78750  1.0000 -0.2106801512
C   C74       1.0  0.11109  0.77417  0.74060  1.0000 0.6358432045
C   C75       1.0  0.70498  0.41568  0.95860  1.0000 0.6305917894
C   C76       1.0  0.70896  0.48398  0.92280  1.0000 -0.0529268848
C   C77       1.0  0.68285  0.49025  0.84900  1.0000 -0.0805254848
C   C78       1.0  0.68489  0.55117  0.81440  1.0000 -0.2106801512
C   C79       1.0  0.71328  0.60788  0.85360  1.0000 0.2584138384
C   C80       1.0  0.73927  0.60273  0.92750  1.0000 -0.2291563701
C   C81       1.0  0.73710  0.54030  0.96210  1.0000 -0.0805254848
C   C82       1.0  0.31139  0.85549  0.85610  1.0000 0.6305917894
C   C83       1.0  0.31857  0.92899  0.87360  1.0000 -0.0529268848
C   C84       1.0  0.29789  0.97251  0.81910  1.0000 -0.0805254848
C   C85       1.0  0.30390  0.04010  0.83420  1.0000 -0.2106801512
C   C86       1.0  0.32969  0.06385  0.90450  1.0000 0.2447469702
C   C87       1.0  0.34977  0.02103  0.95980  1.0000 -0.2029404303
C   C88       1.0  0.34422  0.95370  0.94350  1.0000 -0.0805254848
C   C89       1.0  0.29039  0.17013  0.89980  1.0000 0.2742631903
C   C90       1.0  0.22383  0.14839  0.91270  1.0000 -0.3326091563
C   C91       1.0  0.17759  0.19105  0.89210  1.0000 0.2969582324
C   C92       1.0  0.19702  0.25376  0.86010  1.0000 -0.3376413414
C   C93       1.0  0.26367  0.27245  0.84930  1.0000 0.2742631903
C   C94       1.0  0.31161  0.23193  0.86890  1.0000 -0.3326091563
C   C95       1.0  0.06088  0.18802  0.86660  1.0000 0.2484977385
C   C96       1.0  0.00959  0.21301  0.90530  1.0000 -0.2106801512
C   C97       1.0  0.95406  0.22634  0.86440  1.0000 -0.0805254848
C   C98       1.0  0.94978  0.21452  0.78490  1.0000 -0.0589392258
C   C99       1.0  0.00192  0.19052  0.74640  1.0000 -0.0805254848
C   C100      1.0  0.05790  0.17710  0.78750  1.0000 -0.2192185985
C   C101      1.0  0.88891  0.22583  0.74060  1.0000 0.6358432045
C   C102      1.0  0.29502  0.58432  0.95860  1.0000 0.6305917894
C   C103      1.0  0.29104  0.51602  0.92280  1.0000 -0.0529268848
C   C104      1.0  0.31715  0.50975  0.84900  1.0000 -0.0805254848
C   C105      1.0  0.31511  0.44883  0.81440  1.0000 -0.2106801512
C   C106      1.0  0.28672  0.39212  0.85360  1.0000 0.2584138384
C   C107      1.0  0.26073  0.39727  0.92750  1.0000 -0.2291563701
C   C108      1.0  0.26290  0.45970  0.96210  1.0000 -0.0805254848
C   C109      1.0  0.64451  0.18861  0.35610  1.0000 0.6305917894
C   C110      1.0  0.57101  0.18143  0.37360  1.0000 -0.0529268848
C   C111      1.0  0.52749  0.20211  0.31910  1.0000 -0.0805254848
C   C112      1.0  0.45990  0.19610  0.33420  1.0000 -0.2106801512
C   C113      1.0  0.43615  0.17031  0.40450  1.0000 0.2447469702
C   C114      1.0  0.47897  0.15023  0.45980  1.0000 -0.2029404303
C   C115      1.0  0.54630  0.15578  0.44350  1.0000 -0.0805254848
C   C116      1.0  0.32987  0.20961  0.39980  1.0000 0.2742631903
C   C117      1.0  0.35161  0.27617  0.41270  1.0000 -0.3376413414
C   C118      1.0  0.30895  0.32241  0.39210  1.0000 0.2969582324
C   C119      1.0  0.24624  0.30298  0.36010  1.0000 -0.3376413414
C   C120      1.0  0.22755  0.23633  0.34930  1.0000 0.2742631903
C   C121      1.0  0.26807  0.18839  0.36890  1.0000 -0.3326091563
C   C122      1.0  0.31198  0.43912  0.36660  1.0000 0.2484977385
C   C123      1.0  0.28699  0.49041  0.40530  1.0000 -0.2106801512
C   C124      1.0  0.27366  0.54594  0.36440  1.0000 -0.0805254848
C   C125      1.0  0.28548  0.55022  0.28490  1.0000 -0.0589392258
C   C126      1.0  0.30948  0.49808  0.24640  1.0000 -0.0805254848
C   C127      1.0  0.32290  0.44210  0.28750  1.0000 -0.2106801512
C   C128      1.0  0.27417  0.61109  0.24060  1.0000 0.6358432045
C   C129      1.0  0.91568  0.20498  0.45860  1.0000 0.6305917894
C   C130      1.0  0.98398  0.20896  0.42280  1.0000 -0.0529268848
C   C131      1.0  0.99025  0.18285  0.34900  1.0000 -0.0805254848
C   C132      1.0  0.05117  0.18489  0.31440  1.0000 -0.2106801512
C   C133      1.0  0.10788  0.21328  0.35360  1.0000 0.2584138384
C   C134      1.0  0.10273  0.23927  0.42750  1.0000 -0.2291563701
C   C135      1.0  0.04030  0.23710  0.46210  1.0000 -0.0805254848
C   C136      1.0  0.35549  0.81139  0.35610  1.0000 0.6305917894
C   C137      1.0  0.42899  0.81857  0.37360  1.0000 -0.0529268848
C   C138      1.0  0.47251  0.79789  0.31910  1.0000 -0.0805254848
C   C139      1.0  0.54010  0.80390  0.33420  1.0000 -0.2106801512
C   C140      1.0  0.56385  0.82969  0.40450  1.0000 0.2447469702
C   C141      1.0  0.52103  0.84977  0.45980  1.0000 -0.2029404303
C   C142      1.0  0.45370  0.84422  0.44350  1.0000 -0.0805254848
C   C143      1.0  0.67013  0.79039  0.39980  1.0000 0.2742631903
C   C144      1.0  0.64839  0.72383  0.41270  1.0000 -0.3376413414
C   C145      1.0  0.69105  0.67759  0.39210  1.0000 0.2969582324
C   C146      1.0  0.75376  0.69702  0.36010  1.0000 -0.3376413414
C   C147      1.0  0.77245  0.76367  0.34930  1.0000 0.2742631903
C   C148      1.0  0.73193  0.81161  0.36890  1.0000 -0.3326091563
C   C149      1.0  0.68802  0.56088  0.36660  1.0000 0.2484977385
C   C150      1.0  0.71301  0.50959  0.40530  1.0000 -0.2106801512
C   C151      1.0  0.72634  0.45406  0.36440  1.0000 -0.0805254848
C   C152      1.0  0.71452  0.44978  0.28490  1.0000 -0.0589392258
C   C153      1.0  0.69052  0.50192  0.24640  1.0000 -0.0805254848
C   C154      1.0  0.67710  0.55790  0.28750  1.0000 -0.2192185985
C   C155      1.0  0.72583  0.38891  0.24060  1.0000 0.6358432045
C   C156      1.0  0.08432  0.79502  0.45860  1.0000 0.6305917894
C   C157      1.0  0.01602  0.79104  0.42280  1.0000 -0.0529268848
C   C158      1.0  0.00975  0.81715  0.34900  1.0000 -0.0805254848
C   C159      1.0  0.94883  0.81511  0.31440  1.0000 -0.2106801512
C   C160      1.0  0.89212  0.78672  0.35360  1.0000 0.2584138384
C   C161      1.0  0.89727  0.76073  0.42750  1.0000 -0.2291563701
C   C162      1.0  0.95970  0.76290  0.46210  1.0000 -0.0805254848
C   C163      1.0  0.81139  0.35549  0.64390  1.0000 0.6305917894
C   C164      1.0  0.81857  0.42899  0.62640  1.0000 -0.0529268848
C   C165      1.0  0.79789  0.47251  0.68090  1.0000 -0.0805254848
C   C166      1.0  0.80390  0.54010  0.66580  1.0000 -0.2106801512
C   C167      1.0  0.82969  0.56385  0.59550  1.0000 0.2447469702
C   C168      1.0  0.84977  0.52103  0.54020  1.0000 -0.2029404303
C   C169      1.0  0.84422  0.45370  0.55650  1.0000 -0.0805254848
C   C170      1.0  0.79039  0.67013  0.60020  1.0000 0.2742631903
C   C171      1.0  0.72383  0.64839  0.58730  1.0000 -0.3376413414
C   C172      1.0  0.67759  0.69105  0.60790  1.0000 0.2969582324
C   C173      1.0  0.69702  0.75376  0.63990  1.0000 -0.3376413414
C   C174      1.0  0.76367  0.77245  0.65070  1.0000 0.2742631903
C   C175      1.0  0.81161  0.73193  0.63110  1.0000 -0.3326091563
C   C176      1.0  0.56088  0.68802  0.63340  1.0000 0.2484977385
C   C177      1.0  0.50959  0.71301  0.59470  1.0000 -0.2106801512
C   C178      1.0  0.45406  0.72634  0.63560  1.0000 -0.0805254848
C   C179      1.0  0.44978  0.71452  0.71510  1.0000 -0.0589392258
C   C180      1.0  0.50192  0.69052  0.75360  1.0000 -0.0805254848
C   C181      1.0  0.55790  0.67710  0.71250  1.0000 -0.2192185985
C   C182      1.0  0.38891  0.72583  0.75940  1.0000 0.6358432045
C   C183      1.0  0.79502  0.08432  0.54140  1.0000 0.6305917894
C   C184      1.0  0.79104  0.01602  0.57720  1.0000 -0.0529268848
C   C185      1.0  0.81715  0.00975  0.65100  1.0000 -0.0805254848
C   C186      1.0  0.81511  0.94883  0.68560  1.0000 -0.2106801512
C   C187      1.0  0.78672  0.89212  0.64640  1.0000 0.2584138384
C   C188      1.0  0.76073  0.89727  0.57250  1.0000 -0.2291563701
C   C189      1.0  0.76290  0.95970  0.53790  1.0000 -0.0805254848
C   C190      1.0  0.18861  0.64451  0.64390  1.0000 0.6305917894
C   C191      1.0  0.18143  0.57101  0.62640  1.0000 -0.0529268848
C   C192      1.0  0.20211  0.52749  0.68090  1.0000 -0.0805254848
C   C193      1.0  0.19610  0.45990  0.66580  1.0000 -0.2106801512
C   C194      1.0  0.17031  0.43615  0.59550  1.0000 0.2484977385
C   C195      1.0  0.15023  0.47897  0.54020  1.0000 -0.2029404303
C   C196      1.0  0.15578  0.54630  0.55650  1.0000 -0.0805254848
C   C197      1.0  0.20961  0.32987  0.60020  1.0000 0.2742631903
C   C198      1.0  0.27617  0.35161  0.58730  1.0000 -0.3376413414
C   C199      1.0  0.32241  0.30895  0.60790  1.0000 0.2969582324
C   C200      1.0  0.30298  0.24624  0.63990  1.0000 -0.3376413414
C   C201      1.0  0.23633  0.22755  0.65070  1.0000 0.2742631903
C   C202      1.0  0.18839  0.26807  0.63110  1.0000 -0.3326091563
C   C203      1.0  0.43912  0.31198  0.63340  1.0000 0.2484977385
C   C204      1.0  0.49041  0.28699  0.59470  1.0000 -0.2106801512
C   C205      1.0  0.54594  0.27366  0.63560  1.0000 -0.0805254848
C   C206      1.0  0.55022  0.28548  0.71510  1.0000 -0.0589392258
C   C207      1.0  0.49808  0.30948  0.75360  1.0000 -0.0805254848
C   C208      1.0  0.44210  0.32290  0.71250  1.0000 -0.2192185985
C   C209      1.0  0.61109  0.27417  0.75940  1.0000 0.6358432045
C   C210      1.0  0.20498  0.91568  0.54140  1.0000 0.6305917894
C   C211      1.0  0.20896  0.98398  0.57720  1.0000 -0.0529268848
C   C212      1.0  0.18285  0.99025  0.65100  1.0000 -0.0805254848
C   C213      1.0  0.18489  0.05117  0.68560  1.0000 -0.2106801512
C   C214      1.0  0.21328  0.10788  0.64640  1.0000 0.2584138384
C   C215      1.0  0.23927  0.10273  0.57250  1.0000 -0.2291563701
C   C216      1.0  0.23710  0.04030  0.53790  1.0000 -0.0805254848
O   O1        1.0  0.83592  0.28254  0.20627  1.0000 -0.5907812619
O   O2        1.0  0.81861  0.33499  0.09429  1.0000 -0.5907812619
O   O3        1.0  0.13179  0.33909  0.07740  1.0000 -0.2192185985
O   O4        1.0  0.16803  0.11171  0.08779  1.0000 -0.2192185985
O   O5        1.0  0.33320  0.28638  0.18755  1.0000 -0.2291563701
O   O6        1.0  0.23726  0.83858  0.22061  1.0000 -0.5907812619
O   O7        1.0  0.22238  0.89246  0.33222  1.0000 -0.5709337051
O   O8        1.0  0.63070  0.32996  0.07820  1.0000 -0.5907812619
O   O9        1.0  0.59160  0.26364  0.97899  1.0000 -0.5641637871
O   O10       1.0  0.71037  0.25891  0.15524  1.0000 -1.0001790056
O   O11       1.0  0.16408  0.71746  0.20627  1.0000 -0.5907812619
O   O12       1.0  0.18139  0.66501  0.09429  1.0000 -0.5907812619
O   O13       1.0  0.86821  0.66091  0.07740  1.0000 -0.2192185985
O   O14       1.0  0.83197  0.88829  0.08779  1.0000 -0.2192185985
O   O15       1.0  0.66680  0.71362  0.18755  1.0000 -0.2291563701
O   O16       1.0  0.76274  0.16142  0.22061  1.0000 -0.5907812619
O   O17       1.0  0.77762  0.10754  0.33222  1.0000 -0.5709337051
O   O18       1.0  0.36930  0.67004  0.07820  1.0000 -0.5907812619
O   O19       1.0  0.40840  0.73636  0.97899  1.0000 -0.5641637871
O   O20       1.0  0.28963  0.74109  0.15524  1.0000 -1.0001790056
O   O21       1.0  0.71746  0.16408  0.79373  1.0000 -0.5907812619
O   O22       1.0  0.66501  0.18139  0.90571  1.0000 -0.5907812619
O   O23       1.0  0.66091  0.86821  0.92260  1.0000 -0.2192185985
O   O24       1.0  0.88829  0.83197  0.91221  1.0000 -0.2192185985
O   O25       1.0  0.71362  0.66680  0.81245  1.0000 -0.2291563701
O   O26       1.0  0.16142  0.76274  0.77939  1.0000 -0.5907812619
O   O27       1.0  0.10754  0.77762  0.66778  1.0000 -0.5709337051
O   O28       1.0  0.67004  0.36930  0.92180  1.0000 -0.5907812619
O   O29       1.0  0.73636  0.40840  0.02101  1.0000 -0.5641637871
O   O30       1.0  0.74109  0.28963  0.84476  1.0000 -1.0001790056
O   O31       1.0  0.28254  0.83592  0.79373  1.0000 -0.5907812619
O   O32       1.0  0.33499  0.81861  0.90571  1.0000 -0.5907812619
O   O33       1.0  0.33909  0.13179  0.92260  1.0000 -0.2192185985
O   O34       1.0  0.11171  0.16803  0.91221  1.0000 -0.2192185985
O   O35       1.0  0.28638  0.33320  0.81245  1.0000 -0.2291563701
O   O36       1.0  0.83858  0.23726  0.77939  1.0000 -0.5907812619
O   O37       1.0  0.89246  0.22238  0.66778  1.0000 -0.5709337051
O   O38       1.0  0.32996  0.63070  0.92180  1.0000 -0.5907812619
O   O39       1.0  0.26364  0.59160  0.02101  1.0000 -0.5641637871
O   O40       1.0  0.25891  0.71037  0.84476  1.0000 -1.0001790056
O   O41       1.0  0.66408  0.21746  0.29373  1.0000 -0.5907812619
O   O42       1.0  0.68139  0.16501  0.40571  1.0000 -0.5907812619
O   O43       1.0  0.36821  0.16091  0.42260  1.0000 -0.2192185985
O   O44       1.0  0.33197  0.38829  0.41221  1.0000 -0.2192185985
O   O45       1.0  0.16680  0.21362  0.31245  1.0000 -0.2291563701
O   O46       1.0  0.26274  0.66142  0.27939  1.0000 -0.5907812619
O   O47       1.0  0.27762  0.60754  0.16778  1.0000 -0.5709337051
O   O48       1.0  0.86930  0.17004  0.42180  1.0000 -0.5907812619
O   O49       1.0  0.90840  0.23636  0.52101  1.0000 -0.5641637871
O   O50       1.0  0.78963  0.24109  0.34476  1.0000 -1.0001790056
O   O51       1.0  0.33592  0.78254  0.29373  1.0000 -0.5907812619
O   O52       1.0  0.31861  0.83499  0.40571  1.0000 -0.5907812619
O   O53       1.0  0.63179  0.83909  0.42260  1.0000 -0.2192185985
O   O54       1.0  0.66803  0.61171  0.41221  1.0000 -0.2192185985
O   O55       1.0  0.83320  0.78638  0.31245  1.0000 -0.2291563701
O   O56       1.0  0.73726  0.33858  0.27939  1.0000 -0.5907812619
O   O57       1.0  0.72238  0.39246  0.16778  1.0000 -0.5709337051
O   O58       1.0  0.13070  0.82996  0.42180  1.0000 -0.5907812619
O   O59       1.0  0.09160  0.76364  0.52101  1.0000 -0.5641637871
O   O60       1.0  0.21037  0.75891  0.34476  1.0000 -1.0001790056
O   O61       1.0  0.78254  0.33592  0.70627  1.0000 -0.5907812619
O   O62       1.0  0.83499  0.31861  0.59429  1.0000 -0.5907812619
O   O63       1.0  0.83909  0.63179  0.57740  1.0000 -0.2192185985
O   O64       1.0  0.61171  0.66803  0.58779  1.0000 -0.2192185985
O   O65       1.0  0.78638  0.83320  0.68755  1.0000 -0.2291563701
O   O66       1.0  0.33858  0.73726  0.72061  1.0000 -0.5907812619
O   O67       1.0  0.39246  0.72238  0.83222  1.0000 -0.5709337051
O   O68       1.0  0.82996  0.13070  0.57820  1.0000 -0.5907812619
O   O69       1.0  0.76364  0.09160  0.47899  1.0000 -0.5641637871
O   O70       1.0  0.75891  0.21037  0.65524  1.0000 -1.0001790056
O   O71       1.0  0.21746  0.66408  0.70627  1.0000 -0.5907812619
O   O72       1.0  0.16501  0.68139  0.59429  1.0000 -0.5907812619
O   O73       1.0  0.16091  0.36821  0.57740  1.0000 -0.2192185985
O   O74       1.0  0.38829  0.33197  0.58779  1.0000 -0.2192185985
O   O75       1.0  0.21362  0.16680  0.68755  1.0000 -0.2291563701
O   O76       1.0  0.66142  0.26274  0.72061  1.0000 -0.5907812619
O   O77       1.0  0.60754  0.27762  0.83222  1.0000 -0.5709337051
O   O78       1.0  0.17004  0.86930  0.57820  1.0000 -0.5907812619
O   O79       1.0  0.23636  0.90840  0.47899  1.0000 -0.5641637871
O   O80       1.0  0.24109  0.78963  0.65524  1.0000 -1.0001790056
O   O81       1.0  0.72504  0.27496  0.00000  1.0000 -1.0182228217
O   O82       1.0  0.27496  0.72504  0.00000  1.0000 -1.0182228217
O   O83       1.0  0.77496  0.22504  0.50000  1.0000 -1.0182228217
O   O84       1.0  0.22504  0.77496  0.50000  1.0000 -1.0182228217
