# DDEC6 charges by PACMAN v1.1 (https://github.com/mtap-research/PACMAN-charge/)
data_2020[Zn][pcu]3[ASR]1
_chemical_formula_sum              "Zn16 H128 C144 Se16 N16 O64"
_cell_length_a       20.5922
_cell_length_b       20.5922
_cell_length_c       19.126
_cell_angle_alpha    90
_cell_angle_beta     90
_cell_angle_gamma    90

_symmetry_space_group_name_H-M    "P 1"
_symmetry_Int_Tables_number       1

loop_
  _symmetry_equiv_pos_as_xyz
  'x, y, z'

loop_
  _atom_site_type_symbol
  _atom_site_label
  _atom_site_symmetry_multiplicity
  _atom_site_fract_x
  _atom_site_fract_y
  _atom_site_fract_z
  _atom_site_occupancy
  _atom_site_charge
Zn  Zn1       1.0  0.26410  0.72757  0.67980  1.0000 0.8413318356
Zn  Zn2       1.0  0.23749  0.75059  0.83225  1.0000 0.8413318356
Zn  Zn3       1.0  0.73590  0.27243  0.67980  1.0000 0.8413318356
Zn  Zn4       1.0  0.76251  0.24941  0.83225  1.0000 0.8413318356
Zn  Zn5       1.0  0.27243  0.26410  0.32020  1.0000 0.8413318356
Zn  Zn6       1.0  0.24941  0.23749  0.16775  1.0000 0.8413318356
Zn  Zn7       1.0  0.72757  0.73590  0.32020  1.0000 0.8413318356
Zn  Zn8       1.0  0.75059  0.76251  0.16775  1.0000 0.8413318356
Zn  Zn9       1.0  0.23590  0.22757  0.82020  1.0000 0.8413318356
Zn  Zn10      1.0  0.26251  0.25059  0.66775  1.0000 0.8413318356
Zn  Zn11      1.0  0.76410  0.77243  0.82020  1.0000 0.8413318356
Zn  Zn12      1.0  0.73749  0.74941  0.66775  1.0000 0.8413318356
Zn  Zn13      1.0  0.22757  0.76410  0.17980  1.0000 0.8413318356
Zn  Zn14      1.0  0.25059  0.73749  0.33225  1.0000 0.8413318356
Zn  Zn15      1.0  0.77243  0.23590  0.17980  1.0000 0.8413318356
Zn  Zn16      1.0  0.74941  0.26251  0.33225  1.0000 0.8413318356
H   H1        1.0  0.44441  0.80491  0.88483  1.0000 0.1269651585
H   H2        1.0  0.56244  0.81530  0.87989  1.0000 0.1197106454
H   H3        1.0  0.28734  0.54265  0.89028  1.0000 0.1269651585
H   H4        1.0  0.28641  0.42435  0.88339  1.0000 0.1197106454
H   H5        1.0  0.30955  0.81408  0.55889  1.0000 0.1197106454
H   H6        1.0  0.35776  0.75309  0.56332  1.0000 0.1197106454
H   H7        1.0  0.35465  0.73848  0.44902  1.0000 0.1197106454
H   H8        1.0  0.31996  0.80804  0.44420  1.0000 0.1197106454
H   H9        1.0  0.31253  0.64430  0.55242  1.0000 0.1126109038
H   H10       1.0  0.23650  0.63250  0.56561  1.0000 0.1197106454
H   H11       1.0  0.21385  0.64415  0.45319  1.0000 0.1197106454
H   H12       1.0  0.29046  0.63982  0.43922  1.0000 0.1197106454
H   H13       1.0  0.16344  0.72525  0.56248  1.0000 0.1126109038
H   H14       1.0  0.19079  0.79743  0.57380  1.0000 0.1197106454
H   H15       1.0  0.20225  0.81299  0.46045  1.0000 0.1197106454
H   H16       1.0  0.15903  0.74895  0.45017  1.0000 0.1197106454
H   H17       1.0  0.55559  0.19509  0.88483  1.0000 0.1269651585
H   H18       1.0  0.43756  0.18470  0.87989  1.0000 0.1197106454
H   H19       1.0  0.71266  0.45735  0.89028  1.0000 0.1269651585
H   H20       1.0  0.71359  0.57565  0.88339  1.0000 0.1197106454
H   H21       1.0  0.69045  0.18592  0.55889  1.0000 0.1197106454
H   H22       1.0  0.64224  0.24691  0.56332  1.0000 0.1197106454
H   H23       1.0  0.64535  0.26152  0.44902  1.0000 0.1197106454
H   H24       1.0  0.68004  0.19196  0.44420  1.0000 0.1197106454
H   H25       1.0  0.68747  0.35570  0.55242  1.0000 0.1126109038
H   H26       1.0  0.76350  0.36750  0.56561  1.0000 0.1197106454
H   H27       1.0  0.78615  0.35585  0.45319  1.0000 0.1197106454
H   H28       1.0  0.70954  0.36018  0.43922  1.0000 0.1197106454
H   H29       1.0  0.83656  0.27475  0.56248  1.0000 0.1126109038
H   H30       1.0  0.80921  0.20257  0.57380  1.0000 0.1197106454
H   H31       1.0  0.79775  0.18701  0.46045  1.0000 0.1197106454
H   H32       1.0  0.84097  0.25105  0.45017  1.0000 0.1197106454
H   H33       1.0  0.19509  0.44441  0.11517  1.0000 0.1269651585
H   H34       1.0  0.18470  0.56244  0.12011  1.0000 0.1197106454
H   H35       1.0  0.45735  0.28734  0.10972  1.0000 0.1269651585
H   H36       1.0  0.57565  0.28641  0.11661  1.0000 0.1197106454
H   H37       1.0  0.18592  0.30955  0.44111  1.0000 0.1197106454
H   H38       1.0  0.24691  0.35776  0.43668  1.0000 0.1197106454
H   H39       1.0  0.26152  0.35465  0.55098  1.0000 0.1197106454
H   H40       1.0  0.19196  0.31996  0.55580  1.0000 0.1197106454
H   H41       1.0  0.35570  0.31253  0.44758  1.0000 0.1126109038
H   H42       1.0  0.36750  0.23650  0.43439  1.0000 0.1197106454
H   H43       1.0  0.35585  0.21385  0.54681  1.0000 0.1197106454
H   H44       1.0  0.36018  0.29046  0.56078  1.0000 0.1197106454
H   H45       1.0  0.27475  0.16344  0.43752  1.0000 0.1126109038
H   H46       1.0  0.20257  0.19079  0.42620  1.0000 0.1197106454
H   H47       1.0  0.18701  0.20225  0.53955  1.0000 0.1197106454
H   H48       1.0  0.25105  0.15903  0.54983  1.0000 0.1197106454
H   H49       1.0  0.80491  0.55559  0.11517  1.0000 0.1269651585
H   H50       1.0  0.81530  0.43756  0.12011  1.0000 0.1197106454
H   H51       1.0  0.54265  0.71266  0.10972  1.0000 0.1269651585
H   H52       1.0  0.42435  0.71359  0.11661  1.0000 0.1197106454
H   H53       1.0  0.81408  0.69045  0.44111  1.0000 0.1197106454
H   H54       1.0  0.75309  0.64224  0.43668  1.0000 0.1197106454
H   H55       1.0  0.73848  0.64535  0.55098  1.0000 0.1197106454
H   H56       1.0  0.80804  0.68004  0.55580  1.0000 0.1197106454
H   H57       1.0  0.64430  0.68747  0.44758  1.0000 0.1126109038
H   H58       1.0  0.63250  0.76350  0.43439  1.0000 0.1197106454
H   H59       1.0  0.64415  0.78615  0.54681  1.0000 0.1197106454
H   H60       1.0  0.63982  0.70954  0.56078  1.0000 0.1197106454
H   H61       1.0  0.72525  0.83656  0.43752  1.0000 0.1126109038
H   H62       1.0  0.79743  0.80921  0.42620  1.0000 0.1197106454
H   H63       1.0  0.81299  0.79775  0.53955  1.0000 0.1197106454
H   H64       1.0  0.74895  0.84097  0.54983  1.0000 0.1197106454
H   H65       1.0  0.05559  0.30491  0.61517  1.0000 0.1269651585
H   H66       1.0  0.93756  0.31530  0.62011  1.0000 0.1197106454
H   H67       1.0  0.21266  0.04265  0.60972  1.0000 0.1269651585
H   H68       1.0  0.21359  0.92435  0.61661  1.0000 0.1269651585
H   H69       1.0  0.19045  0.31408  0.94111  1.0000 0.1197106454
H   H70       1.0  0.14224  0.25309  0.93668  1.0000 0.1197106454
H   H71       1.0  0.14535  0.23848  0.05098  1.0000 0.1197106454
H   H72       1.0  0.18004  0.30804  0.05580  1.0000 0.1197106454
H   H73       1.0  0.18747  0.14430  0.94758  1.0000 0.1126109038
H   H74       1.0  0.26350  0.13250  0.93439  1.0000 0.1197106454
H   H75       1.0  0.28615  0.14415  0.04681  1.0000 0.1197106454
H   H76       1.0  0.20954  0.13982  0.06078  1.0000 0.1197106454
H   H77       1.0  0.33656  0.22525  0.93752  1.0000 0.1126109038
H   H78       1.0  0.30921  0.29743  0.92620  1.0000 0.1197106454
H   H79       1.0  0.29775  0.31299  0.03955  1.0000 0.1197106454
H   H80       1.0  0.34097  0.24895  0.04983  1.0000 0.1197106454
H   H81       1.0  0.94441  0.69509  0.61517  1.0000 0.1269651585
H   H82       1.0  0.06244  0.68470  0.62011  1.0000 0.1197106454
H   H83       1.0  0.78734  0.95735  0.60972  1.0000 0.1269651585
H   H84       1.0  0.78641  0.07565  0.61661  1.0000 0.1197106454
H   H85       1.0  0.80955  0.68592  0.94111  1.0000 0.1197106454
H   H86       1.0  0.85776  0.74691  0.93668  1.0000 0.1197106454
H   H87       1.0  0.85465  0.76152  0.05098  1.0000 0.1197106454
H   H88       1.0  0.81996  0.69196  0.05580  1.0000 0.1197106454
H   H89       1.0  0.81253  0.85570  0.94758  1.0000 0.1126109038
H   H90       1.0  0.73650  0.86750  0.93439  1.0000 0.1197106454
H   H91       1.0  0.71385  0.85585  0.04681  1.0000 0.1197106454
H   H92       1.0  0.79046  0.86018  0.06078  1.0000 0.1197106454
H   H93       1.0  0.66344  0.77475  0.93752  1.0000 0.1126109038
H   H94       1.0  0.69079  0.70257  0.92620  1.0000 0.1197106454
H   H95       1.0  0.70225  0.68701  0.03955  1.0000 0.1197106454
H   H96       1.0  0.65903  0.75105  0.04983  1.0000 0.1197106454
H   H97       1.0  0.30491  0.94441  0.38483  1.0000 0.1269651585
H   H98       1.0  0.31530  0.06244  0.37989  1.0000 0.1197106454
H   H99       1.0  0.04265  0.78734  0.39028  1.0000 0.1269651585
H   H100      1.0  0.92435  0.78641  0.38339  1.0000 0.1197106454
H   H101      1.0  0.31408  0.80955  0.05889  1.0000 0.1197106454
H   H102      1.0  0.25309  0.85776  0.06332  1.0000 0.1197106454
H   H103      1.0  0.23848  0.85465  0.94902  1.0000 0.1197106454
H   H104      1.0  0.30804  0.81996  0.94420  1.0000 0.1197106454
H   H105      1.0  0.14430  0.81253  0.05242  1.0000 0.1126109038
H   H106      1.0  0.13250  0.73650  0.06561  1.0000 0.1197106454
H   H107      1.0  0.14415  0.71385  0.95319  1.0000 0.1197106454
H   H108      1.0  0.13982  0.79046  0.93922  1.0000 0.1197106454
H   H109      1.0  0.22525  0.66344  0.06248  1.0000 0.1126109038
H   H110      1.0  0.29743  0.69079  0.07380  1.0000 0.1197106454
H   H111      1.0  0.31299  0.70225  0.96045  1.0000 0.1197106454
H   H112      1.0  0.24895  0.65903  0.95017  1.0000 0.1197106454
H   H113      1.0  0.69509  0.05559  0.38483  1.0000 0.1269651585
H   H114      1.0  0.68470  0.93756  0.37989  1.0000 0.1197106454
H   H115      1.0  0.95735  0.21266  0.39028  1.0000 0.1269651585
H   H116      1.0  0.07565  0.21359  0.38339  1.0000 0.1197106454
H   H117      1.0  0.68592  0.19045  0.05889  1.0000 0.1197106454
H   H118      1.0  0.74691  0.14224  0.06332  1.0000 0.1197106454
H   H119      1.0  0.76152  0.14535  0.94902  1.0000 0.1197106454
H   H120      1.0  0.69196  0.18004  0.94420  1.0000 0.1197106454
H   H121      1.0  0.85570  0.18747  0.05242  1.0000 0.1126109038
H   H122      1.0  0.86750  0.26350  0.06561  1.0000 0.1197106454
H   H123      1.0  0.85585  0.28615  0.95319  1.0000 0.1197106454
H   H124      1.0  0.86018  0.20954  0.93922  1.0000 0.1197106454
H   H125      1.0  0.77475  0.33656  0.06248  1.0000 0.1126109038
H   H126      1.0  0.70257  0.30921  0.07380  1.0000 0.1197106454
H   H127      1.0  0.68701  0.29775  0.96045  1.0000 0.1197106454
H   H128      1.0  0.75105  0.34097  0.95017  1.0000 0.1197106454
C   C1        1.0  0.36924  0.77578  0.76723  1.0000 0.6032290568
C   C2        1.0  0.43913  0.78805  0.78012  1.0000 -0.1497901312
C   C3        1.0  0.46823  0.80054  0.84255  1.0000 -0.1105306416
C   C4        1.0  0.53665  0.80652  0.83981  1.0000 -0.1105306416
C   C5        1.0  0.56239  0.79858  0.77451  1.0000 -0.1497901312
C   C6        1.0  0.63236  0.79429  0.75707  1.0000 0.6032290568
C   C7        1.0  0.28419  0.62047  0.76967  1.0000 0.6032290568
C   C8        1.0  0.28974  0.55006  0.78389  1.0000 -0.1497901312
C   C9        1.0  0.28816  0.51974  0.84717  1.0000 -0.1105306416
C   C10       1.0  0.28784  0.45127  0.84308  1.0000 -0.1105306416
C   C11       1.0  0.28973  0.42682  0.77724  1.0000 -0.1497901312
C   C12       1.0  0.28338  0.35781  0.75642  1.0000 0.6032290568
C   C13       1.0  0.31565  0.76831  0.54448  1.0000 -0.1205746999
C   C14       1.0  0.31643  0.76390  0.46439  1.0000 -0.1205746999
C   C15       1.0  0.26854  0.66171  0.54326  1.0000 -0.1205746999
C   C16       1.0  0.25620  0.66457  0.46392  1.0000 -0.1205746999
C   C17       1.0  0.19888  0.75556  0.54989  1.0000 -0.1205746999
C   C18       1.0  0.19974  0.76590  0.47076  1.0000 -0.1205746999
C   C19       1.0  0.63076  0.22422  0.76723  1.0000 0.6032290568
C   C20       1.0  0.56087  0.21195  0.78012  1.0000 -0.1497901312
C   C21       1.0  0.53177  0.19946  0.84255  1.0000 -0.1105306416
C   C22       1.0  0.46335  0.19348  0.83981  1.0000 -0.1105306416
C   C23       1.0  0.43761  0.20142  0.77451  1.0000 -0.1497901312
C   C24       1.0  0.36764  0.20571  0.75707  1.0000 0.6032290568
C   C25       1.0  0.71581  0.37953  0.76967  1.0000 0.6032290568
C   C26       1.0  0.71026  0.44994  0.78389  1.0000 -0.1497901312
C   C27       1.0  0.71184  0.48026  0.84717  1.0000 -0.1105306416
C   C28       1.0  0.71216  0.54873  0.84308  1.0000 -0.1105306416
C   C29       1.0  0.71027  0.57318  0.77724  1.0000 -0.1497901312
C   C30       1.0  0.71662  0.64219  0.75642  1.0000 0.6032290568
C   C31       1.0  0.68435  0.23169  0.54448  1.0000 -0.1205746999
C   C32       1.0  0.68357  0.23610  0.46439  1.0000 -0.1205746999
C   C33       1.0  0.73146  0.33829  0.54326  1.0000 -0.1205746999
C   C34       1.0  0.74380  0.33543  0.46392  1.0000 -0.1205746999
C   C35       1.0  0.80112  0.24444  0.54989  1.0000 -0.1205746999
C   C36       1.0  0.80026  0.23410  0.47076  1.0000 -0.1205746999
C   C37       1.0  0.22422  0.36924  0.23277  1.0000 0.6032290568
C   C38       1.0  0.21195  0.43913  0.21988  1.0000 -0.1497901312
C   C39       1.0  0.19946  0.46823  0.15745  1.0000 -0.1105306416
C   C40       1.0  0.19348  0.53665  0.16019  1.0000 -0.1105306416
C   C41       1.0  0.20142  0.56239  0.22549  1.0000 -0.1497901312
C   C42       1.0  0.20571  0.63236  0.24293  1.0000 0.6032290568
C   C43       1.0  0.37953  0.28419  0.23033  1.0000 0.6032290568
C   C44       1.0  0.44994  0.28974  0.21611  1.0000 -0.1497901312
C   C45       1.0  0.48026  0.28816  0.15283  1.0000 -0.1105306416
C   C46       1.0  0.54873  0.28784  0.15692  1.0000 -0.1105306416
C   C47       1.0  0.57318  0.28973  0.22276  1.0000 -0.1497901312
C   C48       1.0  0.64219  0.28338  0.24358  1.0000 0.6032290568
C   C49       1.0  0.23169  0.31565  0.45552  1.0000 -0.1205746999
C   C50       1.0  0.23610  0.31643  0.53561  1.0000 -0.1205746999
C   C51       1.0  0.33829  0.26854  0.45674  1.0000 -0.1205746999
C   C52       1.0  0.33543  0.25620  0.53608  1.0000 -0.1205746999
C   C53       1.0  0.24444  0.19888  0.45011  1.0000 -0.1205746999
C   C54       1.0  0.23410  0.19974  0.52924  1.0000 -0.1205746999
C   C55       1.0  0.77578  0.63076  0.23277  1.0000 0.6032290568
C   C56       1.0  0.78805  0.56087  0.21988  1.0000 -0.1497901312
C   C57       1.0  0.80054  0.53177  0.15745  1.0000 -0.1105306416
C   C58       1.0  0.80652  0.46335  0.16019  1.0000 -0.1105306416
C   C59       1.0  0.79858  0.43761  0.22549  1.0000 -0.1497901312
C   C60       1.0  0.79429  0.36764  0.24293  1.0000 0.6032290568
C   C61       1.0  0.62047  0.71581  0.23033  1.0000 0.6032290568
C   C62       1.0  0.55006  0.71026  0.21611  1.0000 -0.1497901312
C   C63       1.0  0.51974  0.71184  0.15283  1.0000 -0.1105306416
C   C64       1.0  0.45127  0.71216  0.15692  1.0000 -0.1105306416
C   C65       1.0  0.42682  0.71027  0.22276  1.0000 -0.1497901312
C   C66       1.0  0.35781  0.71662  0.24358  1.0000 0.6032290568
C   C67       1.0  0.76831  0.68435  0.45552  1.0000 -0.1205746999
C   C68       1.0  0.76390  0.68357  0.53561  1.0000 -0.1205746999
C   C69       1.0  0.66171  0.73146  0.45674  1.0000 -0.1205746999
C   C70       1.0  0.66457  0.74380  0.53608  1.0000 -0.1205746999
C   C71       1.0  0.75556  0.80112  0.45011  1.0000 -0.1205746999
C   C72       1.0  0.76590  0.80026  0.52924  1.0000 -0.1205746999
C   C73       1.0  0.13076  0.27578  0.73277  1.0000 0.6032290568
C   C74       1.0  0.06087  0.28805  0.71988  1.0000 -0.1497901312
C   C75       1.0  0.03177  0.30054  0.65745  1.0000 -0.1105306416
C   C76       1.0  0.96335  0.30652  0.66019  1.0000 -0.1105306416
C   C77       1.0  0.93761  0.29858  0.72549  1.0000 -0.1497901312
C   C78       1.0  0.86764  0.29429  0.74293  1.0000 0.6032290568
C   C79       1.0  0.21581  0.12047  0.73033  1.0000 0.6032290568
C   C80       1.0  0.21026  0.05006  0.71611  1.0000 -0.1497901312
C   C81       1.0  0.21184  0.01974  0.65283  1.0000 -0.1105306416
C   C82       1.0  0.21216  0.95127  0.65692  1.0000 -0.1105306416
C   C83       1.0  0.21027  0.92682  0.72276  1.0000 -0.1497901312
C   C84       1.0  0.21662  0.85781  0.74358  1.0000 0.6032290568
C   C85       1.0  0.18435  0.26831  0.95552  1.0000 -0.1205746999
C   C86       1.0  0.18357  0.26390  0.03561  1.0000 -0.1205746999
C   C87       1.0  0.23146  0.16171  0.95674  1.0000 -0.1205746999
C   C88       1.0  0.24380  0.16457  0.03608  1.0000 -0.1205746999
C   C89       1.0  0.30112  0.25556  0.95011  1.0000 -0.1205746999
C   C90       1.0  0.30026  0.26590  0.02924  1.0000 -0.1205746999
C   C91       1.0  0.86924  0.72422  0.73277  1.0000 0.6032290568
C   C92       1.0  0.93913  0.71195  0.71988  1.0000 -0.1497901312
C   C93       1.0  0.96823  0.69946  0.65745  1.0000 -0.1105306416
C   C94       1.0  0.03665  0.69348  0.66019  1.0000 -0.1105306416
C   C95       1.0  0.06239  0.70142  0.72549  1.0000 -0.1497901312
C   C96       1.0  0.13236  0.70571  0.74293  1.0000 0.6032290568
C   C97       1.0  0.78419  0.87953  0.73033  1.0000 0.6032290568
C   C98       1.0  0.78974  0.94994  0.71611  1.0000 -0.1497901312
C   C99       1.0  0.78816  0.98026  0.65283  1.0000 -0.1105306416
C   C100      1.0  0.78784  0.04873  0.65692  1.0000 -0.1105306416
C   C101      1.0  0.78973  0.07318  0.72276  1.0000 -0.1497901312
C   C102      1.0  0.78338  0.14219  0.74358  1.0000 0.6032290568
C   C103      1.0  0.81565  0.73169  0.95552  1.0000 -0.1205746999
C   C104      1.0  0.81643  0.73610  0.03561  1.0000 -0.1205746999
C   C105      1.0  0.76854  0.83829  0.95674  1.0000 -0.1205746999
C   C106      1.0  0.75620  0.83543  0.03608  1.0000 -0.1205746999
C   C107      1.0  0.69888  0.74444  0.95011  1.0000 -0.1205746999
C   C108      1.0  0.69974  0.73410  0.02924  1.0000 -0.1205746999
C   C109      1.0  0.27578  0.86924  0.26723  1.0000 0.6032290568
C   C110      1.0  0.28805  0.93913  0.28012  1.0000 -0.1497901312
C   C111      1.0  0.30054  0.96823  0.34255  1.0000 -0.1105306416
C   C112      1.0  0.30652  0.03665  0.33981  1.0000 -0.1105306416
C   C113      1.0  0.29858  0.06239  0.27451  1.0000 -0.1497901312
C   C114      1.0  0.29429  0.13236  0.25707  1.0000 0.6032290568
C   C115      1.0  0.12047  0.78419  0.26967  1.0000 0.6032290568
C   C116      1.0  0.05006  0.78974  0.28389  1.0000 -0.1497901312
C   C117      1.0  0.01974  0.78816  0.34717  1.0000 -0.1105306416
C   C118      1.0  0.95127  0.78784  0.34308  1.0000 -0.1105306416
C   C119      1.0  0.92682  0.78973  0.27724  1.0000 -0.1497901312
C   C120      1.0  0.85781  0.78338  0.25642  1.0000 0.6032290568
C   C121      1.0  0.26831  0.81565  0.04448  1.0000 -0.1205746999
C   C122      1.0  0.26390  0.81643  0.96439  1.0000 -0.1205746999
C   C123      1.0  0.16171  0.76854  0.04326  1.0000 -0.1205746999
C   C124      1.0  0.16457  0.75620  0.96392  1.0000 -0.1205746999
C   C125      1.0  0.25556  0.69888  0.04989  1.0000 -0.1205746999
C   C126      1.0  0.26590  0.69974  0.97076  1.0000 -0.1205746999
C   C127      1.0  0.72422  0.13076  0.26723  1.0000 0.6032290568
C   C128      1.0  0.71195  0.06087  0.28012  1.0000 -0.1497901312
C   C129      1.0  0.69946  0.03177  0.34255  1.0000 -0.1105306416
C   C130      1.0  0.69348  0.96335  0.33981  1.0000 -0.1105306416
C   C131      1.0  0.70142  0.93761  0.27451  1.0000 -0.1497901312
C   C132      1.0  0.70571  0.86764  0.25707  1.0000 0.6032290568
C   C133      1.0  0.87953  0.21581  0.26967  1.0000 0.6032290568
C   C134      1.0  0.94994  0.21026  0.28389  1.0000 -0.1497901312
C   C135      1.0  0.98026  0.21184  0.34717  1.0000 -0.1105306416
C   C136      1.0  0.04873  0.21216  0.34308  1.0000 -0.1105306416
C   C137      1.0  0.07318  0.21027  0.27724  1.0000 -0.1497901312
C   C138      1.0  0.14219  0.21662  0.25642  1.0000 0.6032290568
C   C139      1.0  0.73169  0.18435  0.04448  1.0000 -0.1205746999
C   C140      1.0  0.73610  0.18357  0.96439  1.0000 -0.1205746999
C   C141      1.0  0.83829  0.23146  0.04326  1.0000 -0.1205746999
C   C142      1.0  0.83543  0.24380  0.96392  1.0000 -0.1205746999
C   C143      1.0  0.74444  0.30112  0.04989  1.0000 -0.1205746999
C   C144      1.0  0.73410  0.30026  0.97076  1.0000 -0.1205746999
Se  Se1       1.0  0.49917  0.78220  0.70753  1.0000 0.1806897896
Se  Se2       1.0  0.29295  0.49184  0.70985  1.0000 0.1806897896
Se  Se3       1.0  0.50083  0.21780  0.70753  1.0000 0.1677724084
Se  Se4       1.0  0.70705  0.50816  0.70985  1.0000 0.1806897896
Se  Se5       1.0  0.21780  0.49917  0.29247  1.0000 0.1806897896
Se  Se6       1.0  0.50816  0.29295  0.29015  1.0000 0.1957588156
Se  Se7       1.0  0.78220  0.50083  0.29247  1.0000 0.1677724084
Se  Se8       1.0  0.49184  0.70705  0.29015  1.0000 0.1806897896
Se  Se9       1.0  0.00083  0.28220  0.79247  1.0000 0.1806897896
Se  Se10      1.0  0.20705  0.99184  0.79015  1.0000 0.1941281518
Se  Se11      1.0  0.99917  0.71780  0.79247  1.0000 0.1677724084
Se  Se12      1.0  0.79295  0.00816  0.79015  1.0000 0.1806897896
Se  Se13      1.0  0.28220  0.99917  0.20753  1.0000 0.1677724084
Se  Se14      1.0  0.99184  0.79295  0.20985  1.0000 0.1806897896
Se  Se15      1.0  0.71780  0.00083  0.20753  1.0000 0.1677724084
Se  Se16      1.0  0.00816  0.20705  0.20985  1.0000 0.1806897896
N   N1        1.0  0.26269  0.72824  0.57316  1.0000 -0.099974761
N   N2        1.0  0.25611  0.73230  0.43894  1.0000 -0.099974761
N   N3        1.0  0.73731  0.27176  0.57316  1.0000 -0.099974761
N   N4        1.0  0.74389  0.26770  0.43894  1.0000 -0.099974761
N   N5        1.0  0.27176  0.26269  0.42684  1.0000 -0.099974761
N   N6        1.0  0.26770  0.25611  0.56106  1.0000 -0.099974761
N   N7        1.0  0.72824  0.73731  0.42684  1.0000 -0.099974761
N   N8        1.0  0.73230  0.74389  0.56106  1.0000 -0.099974761
N   N9        1.0  0.23731  0.22824  0.92684  1.0000 -0.099974761
N   N10       1.0  0.24389  0.23230  0.06106  1.0000 -0.099974761
N   N11       1.0  0.76269  0.77176  0.92684  1.0000 -0.099974761
N   N12       1.0  0.75611  0.76770  0.06106  1.0000 -0.099974761
N   N13       1.0  0.22824  0.76269  0.07316  1.0000 -0.099974761
N   N14       1.0  0.23230  0.75611  0.93894  1.0000 -0.099974761
N   N15       1.0  0.77176  0.23731  0.07316  1.0000 -0.099974761
N   N16       1.0  0.76770  0.24389  0.93894  1.0000 -0.099974761
O   O1        1.0  0.35274  0.76433  0.70499  1.0000 -0.550361767
O   O2        1.0  0.33281  0.77656  0.81949  1.0000 -0.550361767
O   O3        1.0  0.67168  0.80814  0.80460  1.0000 -0.5434102654
O   O4        1.0  0.64622  0.77619  0.69564  1.0000 -0.550361767
O   O5        1.0  0.29553  0.63859  0.70768  1.0000 -0.550361767
O   O6        1.0  0.26763  0.65617  0.81966  1.0000 -0.550361767
O   O7        1.0  0.27504  0.31791  0.80513  1.0000 -0.5577871362
O   O8        1.0  0.28514  0.34469  0.69213  1.0000 -0.550361767
O   O9        1.0  0.64726  0.23567  0.70499  1.0000 -0.550361767
O   O10       1.0  0.66719  0.22344  0.81949  1.0000 -0.550361767
O   O11       1.0  0.32832  0.19186  0.80460  1.0000 -0.5434102654
O   O12       1.0  0.35378  0.22381  0.69564  1.0000 -0.5577871362
O   O13       1.0  0.70447  0.36141  0.70768  1.0000 -0.550361767
O   O14       1.0  0.73237  0.34383  0.81966  1.0000 -0.550361767
O   O15       1.0  0.72496  0.68209  0.80513  1.0000 -0.5577871362
O   O16       1.0  0.71486  0.65531  0.69213  1.0000 -0.550361767
O   O17       1.0  0.23567  0.35274  0.29501  1.0000 -0.550361767
O   O18       1.0  0.22344  0.33281  0.18051  1.0000 -0.550361767
O   O19       1.0  0.19186  0.67168  0.19540  1.0000 -0.5434102654
O   O20       1.0  0.22381  0.64622  0.30436  1.0000 -0.550361767
O   O21       1.0  0.36141  0.29553  0.29232  1.0000 -0.550361767
O   O22       1.0  0.34383  0.26763  0.18034  1.0000 -0.550361767
O   O23       1.0  0.68209  0.27504  0.19487  1.0000 -0.5577871362
O   O24       1.0  0.65531  0.28514  0.30787  1.0000 -0.550361767
O   O25       1.0  0.76433  0.64726  0.29501  1.0000 -0.550361767
O   O26       1.0  0.77656  0.66719  0.18051  1.0000 -0.550361767
O   O27       1.0  0.80814  0.32832  0.19540  1.0000 -0.5434102654
O   O28       1.0  0.77619  0.35378  0.30436  1.0000 -0.550361767
O   O29       1.0  0.63859  0.70447  0.29232  1.0000 -0.550361767
O   O30       1.0  0.65617  0.73237  0.18034  1.0000 -0.550361767
O   O31       1.0  0.31791  0.72496  0.19487  1.0000 -0.5577871362
O   O32       1.0  0.34469  0.71486  0.30787  1.0000 -0.550361767
O   O33       1.0  0.14726  0.26433  0.79501  1.0000 -0.550361767
O   O34       1.0  0.16719  0.27656  0.68051  1.0000 -0.5434102654
O   O35       1.0  0.82832  0.30814  0.69540  1.0000 -0.5434102654
O   O36       1.0  0.85378  0.27619  0.80436  1.0000 -0.550361767
O   O37       1.0  0.20447  0.13859  0.79232  1.0000 -0.550361767
O   O38       1.0  0.23237  0.15617  0.68034  1.0000 -0.550361767
O   O39       1.0  0.22496  0.81791  0.69487  1.0000 -0.5577871362
O   O40       1.0  0.21486  0.84469  0.80787  1.0000 -0.550361767
O   O41       1.0  0.85274  0.73567  0.79501  1.0000 -0.550361767
O   O42       1.0  0.83281  0.72344  0.68051  1.0000 -0.550361767
O   O43       1.0  0.17168  0.69186  0.69540  1.0000 -0.5434102654
O   O44       1.0  0.14622  0.72381  0.80436  1.0000 -0.550361767
O   O45       1.0  0.79553  0.86141  0.79232  1.0000 -0.550361767
O   O46       1.0  0.76763  0.84383  0.68034  1.0000 -0.550361767
O   O47       1.0  0.77504  0.18209  0.69487  1.0000 -0.5577871362
O   O48       1.0  0.78514  0.15531  0.80787  1.0000 -0.550361767
O   O49       1.0  0.26433  0.85274  0.20499  1.0000 -0.550361767
O   O50       1.0  0.27656  0.83281  0.31949  1.0000 -0.550361767
O   O51       1.0  0.30814  0.17168  0.30460  1.0000 -0.5434102654
O   O52       1.0  0.27619  0.14622  0.19564  1.0000 -0.5577871362
O   O53       1.0  0.13859  0.79553  0.20768  1.0000 -0.550361767
O   O54       1.0  0.15617  0.76763  0.31966  1.0000 -0.550361767
O   O55       1.0  0.81791  0.77504  0.30513  1.0000 -0.5577871362
O   O56       1.0  0.84469  0.78514  0.19213  1.0000 -0.550361767
O   O57       1.0  0.73567  0.14726  0.20499  1.0000 -0.550361767
O   O58       1.0  0.72344  0.16719  0.31949  1.0000 -0.550361767
O   O59       1.0  0.69186  0.82832  0.30460  1.0000 -0.5434102654
O   O60       1.0  0.72381  0.85378  0.19564  1.0000 -0.550361767
O   O61       1.0  0.86141  0.20447  0.20768  1.0000 -0.550361767
O   O62       1.0  0.84383  0.23237  0.31966  1.0000 -0.550361767
O   O63       1.0  0.18209  0.22496  0.30513  1.0000 -0.5577871362
O   O64       1.0  0.15531  0.21486  0.19213  1.0000 -0.550361767
