# DDEC6 charges by PACMAN v1.1 (https://github.com/mtap-research/PACMAN-charge/)
data_2020[Gd][sqc]3[ASR]1
_chemical_formula_sum              "Gd2 H28 C52 N4 O16"
_cell_length_a       9.394
_cell_length_b       10.4199
_cell_length_c       15.2264
_cell_angle_alpha    105.005
_cell_angle_beta     84.235
_cell_angle_gamma    115.16

_symmetry_space_group_name_H-M    "P 1"
_symmetry_Int_Tables_number       1

loop_
  _symmetry_equiv_pos_as_xyz
  'x, y, z'

loop_
  _atom_site_type_symbol
  _atom_site_label
  _atom_site_symmetry_multiplicity
  _atom_site_fract_x
  _atom_site_fract_y
  _atom_site_fract_z
  _atom_site_occupancy
  _atom_site_charge
Gd  Gd1       1.0  0.91169  0.21921  0.01713  1.0000 2.0715292319
Gd  Gd2       1.0  0.08831  0.78079  0.98287  1.0000 2.0715292319
H   H1        1.0  0.55640  0.09450  0.15390  1.0000 0.1387244324
H   H2        1.0  0.75510  0.04540  0.35840  1.0000 0.118613176
H   H3        1.0  0.30290  0.78160  0.28660  1.0000 0.1313807479
H   H4        1.0  0.29700  0.80600  0.44280  1.0000 0.118613176
H   H5        1.0  0.73310  0.83580  0.38510  1.0000 0.118613176
H   H6        1.0  0.72930  0.73140  0.50280  1.0000 0.1313807479
H   H7        1.0  0.28010  0.67890  0.55170  1.0000 0.1387244324
H   H8        1.0  0.27510  0.59570  0.65780  1.0000 0.1387244324
H   H9        1.0  0.26800  0.49480  0.77620  1.0000 0.1387244324
H   H10       1.0  0.72090  0.64240  0.60860  1.0000 0.1387244324
H   H11       1.0  0.70090  0.52300  0.72120  1.0000 0.1313807479
H   H12       1.0  0.70120  0.55830  0.87300  1.0000 0.1387244324
H   H13       1.0  0.47930  0.22530  0.99680  1.0000 0.145736657
H   H14       1.0  0.24470  0.28970  0.81490  1.0000 0.1387244324
H   H15       1.0  0.44360  0.90550  0.84610  1.0000 0.1387244324
H   H16       1.0  0.24490  0.95460  0.64160  1.0000 0.118613176
H   H17       1.0  0.69710  0.21840  0.71340  1.0000 0.1313807479
H   H18       1.0  0.70300  0.19400  0.55720  1.0000 0.118613176
H   H19       1.0  0.26690  0.16420  0.61490  1.0000 0.118613176
H   H20       1.0  0.27070  0.26860  0.49720  1.0000 0.1313807479
H   H21       1.0  0.71990  0.32110  0.44830  1.0000 0.1387244324
H   H22       1.0  0.72490  0.40430  0.34220  1.0000 0.1387244324
H   H23       1.0  0.73200  0.50520  0.22380  1.0000 0.1387244324
H   H24       1.0  0.27910  0.35760  0.39140  1.0000 0.1387244324
H   H25       1.0  0.29910  0.47700  0.27880  1.0000 0.1313807479
H   H26       1.0  0.29880  0.44170  0.12700  1.0000 0.1387244324
H   H27       1.0  0.52070  0.77470  0.00320  1.0000 0.145736657
H   H28       1.0  0.75530  0.71030  0.18510  1.0000 0.1387244324
C   C1        1.0  0.27680  0.87660  0.14440  1.0000 0.555382125
C   C2        1.0  0.41060  0.93410  0.21230  1.0000 0.0114426058
C   C3        1.0  0.54940  0.04580  0.20010  1.0000 -0.1085723602
C   C4        1.0  0.67900  0.08900  0.25310  1.0000 -0.0191648142
C   C5        1.0  0.83560  0.20110  0.23380  1.0000 0.5792482122
C   C6        1.0  0.66640  0.01750  0.32120  1.0000 -0.2186178789
C   C7        1.0  0.52510  0.90640  0.33470  1.0000 0.118613176
C   C8        1.0  0.39830  0.86150  0.27930  1.0000 -0.2140642778
C   C9        1.0  0.38420  0.78880  0.45430  1.0000 -0.006012425
C   C10       1.0  0.64260  0.80860  0.42220  1.0000 -0.0191648142
C   C11       1.0  0.63970  0.74470  0.49090  1.0000 -0.1991412069
C   C12       1.0  0.37660  0.71690  0.52100  1.0000 -0.1991412069
C   C13       1.0  0.50340  0.69860  0.54420  1.0000 0.1098309829
C   C14       1.0  0.49560  0.63120  0.62000  1.0000 0.1040666401
C   C15       1.0  0.36560  0.58490  0.67090  1.0000 -0.1820829139
C   C16       1.0  0.36040  0.52290  0.74070  1.0000 0.0559684149
C   C17       1.0  0.62580  0.60970  0.64140  1.0000 -0.1820829139
C   C18       1.0  0.61530  0.54190  0.70920  1.0000 -0.0001743767
C   C19       1.0  0.47620  0.42890  0.83170  1.0000 0.1313807479
C   C20       1.0  0.61020  0.47490  0.88090  1.0000 -0.1909900085
C   C21       1.0  0.61150  0.39770  0.94300  1.0000 -0.006012425
C   C22       1.0  0.47740  0.27990  0.95600  1.0000 -0.1169862822
C   C23       1.0  0.34060  0.24080  0.91020  1.0000 -0.0001743767
C   C24       1.0  0.33870  0.31600  0.84680  1.0000 -0.1991412069
C   C25       1.0  0.19170  0.11590  0.92630  1.0000 0.6382073983
C   C26       1.0  0.76510  0.44700  0.99230  1.0000 0.647363983
C   C27       1.0  0.72320  0.12340  0.85560  1.0000 0.555382125
C   C28       1.0  0.58940  0.06590  0.78770  1.0000 0.0114426058
C   C29       1.0  0.45060  0.95420  0.79990  1.0000 -0.1085723602
C   C30       1.0  0.32100  0.91100  0.74690  1.0000 -0.0191648142
C   C31       1.0  0.16440  0.79890  0.76620  1.0000 0.5792482122
C   C32       1.0  0.33360  0.98250  0.67880  1.0000 -0.2186178789
C   C33       1.0  0.47490  0.09360  0.66530  1.0000 0.118613176
C   C34       1.0  0.60170  0.13850  0.72070  1.0000 -0.2140642778
C   C35       1.0  0.61580  0.21120  0.54570  1.0000 -0.006012425
C   C36       1.0  0.35740  0.19140  0.57780  1.0000 -0.0191648142
C   C37       1.0  0.36030  0.25530  0.50910  1.0000 -0.1991412069
C   C38       1.0  0.62340  0.28310  0.47900  1.0000 -0.1991412069
C   C39       1.0  0.49660  0.30140  0.45580  1.0000 0.1098309829
C   C40       1.0  0.50440  0.36880  0.38000  1.0000 0.1040666401
C   C41       1.0  0.63440  0.41510  0.32910  1.0000 -0.1820829139
C   C42       1.0  0.63960  0.47710  0.25930  1.0000 0.0559684149
C   C43       1.0  0.37420  0.39030  0.35860  1.0000 -0.1820829139
C   C44       1.0  0.38470  0.45810  0.29080  1.0000 -0.0001743767
C   C45       1.0  0.52380  0.57110  0.16830  1.0000 0.1313807479
C   C46       1.0  0.38980  0.52510  0.11910  1.0000 -0.1909900085
C   C47       1.0  0.38850  0.60230  0.05700  1.0000 -0.006012425
C   C48       1.0  0.52260  0.72010  0.04400  1.0000 -0.1169862822
C   C49       1.0  0.65940  0.75920  0.08980  1.0000 0.0005133065
C   C50       1.0  0.66130  0.68400  0.15320  1.0000 -0.1991412069
C   C51       1.0  0.80830  0.88410  0.07370  1.0000 0.6382073983
C   C52       1.0  0.23490  0.55300  0.00770  1.0000 0.647363983
N   N1        1.0  0.51770  0.83390  0.40600  1.0000 0.0251097027
N   N2        1.0  0.48150  0.50130  0.75980  1.0000 0.0513071305
N   N3        1.0  0.48230  0.16610  0.59400  1.0000 0.0251097027
N   N4        1.0  0.51850  0.49870  0.24020  1.0000 0.0513071305
O   O1        1.0  0.06100  0.11810  0.91570  1.0000 -0.6686572806
O   O2        1.0  0.20680  0.01580  0.95040  1.0000 -0.6383131818
O   O3        1.0  0.77270  0.36670  0.03830  1.0000 -0.6383131818
O   O4        1.0  0.87410  0.56560  0.98460  1.0000 -0.6750210897
O   O5        1.0  0.95510  0.22110  0.27470  1.0000 -0.5906848387
O   O6        1.0  0.84190  0.26420  0.17110  1.0000 -0.6954168454
O   O7        1.0  0.29910  0.94490  0.08340  1.0000 -0.6079689041
O   O8        1.0  0.15120  0.76660  0.14740  1.0000 -0.5906848387
O   O9        1.0  0.93900  0.88190  0.08430  1.0000 -0.6686572806
O   O10       1.0  0.79320  0.98420  0.04960  1.0000 -0.6383131818
O   O11       1.0  0.22730  0.63330  0.96170  1.0000 -0.6383131818
O   O12       1.0  0.12590  0.43440  0.01540  1.0000 -0.6750210897
O   O13       1.0  0.04490  0.77890  0.72530  1.0000 -0.5906848387
O   O14       1.0  0.15810  0.73580  0.82890  1.0000 -0.6954168454
O   O15       1.0  0.70090  0.05510  0.91660  1.0000 -0.6079689041
O   O16       1.0  0.84880  0.23340  0.85260  1.0000 -0.5906848387
