# DDEC6 charges by PACMAN v1.1 (https://github.com/mtap-research/PACMAN-charge/)
data_2020[NiU][hcb]2[ASR]1
_chemical_formula_sum              "U8 Ni4 H176 C288 N24 O48"
_cell_length_a       14.8999
_cell_length_b       22.1828
_cell_length_c       26.0815
_cell_angle_alpha    90
_cell_angle_beta     96.761
_cell_angle_gamma    90

_symmetry_space_group_name_H-M    "P 1"
_symmetry_Int_Tables_number       1

loop_
  _symmetry_equiv_pos_as_xyz
  'x, y, z'

loop_
  _atom_site_type_symbol
  _atom_site_label
  _atom_site_symmetry_multiplicity
  _atom_site_fract_x
  _atom_site_fract_y
  _atom_site_fract_z
  _atom_site_occupancy
  _atom_site_charge
U   U1        1.0  0.83429  0.75253  0.22732  1.0000 1.801708609
U   U2        1.0  0.69131  0.39440  0.44685  1.0000 1.7450221281
U   U3        1.0  0.16571  0.25253  0.27268  1.0000 1.801708609
U   U4        1.0  0.30869  0.89440  0.05315  1.0000 1.7420075637
U   U5        1.0  0.16571  0.24747  0.77268  1.0000 1.801708609
U   U6        1.0  0.30869  0.60560  0.55315  1.0000 1.7420075637
U   U7        1.0  0.83429  0.74747  0.72732  1.0000 1.8057653408
U   U8        1.0  0.69131  0.10560  0.94685  1.0000 1.7450221281
Ni  Ni1       1.0  0.26920  0.65826  0.80089  1.0000 0.4169403937
Ni  Ni2       1.0  0.73080  0.15826  0.69911  1.0000 0.4169403937
Ni  Ni3       1.0  0.73080  0.34174  0.19911  1.0000 0.4169403937
Ni  Ni4       1.0  0.26920  0.84174  0.30089  1.0000 0.4169403937
H   H1        1.0  0.11198  0.49762  0.69714  1.0000 0.1282439928
H   H2        1.0  0.57954  0.79648  0.09623  1.0000 0.1282439928
H   H3        1.0  0.05680  0.66341  0.64165  1.0000 0.1399029801
H   H4        1.0  0.18557  0.62334  0.39503  1.0000 0.1112008372
H   H5        1.0  0.56740  0.68831  0.89841  1.0000 0.1282439928
H   H6        1.0  0.32564  0.60090  0.39495  1.0000 0.1033535651
H   H7        1.0  0.14034  0.50110  0.28156  1.0000 0.1112008372
H   H8        1.0  0.04888  0.73695  0.95794  1.0000 0.1191971864
H   H9        1.0  0.59710  0.69169  0.81203  1.0000 0.1282439928
H   H10       1.0  0.35550  0.63917  0.69728  1.0000 0.1033535651
H   H11       1.0  0.86077  0.09231  0.42568  1.0000 0.1112008372
H   H12       1.0  0.45960  0.55647  0.42770  1.0000 0.1282439928
H   H13       1.0  0.06135  0.67629  0.35893  1.0000 0.1112008372
H   H14       1.0  0.20584  0.74009  0.96948  1.0000 0.1282439928
H   H15       1.0  0.68957  0.94451  0.25802  1.0000 0.1191971864
H   H16       1.0  0.91961  0.61369  0.61201  1.0000 0.1112008372
H   H17       1.0  0.35957  0.71888  0.98087  1.0000 0.1282439928
H   H18       1.0  0.97655  0.69682  0.88234  1.0000 0.1399029801
H   H19       1.0  0.49101  0.65768  0.66677  1.0000 0.1399029801
H   H20       1.0  0.84849  0.19143  0.44735  1.0000 0.1112008372
H   H21       1.0  0.30048  0.79820  0.79572  1.0000 0.1112008372
H   H22       1.0  0.01826  0.55611  0.24508  1.0000 0.1112008372
H   H23       1.0  0.36883  0.39822  0.36869  1.0000 0.1191971864
H   H24       1.0  0.23615  0.44384  0.33487  1.0000 0.1112008372
H   H25       1.0  0.62273  0.64303  0.98213  1.0000 0.1112008372
H   H26       1.0  0.05996  0.66367  0.82033  1.0000 0.1112008372
H   H27       1.0  0.47830  0.78368  0.02327  1.0000 0.1112008372
H   H28       1.0  0.59770  0.19634  0.37302  1.0000 0.1191971864
H   H29       1.0  0.72045  0.65439  0.05723  1.0000 0.1191971864
H   H30       1.0  0.82157  0.56755  0.54874  1.0000 0.1191971864
H   H31       1.0  0.12591  0.86197  0.68158  1.0000 0.1112008372
H   H32       1.0  0.65872  0.03192  0.29938  1.0000 0.1112008372
H   H33       1.0  0.08020  0.76500  0.66114  1.0000 0.1282439928
H   H34       1.0  0.99478  0.42956  0.54509  1.0000 0.1191971864
H   H35       1.0  0.61138  0.09682  0.34990  1.0000 0.1112008372
H   H36       1.0  0.24249  0.87917  0.74792  1.0000 0.1191971864
H   H37       1.0  0.61559  0.67976  0.72518  1.0000 0.1191971864
H   H38       1.0  0.09353  0.47622  0.60867  1.0000 0.1112008372
H   H39       1.0  0.18042  0.44719  0.76564  1.0000 0.1282439928
H   H40       1.0  0.87570  0.90247  0.37574  1.0000 0.1191971864
H   H41       1.0  0.85344  0.99620  0.41272  1.0000 0.1112008372
H   H42       1.0  0.36258  0.56096  0.87997  1.0000 0.1033535651
H   H43       1.0  0.36189  0.45970  0.89139  1.0000 0.1282439928
H   H44       1.0  0.26920  0.39970  0.83333  1.0000 0.1282439928
H   H45       1.0  0.88802  0.99762  0.80286  1.0000 0.1282439928
H   H46       1.0  0.42046  0.29648  0.40377  1.0000 0.1282439928
H   H47       1.0  0.94320  0.16341  0.85835  1.0000 0.1399029801
H   H48       1.0  0.81443  0.12334  0.10497  1.0000 0.1112008372
H   H49       1.0  0.43260  0.18831  0.60159  1.0000 0.1282439928
H   H50       1.0  0.67436  0.10090  0.10505  1.0000 0.1033535651
H   H51       1.0  0.85966  0.00110  0.21844  1.0000 0.1112008372
H   H52       1.0  0.95112  0.23695  0.54206  1.0000 0.1191971864
H   H53       1.0  0.40290  0.19169  0.68797  1.0000 0.1282439928
H   H54       1.0  0.64450  0.13917  0.80272  1.0000 0.1033535651
H   H55       1.0  0.13923  0.59231  0.07432  1.0000 0.1112008372
H   H56       1.0  0.54040  0.05647  0.07230  1.0000 0.1282439928
H   H57       1.0  0.93865  0.17629  0.14107  1.0000 0.1112008372
H   H58       1.0  0.79416  0.24009  0.53052  1.0000 0.1282439928
H   H59       1.0  0.31043  0.44451  0.24198  1.0000 0.1191971864
H   H60       1.0  0.08039  0.11369  0.88799  1.0000 0.1112008372
H   H61       1.0  0.64043  0.21888  0.51913  1.0000 0.1282439928
H   H62       1.0  0.02345  0.19682  0.61766  1.0000 0.1399029801
H   H63       1.0  0.50899  0.15768  0.83323  1.0000 0.1399029801
H   H64       1.0  0.15151  0.69143  0.05265  1.0000 0.1112008372
H   H65       1.0  0.69952  0.29820  0.70428  1.0000 0.1112008372
H   H66       1.0  0.98174  0.05611  0.25492  1.0000 0.1112008372
H   H67       1.0  0.63117  0.89822  0.13131  1.0000 0.1191971864
H   H68       1.0  0.76385  0.94384  0.16513  1.0000 0.1112008372
H   H69       1.0  0.37727  0.14303  0.51787  1.0000 0.1112008372
H   H70       1.0  0.94004  0.16367  0.67967  1.0000 0.1112008372
H   H71       1.0  0.52170  0.28368  0.47673  1.0000 0.1112008372
H   H72       1.0  0.40230  0.69634  0.12698  1.0000 0.1191971864
H   H73       1.0  0.27955  0.15439  0.44277  1.0000 0.1191971864
H   H74       1.0  0.17843  0.06755  0.95126  1.0000 0.1191971864
H   H75       1.0  0.87409  0.36197  0.81842  1.0000 0.1112008372
H   H76       1.0  0.34128  0.53192  0.20062  1.0000 0.1112008372
H   H77       1.0  0.91980  0.26500  0.83886  1.0000 0.1282439928
H   H78       1.0  0.00522  0.92956  0.95491  1.0000 0.1191971864
H   H79       1.0  0.38862  0.59682  0.15010  1.0000 0.1112008372
H   H80       1.0  0.75751  0.37917  0.75208  1.0000 0.1191971864
H   H81       1.0  0.38441  0.17976  0.77482  1.0000 0.1191971864
H   H82       1.0  0.90647  0.97622  0.89133  1.0000 0.1112008372
H   H83       1.0  0.81958  0.94719  0.73436  1.0000 0.1282439928
H   H84       1.0  0.12430  0.40247  0.12426  1.0000 0.1191971864
H   H85       1.0  0.14656  0.49620  0.08728  1.0000 0.1112008372
H   H86       1.0  0.63742  0.06096  0.62003  1.0000 0.1033535651
H   H87       1.0  0.63811  0.95970  0.60861  1.0000 0.1282439928
H   H88       1.0  0.73080  0.89970  0.66667  1.0000 0.1282439928
H   H89       1.0  0.88802  0.50238  0.30286  1.0000 0.1282439928
H   H90       1.0  0.42046  0.20352  0.90377  1.0000 0.1282439928
H   H91       1.0  0.94320  0.33659  0.35835  1.0000 0.1399029801
H   H92       1.0  0.81443  0.37666  0.60497  1.0000 0.1112008372
H   H93       1.0  0.43260  0.31169  0.10159  1.0000 0.1282439928
H   H94       1.0  0.67436  0.39910  0.60505  1.0000 0.1033535651
H   H95       1.0  0.85966  0.49890  0.71844  1.0000 0.1112008372
H   H96       1.0  0.95112  0.26305  0.04206  1.0000 0.1282439928
H   H97       1.0  0.40290  0.30831  0.18797  1.0000 0.1282439928
H   H98       1.0  0.64450  0.36083  0.30272  1.0000 0.1033535651
H   H99       1.0  0.13923  0.90769  0.57432  1.0000 0.1112008372
H   H100      1.0  0.54040  0.44353  0.57230  1.0000 0.1282439928
H   H101      1.0  0.93865  0.32371  0.64107  1.0000 0.1112008372
H   H102      1.0  0.79416  0.25991  0.03052  1.0000 0.1282439928
H   H103      1.0  0.31043  0.05549  0.74198  1.0000 0.1191971864
H   H104      1.0  0.08039  0.38631  0.38799  1.0000 0.1112008372
H   H105      1.0  0.64043  0.28112  0.01913  1.0000 0.1282439928
H   H106      1.0  0.02345  0.30318  0.11766  1.0000 0.1399029801
H   H107      1.0  0.50899  0.34232  0.33323  1.0000 0.1399029801
H   H108      1.0  0.15151  0.80857  0.55265  1.0000 0.1112008372
H   H109      1.0  0.69952  0.20180  0.20428  1.0000 0.1112008372
H   H110      1.0  0.98174  0.44389  0.75492  1.0000 0.1112008372
H   H111      1.0  0.63117  0.60178  0.63131  1.0000 0.1191971864
H   H112      1.0  0.76385  0.55616  0.66513  1.0000 0.1112008372
H   H113      1.0  0.37727  0.35697  0.01787  1.0000 0.1112008372
H   H114      1.0  0.94004  0.33633  0.17967  1.0000 0.1112008372
H   H115      1.0  0.52170  0.21632  0.97673  1.0000 0.1112008372
H   H116      1.0  0.40230  0.80366  0.62698  1.0000 0.1191971864
H   H117      1.0  0.27955  0.34561  0.94277  1.0000 0.1191971864
H   H118      1.0  0.17843  0.43245  0.45126  1.0000 0.1191971864
H   H119      1.0  0.87409  0.13803  0.31842  1.0000 0.1112008372
H   H120      1.0  0.34128  0.96808  0.70062  1.0000 0.1112008372
H   H121      1.0  0.91980  0.23500  0.33886  1.0000 0.1282439928
H   H122      1.0  0.00522  0.57044  0.45491  1.0000 0.1191971864
H   H123      1.0  0.38862  0.90318  0.65010  1.0000 0.1112008372
H   H124      1.0  0.75751  0.12083  0.25208  1.0000 0.1191971864
H   H125      1.0  0.38441  0.32024  0.27482  1.0000 0.1191971864
H   H126      1.0  0.90647  0.52378  0.39133  1.0000 0.1112008372
H   H127      1.0  0.81958  0.55281  0.23436  1.0000 0.1282439928
H   H128      1.0  0.12430  0.09753  0.62426  1.0000 0.1191971864
H   H129      1.0  0.14656  0.00380  0.58728  1.0000 0.1112008372
H   H130      1.0  0.63742  0.43904  0.12003  1.0000 0.1033535651
H   H131      1.0  0.63811  0.54030  0.10861  1.0000 0.1282439928
H   H132      1.0  0.73080  0.60030  0.16667  1.0000 0.1282439928
H   H133      1.0  0.11198  0.00238  0.19714  1.0000 0.1282439928
H   H134      1.0  0.57954  0.70352  0.59623  1.0000 0.1282439928
H   H135      1.0  0.05680  0.83659  0.14165  1.0000 0.1399029801
H   H136      1.0  0.18557  0.87666  0.89503  1.0000 0.1112008372
H   H137      1.0  0.56740  0.81169  0.39841  1.0000 0.1282439928
H   H138      1.0  0.32564  0.89910  0.89495  1.0000 0.1033535651
H   H139      1.0  0.14034  0.99890  0.78156  1.0000 0.1112008372
H   H140      1.0  0.04888  0.76305  0.45794  1.0000 0.1282439928
H   H141      1.0  0.59710  0.80831  0.31203  1.0000 0.1282439928
H   H142      1.0  0.35550  0.86083  0.19728  1.0000 0.1033535651
H   H143      1.0  0.86077  0.40769  0.92568  1.0000 0.1112008372
H   H144      1.0  0.45960  0.94353  0.92770  1.0000 0.1282439928
H   H145      1.0  0.06135  0.82371  0.85893  1.0000 0.1112008372
H   H146      1.0  0.20584  0.75991  0.46948  1.0000 0.1282439928
H   H147      1.0  0.68957  0.55549  0.75802  1.0000 0.1191971864
H   H148      1.0  0.91961  0.88631  0.11201  1.0000 0.1112008372
H   H149      1.0  0.35957  0.78112  0.48087  1.0000 0.1282439928
H   H150      1.0  0.97655  0.80318  0.38234  1.0000 0.1399029801
H   H151      1.0  0.49101  0.84232  0.16677  1.0000 0.1399029801
H   H152      1.0  0.84849  0.30857  0.94735  1.0000 0.1112008372
H   H153      1.0  0.30048  0.70180  0.29572  1.0000 0.1112008372
H   H154      1.0  0.01826  0.94389  0.74508  1.0000 0.1112008372
H   H155      1.0  0.36883  0.10178  0.86869  1.0000 0.1191971864
H   H156      1.0  0.23615  0.05616  0.83487  1.0000 0.1112008372
H   H157      1.0  0.62273  0.85697  0.48213  1.0000 0.1112008372
H   H158      1.0  0.05996  0.83633  0.32033  1.0000 0.1112008372
H   H159      1.0  0.47830  0.71632  0.52327  1.0000 0.1112008372
H   H160      1.0  0.59770  0.30366  0.87302  1.0000 0.1191971864
H   H161      1.0  0.72045  0.84561  0.55723  1.0000 0.1191971864
H   H162      1.0  0.82157  0.93245  0.04874  1.0000 0.1191971864
H   H163      1.0  0.12591  0.63803  0.18158  1.0000 0.1112008372
H   H164      1.0  0.65872  0.46808  0.79938  1.0000 0.1112008372
H   H165      1.0  0.08020  0.73500  0.16114  1.0000 0.1282439928
H   H166      1.0  0.99478  0.07044  0.04509  1.0000 0.1191971864
H   H167      1.0  0.61138  0.40318  0.84990  1.0000 0.1112008372
H   H168      1.0  0.24249  0.62083  0.24792  1.0000 0.1191971864
H   H169      1.0  0.61559  0.82024  0.22518  1.0000 0.1191971864
H   H170      1.0  0.09353  0.02378  0.10867  1.0000 0.1112008372
H   H171      1.0  0.18042  0.05281  0.26564  1.0000 0.1282439928
H   H172      1.0  0.87570  0.59753  0.87574  1.0000 0.1191971864
H   H173      1.0  0.85344  0.50380  0.91272  1.0000 0.1112008372
H   H174      1.0  0.36258  0.93904  0.37997  1.0000 0.1033535651
H   H175      1.0  0.36189  0.04030  0.39139  1.0000 0.1282439928
H   H176      1.0  0.26920  0.10030  0.33333  1.0000 0.1282439928
C   C1        1.0  0.11930  0.53920  0.69920  1.0000 -0.241541073
C   C2        1.0  0.18000  0.55800  0.34040  1.0000 0.0682655375
C   C3        1.0  0.44350  0.68430  0.85680  1.0000 0.1633752461
C   C4        1.0  0.72390  0.73540  0.13120  1.0000 0.5288195114
C   C5        1.0  0.17430  0.56450  0.74000  1.0000 0.1762499127
C   C6        1.0  0.58760  0.76500  0.07370  1.0000 -0.0910975252
C   C7        1.0  0.08660  0.63760  0.66610  1.0000 -0.241541073
C   C8        1.0  0.07550  0.57590  0.66160  1.0000 0.1191971864
C   C9        1.0  0.46400  0.67350  0.80370  1.0000 0.1399029801
C   C10       1.0  0.95710  0.66440  0.27280  1.0000 0.5178556543
C   C11       1.0  0.22300  0.70200  0.90170  1.0000 0.1399029801
C   C12       1.0  0.15330  0.61000  0.36440  1.0000 -0.1719348224
C   C13       1.0  0.14350  0.66040  0.70790  1.0000 0.1672712628
C   C14       1.0  0.50580  0.69200  0.90050  1.0000 -0.241541073
C   C15       1.0  0.33410  0.56000  0.38930  1.0000 -0.1719348224
C   C16       1.0  0.71700  0.27110  0.42050  1.0000 0.5105666917
C   C17       1.0  0.32240  0.70030  0.90500  1.0000 0.1633752461
C   C18       1.0  0.12620  0.53740  0.29650  1.0000 -0.1719348224
C   C19       1.0  0.65910  0.72630  0.08450  1.0000 -0.0424447153
C   C20       1.0  0.01480  0.54870  0.61760  1.0000 0.0682655375
C   C21       1.0  0.08200  0.72240  0.93250  1.0000 -0.0485237297
C   C22       1.0  0.02830  0.62340  0.29700  1.0000 -0.0485237297
C   C23       1.0  0.54800  0.68170  0.78810  1.0000 -0.1915388976
C   C24       1.0  0.40450  0.65090  0.72050  1.0000 0.0682655375
C   C25       1.0  0.80880  0.11360  0.41350  1.0000 -0.1592993435
C   C26       1.0  0.41500  0.53350  0.40890  1.0000 -0.0910975252
C   C27       1.0  0.07860  0.64160  0.34260  1.0000 -0.1107707263
C   C28       1.0  0.47390  0.70520  0.94720  1.0000 0.1112008372
C   C29       1.0  0.17550  0.72400  0.93940  1.0000 -0.1799796135
C   C30       1.0  0.72270  0.95420  0.28940  1.0000 -0.1107707263
C   C31       1.0  0.26520  0.52750  0.36130  1.0000 0.0682655375
C   C32       1.0  0.16450  0.72520  0.71760  1.0000 0.1399029801
C   C33       1.0  0.93430  0.57640  0.59900  1.0000 -0.1592993435
C   C34       1.0  0.42960  0.47310  0.40080  1.0000 -0.0424447153
C   C35       1.0  0.83090  0.46140  0.50390  1.0000 0.5288195114
C   C36       1.0  0.22400  0.53080  0.78340  1.0000 0.1399029801
C   C37       1.0  0.78930  0.91570  0.31110  1.0000 -0.0424447153
C   C38       1.0  0.38150  0.70970  0.94990  1.0000 -0.241541073
C   C39       1.0  0.81300  0.86080  0.28250  1.0000 0.5105666917
C   C40       1.0  0.03930  0.69890  0.88770  1.0000 -0.1496407056
C   C41       1.0  0.48600  0.66070  0.70190  1.0000 -0.1496407056
C   C42       1.0  0.51660  0.44590  0.42020  1.0000 0.5385213297
C   C43       1.0  0.80100  0.17280  0.42700  1.0000 -0.1218986355
C   C44       1.0  0.25560  0.79170  0.76840  1.0000 0.059715461
C   C45       1.0  0.05220  0.57020  0.27490  1.0000 -0.1218986355
C   C46       1.0  0.36090  0.43930  0.37360  1.0000 -0.0910975252
C   C47       1.0  0.72410  0.20520  0.41090  1.0000 -0.0424447153
C   C48       1.0  0.53870  0.71190  0.99490  1.0000 0.059715461
C   C49       1.0  0.28070  0.46680  0.35370  1.0000 -0.1496407056
C   C50       1.0  0.61290  0.67350  0.00530  1.0000 -0.1719348224
C   C51       1.0  0.08980  0.67860  0.85100  1.0000 0.059715461
C   C52       1.0  0.52720  0.75760  0.02960  1.0000 -0.1444448579
C   C53       1.0  0.74050  0.08490  0.38210  1.0000 0.059715461
C   C54       1.0  0.65150  0.17580  0.38250  1.0000 -0.1218986355
C   C55       1.0  0.89740  0.49330  0.54140  1.0000 -0.0424447153
C   C56       1.0  0.75410  0.02470  0.36020  1.0000 0.059715461
C   C57       1.0  0.67190  0.68060  0.05020  1.0000 -0.1107707263
C   C58       1.0  0.87570  0.54880  0.56110  1.0000 -0.0910975252
C   C59       1.0  0.15280  0.82980  0.70040  1.0000 -0.0424447153
C   C60       1.0  0.70510  0.00720  0.31410  1.0000 -0.1719348224
C   C61       1.0  0.12500  0.77230  0.68840  1.0000 -0.1799796135
C   C62       1.0  0.97930  0.46630  0.55890  1.0000 -0.0910975252
C   C63       1.0  0.66000  0.11630  0.36860  1.0000 -0.1592993435
C   C64       1.0  0.22110  0.84040  0.74040  1.0000 -0.1496407056
C   C65       1.0  0.55900  0.67480  0.73630  1.0000 -0.0328937474
C   C66       1.0  0.03850  0.49410  0.59700  1.0000 -0.1592993435
C   C67       1.0  0.21890  0.46970  0.78900  1.0000 -0.1799796135
C   C68       1.0  0.83490  0.92970  0.35890  1.0000 -0.1107707263
C   C69       1.0  0.81900  0.98560  0.38200  1.0000 -0.1592993435
C   C70       1.0  0.32600  0.53740  0.85660  1.0000 0.0314260784
C   C71       1.0  0.32580  0.47710  0.86380  1.0000 -0.1719348224
C   C72       1.0  0.27090  0.44130  0.82930  1.0000 -0.0328937474
C   C73       1.0  0.88070  0.03920  0.80080  1.0000 -0.241541073
C   C74       1.0  0.82000  0.05800  0.15960  1.0000 0.0682655375
C   C75       1.0  0.55650  0.18430  0.64320  1.0000 0.1633752461
C   C76       1.0  0.27610  0.23540  0.36880  1.0000 0.5288195114
C   C77       1.0  0.82570  0.06450  0.76000  1.0000 0.1762499127
C   C78       1.0  0.41240  0.26500  0.42630  1.0000 -0.0910975252
C   C79       1.0  0.91340  0.13760  0.83390  1.0000 -0.241541073
C   C80       1.0  0.92450  0.07590  0.83840  1.0000 0.1191971864
C   C81       1.0  0.53600  0.17350  0.69630  1.0000 0.1399029801
C   C82       1.0  0.04290  0.16440  0.22720  1.0000 0.5178556543
C   C83       1.0  0.77700  0.20200  0.59830  1.0000 0.1399029801
C   C84       1.0  0.84670  0.11000  0.13560  1.0000 -0.1592993435
C   C85       1.0  0.85650  0.16040  0.79210  1.0000 0.1672712628
C   C86       1.0  0.49420  0.19200  0.59950  1.0000 -0.241541073
C   C87       1.0  0.66590  0.06000  0.11070  1.0000 -0.1719348224
C   C88       1.0  0.28300  0.77110  0.07950  1.0000 0.5105666917
C   C89       1.0  0.67760  0.20030  0.59500  1.0000 0.1633752461
C   C90       1.0  0.87380  0.03740  0.20350  1.0000 -0.1719348224
C   C91       1.0  0.34090  0.22630  0.41550  1.0000 -0.0424447153
C   C92       1.0  0.98520  0.04870  0.88240  1.0000 0.0682655375
C   C93       1.0  0.91800  0.22240  0.56750  1.0000 -0.0485237297
C   C94       1.0  0.97170  0.12340  0.20300  1.0000 -0.0485237297
C   C95       1.0  0.45200  0.18170  0.71190  1.0000 -0.1915388976
C   C96       1.0  0.59550  0.15090  0.77950  1.0000 0.0682655375
C   C97       1.0  0.19120  0.61360  0.08650  1.0000 -0.1592993435
C   C98       1.0  0.58500  0.03350  0.09110  1.0000 -0.0910975252
C   C99       1.0  0.92140  0.14160  0.15740  1.0000 -0.1107707263
C   C100      1.0  0.52610  0.20520  0.55280  1.0000 0.1112008372
C   C101      1.0  0.82450  0.22400  0.56060  1.0000 -0.1799796135
C   C102      1.0  0.27730  0.45420  0.21060  1.0000 -0.1107707263
C   C103      1.0  0.73480  0.02750  0.13870  1.0000 0.0682655375
C   C104      1.0  0.83550  0.22520  0.78240  1.0000 0.1399029801
C   C105      1.0  0.06570  0.07640  0.90100  1.0000 -0.1592993435
C   C106      1.0  0.57040  0.97310  0.09920  1.0000 -0.0424447153
C   C107      1.0  0.16910  0.96140  0.99610  1.0000 0.5288195114
C   C108      1.0  0.77600  0.03080  0.71660  1.0000 0.1399029801
C   C109      1.0  0.21070  0.41570  0.18890  1.0000 -0.0424447153
C   C110      1.0  0.61850  0.20970  0.55010  1.0000 -0.241541073
C   C111      1.0  0.18700  0.36080  0.21750  1.0000 0.5105666917
C   C112      1.0  0.96070  0.19890  0.61230  1.0000 -0.1496407056
C   C113      1.0  0.51400  0.16070  0.79810  1.0000 -0.1496407056
C   C114      1.0  0.48340  0.94590  0.07980  1.0000 0.5385213297
C   C115      1.0  0.19900  0.67280  0.07300  1.0000 -0.1218986355
C   C116      1.0  0.74440  0.29170  0.73160  1.0000 0.059715461
C   C117      1.0  0.94780  0.07020  0.22510  1.0000 -0.1218986355
C   C118      1.0  0.63910  0.93930  0.12640  1.0000 -0.0910975252
C   C119      1.0  0.27590  0.70520  0.08910  1.0000 -0.0424447153
C   C120      1.0  0.46130  0.21190  0.50510  1.0000 0.059715461
C   C121      1.0  0.71930  0.96680  0.14630  1.0000 -0.1496407056
C   C122      1.0  0.38710  0.17350  0.49470  1.0000 -0.1719348224
C   C123      1.0  0.91020  0.17860  0.64900  1.0000 0.059715461
C   C124      1.0  0.47280  0.25760  0.47040  1.0000 -0.1444448579
C   C125      1.0  0.25950  0.58490  0.11790  1.0000 0.059715461
C   C126      1.0  0.34850  0.67580  0.11750  1.0000 -0.1218986355
C   C127      1.0  0.10260  0.99330  0.95860  1.0000 -0.0424447153
C   C128      1.0  0.24590  0.52470  0.13980  1.0000 0.059715461
C   C129      1.0  0.32810  0.18060  0.44980  1.0000 -0.1107707263
C   C130      1.0  0.12430  0.04880  0.93890  1.0000 -0.0910975252
C   C131      1.0  0.84720  0.32980  0.79960  1.0000 -0.0424447153
C   C132      1.0  0.29490  0.50720  0.18590  1.0000 -0.1719348224
C   C133      1.0  0.87500  0.27230  0.81160  1.0000 -0.1799796135
C   C134      1.0  0.02070  0.96630  0.94110  1.0000 -0.0910975252
C   C135      1.0  0.34000  0.61630  0.13140  1.0000 -0.1592993435
C   C136      1.0  0.77890  0.34040  0.75960  1.0000 -0.1496407056
C   C137      1.0  0.44100  0.17480  0.76370  1.0000 -0.0328937474
C   C138      1.0  0.96150  0.99410  0.90300  1.0000 -0.1592993435
C   C139      1.0  0.78110  0.96970  0.71100  1.0000 -0.1799796135
C   C140      1.0  0.16510  0.42970  0.14110  1.0000 -0.1107707263
C   C141      1.0  0.18100  0.48560  0.11800  1.0000 -0.1592993435
C   C142      1.0  0.67400  0.03740  0.64340  1.0000 0.0314260784
C   C143      1.0  0.67420  0.97710  0.63620  1.0000 -0.1719348224
C   C144      1.0  0.72910  0.94130  0.67070  1.0000 -0.0328937474
C   C145      1.0  0.88070  0.46080  0.30080  1.0000 -0.241541073
C   C146      1.0  0.82000  0.44200  0.65960  1.0000 0.0682655375
C   C147      1.0  0.55650  0.31570  0.14320  1.0000 0.1633752461
C   C148      1.0  0.27610  0.26460  0.86880  1.0000 0.5288195114
C   C149      1.0  0.82570  0.43550  0.26000  1.0000 0.1762499127
C   C150      1.0  0.41240  0.23500  0.92630  1.0000 -0.0910975252
C   C151      1.0  0.91340  0.36240  0.33390  1.0000 -0.241541073
C   C152      1.0  0.92450  0.42410  0.33840  1.0000 0.1191971864
C   C153      1.0  0.53600  0.32650  0.19630  1.0000 0.1399029801
C   C154      1.0  0.04290  0.33560  0.72720  1.0000 0.5178556543
C   C155      1.0  0.77700  0.29800  0.09830  1.0000 0.1399029801
C   C156      1.0  0.84670  0.39000  0.63560  1.0000 -0.1592993435
C   C157      1.0  0.85650  0.33960  0.29210  1.0000 0.1672712628
C   C158      1.0  0.49420  0.30800  0.09950  1.0000 -0.241541073
C   C159      1.0  0.66590  0.44000  0.61070  1.0000 -0.1719348224
C   C160      1.0  0.28300  0.72890  0.57950  1.0000 0.5105666917
C   C161      1.0  0.67760  0.29970  0.09500  1.0000 0.1633752461
C   C162      1.0  0.87380  0.46260  0.70350  1.0000 -0.1719348224
C   C163      1.0  0.34090  0.27370  0.91550  1.0000 -0.0424447153
C   C164      1.0  0.98520  0.45130  0.38240  1.0000 0.0682655375
C   C165      1.0  0.91800  0.27760  0.06750  1.0000 -0.0485237297
C   C166      1.0  0.97170  0.37660  0.70300  1.0000 -0.0485237297
C   C167      1.0  0.45200  0.31830  0.21190  1.0000 -0.1915388976
C   C168      1.0  0.59550  0.34910  0.27950  1.0000 0.0682655375
C   C169      1.0  0.19120  0.88640  0.58650  1.0000 -0.1592993435
C   C170      1.0  0.58500  0.46650  0.59110  1.0000 -0.0910975252
C   C171      1.0  0.92140  0.35840  0.65740  1.0000 -0.1107707263
C   C172      1.0  0.52610  0.29480  0.05280  1.0000 0.1112008372
C   C173      1.0  0.82450  0.27600  0.06060  1.0000 -0.1799796135
C   C174      1.0  0.27730  0.04580  0.71060  1.0000 -0.1107707263
C   C175      1.0  0.73480  0.47250  0.63870  1.0000 0.0682655375
C   C176      1.0  0.83550  0.27480  0.28240  1.0000 0.1399029801
C   C177      1.0  0.06570  0.42360  0.40100  1.0000 -0.1592993435
C   C178      1.0  0.57040  0.52690  0.59920  1.0000 -0.0424447153
C   C179      1.0  0.16910  0.53860  0.49610  1.0000 0.5288195114
C   C180      1.0  0.77600  0.46920  0.21660  1.0000 0.1399029801
C   C181      1.0  0.21070  0.08430  0.68890  1.0000 -0.0424447153
C   C182      1.0  0.61850  0.29030  0.05010  1.0000 -0.241541073
C   C183      1.0  0.18700  0.13920  0.71750  1.0000 0.5105666917
C   C184      1.0  0.96070  0.30110  0.11230  1.0000 -0.1496407056
C   C185      1.0  0.51400  0.33930  0.29810  1.0000 -0.1496407056
C   C186      1.0  0.48340  0.55410  0.57980  1.0000 0.5385213297
C   C187      1.0  0.19900  0.82720  0.57300  1.0000 -0.1218986355
C   C188      1.0  0.74440  0.20830  0.23160  1.0000 0.059715461
C   C189      1.0  0.94780  0.42980  0.72510  1.0000 -0.1218986355
C   C190      1.0  0.63910  0.56070  0.62640  1.0000 -0.0910975252
C   C191      1.0  0.27590  0.79480  0.58910  1.0000 -0.0424447153
C   C192      1.0  0.46130  0.28810  0.00510  1.0000 0.059715461
C   C193      1.0  0.71930  0.53320  0.64630  1.0000 -0.1496407056
C   C194      1.0  0.38710  0.32650  0.99470  1.0000 -0.1719348224
C   C195      1.0  0.91020  0.32140  0.14900  1.0000 0.059715461
C   C196      1.0  0.47280  0.24240  0.97040  1.0000 -0.1444448579
C   C197      1.0  0.25950  0.91510  0.61790  1.0000 0.059715461
C   C198      1.0  0.34850  0.82420  0.61750  1.0000 -0.1218986355
C   C199      1.0  0.10260  0.50670  0.45860  1.0000 -0.0424447153
C   C200      1.0  0.24590  0.97530  0.63980  1.0000 0.059715461
C   C201      1.0  0.32810  0.31940  0.94980  1.0000 -0.1107707263
C   C202      1.0  0.12430  0.45120  0.43890  1.0000 -0.0910975252
C   C203      1.0  0.84720  0.17020  0.29960  1.0000 -0.0485237297
C   C204      1.0  0.29490  0.99280  0.68590  1.0000 -0.1719348224
C   C205      1.0  0.87500  0.22770  0.31160  1.0000 -0.1799796135
C   C206      1.0  0.02070  0.53370  0.44110  1.0000 -0.0910975252
C   C207      1.0  0.34000  0.88370  0.63140  1.0000 -0.1592993435
C   C208      1.0  0.77890  0.15960  0.25960  1.0000 -0.1496407056
C   C209      1.0  0.44100  0.32520  0.26370  1.0000 -0.0328937474
C   C210      1.0  0.96150  0.50590  0.40300  1.0000 -0.1592993435
C   C211      1.0  0.78110  0.53030  0.21100  1.0000 -0.1799796135
C   C212      1.0  0.16510  0.07030  0.64110  1.0000 -0.1107707263
C   C213      1.0  0.18100  0.01440  0.61800  1.0000 -0.1592993435
C   C214      1.0  0.67400  0.46260  0.14340  1.0000 0.0314260784
C   C215      1.0  0.67420  0.52290  0.13620  1.0000 -0.1719348224
C   C216      1.0  0.72910  0.55870  0.17070  1.0000 -0.0328937474
C   C217      1.0  0.11930  0.96080  0.19920  1.0000 -0.241541073
C   C218      1.0  0.18000  0.94200  0.84040  1.0000 0.0682655375
C   C219      1.0  0.44350  0.81570  0.35680  1.0000 0.1633752461
C   C220      1.0  0.72390  0.76460  0.63120  1.0000 0.5288195114
C   C221      1.0  0.17430  0.93550  0.24000  1.0000 0.1762499127
C   C222      1.0  0.58760  0.73500  0.57370  1.0000 -0.0910975252
C   C223      1.0  0.08660  0.86240  0.16610  1.0000 -0.241541073
C   C224      1.0  0.07550  0.92410  0.16160  1.0000 0.1191971864
C   C225      1.0  0.46400  0.82650  0.30370  1.0000 0.1399029801
C   C226      1.0  0.95710  0.83560  0.77280  1.0000 0.5178556543
C   C227      1.0  0.22300  0.79800  0.40170  1.0000 0.1399029801
C   C228      1.0  0.15330  0.89000  0.86440  1.0000 -0.1592993435
C   C229      1.0  0.14350  0.83960  0.20790  1.0000 0.1672712628
C   C230      1.0  0.50580  0.80800  0.40050  1.0000 -0.241541073
C   C231      1.0  0.33410  0.94000  0.88930  1.0000 -0.1719348224
C   C232      1.0  0.71700  0.22890  0.92050  1.0000 0.5105666917
C   C233      1.0  0.32240  0.79970  0.40500  1.0000 0.1633752461
C   C234      1.0  0.12620  0.96260  0.79650  1.0000 -0.1719348224
C   C235      1.0  0.65910  0.77370  0.58450  1.0000 -0.0424447153
C   C236      1.0  0.01480  0.95130  0.11760  1.0000 0.0682655375
C   C237      1.0  0.08200  0.77760  0.43250  1.0000 -0.0485237297
C   C238      1.0  0.02830  0.87660  0.79700  1.0000 -0.0485237297
C   C239      1.0  0.54800  0.81830  0.28810  1.0000 -0.1915388976
C   C240      1.0  0.40450  0.84910  0.22050  1.0000 0.0682655375
C   C241      1.0  0.80880  0.38640  0.91350  1.0000 -0.1592993435
C   C242      1.0  0.41500  0.96650  0.90890  1.0000 -0.0910975252
C   C243      1.0  0.07860  0.85840  0.84260  1.0000 -0.1107707263
C   C244      1.0  0.47390  0.79480  0.44720  1.0000 0.1112008372
C   C245      1.0  0.17550  0.77600  0.43940  1.0000 -0.1799796135
C   C246      1.0  0.72270  0.54580  0.78940  1.0000 -0.1107707263
C   C247      1.0  0.26520  0.97250  0.86130  1.0000 0.0682655375
C   C248      1.0  0.16450  0.77480  0.21760  1.0000 0.1399029801
C   C249      1.0  0.93430  0.92360  0.09900  1.0000 -0.1592993435
C   C250      1.0  0.42960  0.02690  0.90080  1.0000 -0.0424447153
C   C251      1.0  0.83090  0.03860  0.00390  1.0000 0.5288195114
C   C252      1.0  0.22400  0.96920  0.28340  1.0000 0.1399029801
C   C253      1.0  0.78930  0.58430  0.81110  1.0000 -0.0424447153
C   C254      1.0  0.38150  0.79030  0.44990  1.0000 -0.241541073
C   C255      1.0  0.81300  0.63920  0.78250  1.0000 0.5105666917
C   C256      1.0  0.03930  0.80110  0.38770  1.0000 -0.1496407056
C   C257      1.0  0.48600  0.83930  0.20190  1.0000 -0.1496407056
C   C258      1.0  0.51660  0.05410  0.92020  1.0000 0.5385213297
C   C259      1.0  0.80100  0.32720  0.92700  1.0000 -0.1218986355
C   C260      1.0  0.25560  0.70830  0.26840  1.0000 0.059715461
C   C261      1.0  0.05220  0.92980  0.77490  1.0000 -0.1218986355
C   C262      1.0  0.36090  0.06070  0.87360  1.0000 -0.0910975252
C   C263      1.0  0.72410  0.29480  0.91090  1.0000 -0.0485237297
C   C264      1.0  0.53870  0.78810  0.49490  1.0000 0.059715461
C   C265      1.0  0.28070  0.03320  0.85370  1.0000 -0.1496407056
C   C266      1.0  0.61290  0.82650  0.50530  1.0000 -0.1719348224
C   C267      1.0  0.08980  0.82140  0.35100  1.0000 0.059715461
C   C268      1.0  0.52720  0.74240  0.52960  1.0000 -0.1444448579
C   C269      1.0  0.74050  0.41510  0.88210  1.0000 0.059715461
C   C270      1.0  0.65150  0.32420  0.88250  1.0000 -0.1218986355
C   C271      1.0  0.89740  0.00670  0.04140  1.0000 -0.0424447153
C   C272      1.0  0.75410  0.47530  0.86020  1.0000 0.059715461
C   C273      1.0  0.67190  0.81940  0.55020  1.0000 -0.1107707263
C   C274      1.0  0.87570  0.95120  0.06110  1.0000 -0.0910975252
C   C275      1.0  0.15280  0.67020  0.20040  1.0000 -0.0424447153
C   C276      1.0  0.70510  0.49280  0.81410  1.0000 -0.1719348224
C   C277      1.0  0.12500  0.72770  0.18840  1.0000 -0.1799796135
C   C278      1.0  0.97930  0.03370  0.05890  1.0000 -0.0910975252
C   C279      1.0  0.66000  0.38370  0.86860  1.0000 -0.1592993435
C   C280      1.0  0.22110  0.65960  0.24040  1.0000 -0.1496407056
C   C281      1.0  0.55900  0.82520  0.23630  1.0000 -0.0424447153
C   C282      1.0  0.03850  0.00590  0.09700  1.0000 -0.1592993435
C   C283      1.0  0.21890  0.03030  0.28900  1.0000 -0.1799796135
C   C284      1.0  0.83490  0.57030  0.85890  1.0000 -0.1107707263
C   C285      1.0  0.81900  0.51440  0.88200  1.0000 -0.1592993435
C   C286      1.0  0.32600  0.96260  0.35660  1.0000 0.0314260784
C   C287      1.0  0.32580  0.02290  0.36380  1.0000 -0.1719348224
C   C288      1.0  0.27090  0.05870  0.32930  1.0000 -0.0328937474
N   N1        1.0  0.18430  0.62370  0.74360  1.0000 -0.2609320108
N   N2        1.0  0.18030  0.67900  0.85690  1.0000 -0.2455192257
N   N3        1.0  0.35510  0.68820  0.86012  1.0000 -0.269693305
N   N4        1.0  0.27570  0.56490  0.81720  1.0000 -0.2309289083
N   N5        1.0  0.39180  0.65740  0.77000  1.0000 -0.241541073
N   N6        1.0  0.22810  0.73600  0.75820  1.0000 -0.2309289083
N   N7        1.0  0.81570  0.12370  0.75640  1.0000 -0.2609320108
N   N8        1.0  0.81970  0.17900  0.64310  1.0000 -0.241541073
N   N9        1.0  0.64490  0.18820  0.63988  1.0000 -0.269693305
N   N10       1.0  0.72430  0.06490  0.68280  1.0000 -0.2309289083
N   N11       1.0  0.60820  0.15740  0.73000  1.0000 -0.241541073
N   N12       1.0  0.77190  0.23600  0.74180  1.0000 -0.2309289083
N   N13       1.0  0.81570  0.37630  0.25640  1.0000 -0.2609320108
N   N14       1.0  0.81970  0.32100  0.14310  1.0000 -0.241541073
N   N15       1.0  0.64490  0.31180  0.13988  1.0000 -0.269693305
N   N16       1.0  0.72430  0.43510  0.18280  1.0000 -0.2309289083
N   N17       1.0  0.60820  0.34260  0.23000  1.0000 -0.241541073
N   N18       1.0  0.77190  0.26400  0.24180  1.0000 -0.2309289083
N   N19       1.0  0.18430  0.87630  0.24360  1.0000 -0.2609320108
N   N20       1.0  0.18030  0.82100  0.35690  1.0000 -0.241541073
N   N21       1.0  0.35510  0.81180  0.36012  1.0000 -0.269693305
N   N22       1.0  0.27570  0.93510  0.31720  1.0000 -0.2309289083
N   N23       1.0  0.39180  0.84260  0.27000  1.0000 -0.241541073
N   N24       1.0  0.22810  0.76400  0.25820  1.0000 -0.2309289083
O   O1        1.0  0.53080  0.39000  0.41304  1.0000 -0.5990973462
O   O2        1.0  0.91210  0.65170  0.23009  1.0000 -0.5911704996
O   O3        1.0  0.78140  0.69630  0.14697  1.0000 -0.5812684868
O   O4        1.0  0.71930  0.78370  0.15726  1.0000 -0.5911704996
O   O5        1.0  0.78160  0.29900  0.44517  1.0000 -0.5812684868
O   O6        1.0  0.77150  0.85200  0.23792  1.0000 -0.5812684868
O   O7        1.0  0.64420  0.29840  0.40570  1.0000 -0.5812684868
O   O8        1.0  0.84670  0.40820  0.48941  1.0000 -0.5911704996
O   O9        1.0  0.58060  0.47670  0.44300  1.0000 -0.5552013416
O   O10       1.0  0.75650  0.48630  0.48750  1.0000 -0.5711652189
O   O11       1.0  0.94250  0.71280  0.29500  1.0000 -0.5711652189
O   O12       1.0  0.86670  0.82210  0.30250  1.0000 -0.5711652189
O   O13       1.0  0.46920  0.89000  0.08696  1.0000 -0.5990973462
O   O14       1.0  0.08790  0.15170  0.26991  1.0000 -0.5911704996
O   O15       1.0  0.21860  0.19630  0.35303  1.0000 -0.5812684868
O   O16       1.0  0.28070  0.28370  0.34274  1.0000 -0.5911704996
O   O17       1.0  0.21840  0.79900  0.05483  1.0000 -0.5812684868
O   O18       1.0  0.22850  0.35200  0.26208  1.0000 -0.5812684868
O   O19       1.0  0.35580  0.79840  0.09430  1.0000 -0.5812684868
O   O20       1.0  0.15330  0.90820  0.01059  1.0000 -0.5911704996
O   O21       1.0  0.41940  0.97670  0.05700  1.0000 -0.5536906619
O   O22       1.0  0.24350  0.98630  0.01250  1.0000 -0.5711652189
O   O23       1.0  0.05750  0.21280  0.20500  1.0000 -0.5711652189
O   O24       1.0  0.13330  0.32210  0.19750  1.0000 -0.5711652189
O   O25       1.0  0.46920  0.61000  0.58696  1.0000 -0.5990973462
O   O26       1.0  0.08790  0.34830  0.76991  1.0000 -0.5911704996
O   O27       1.0  0.21860  0.30370  0.85303  1.0000 -0.5812684868
O   O28       1.0  0.28070  0.21630  0.84274  1.0000 -0.5911704996
O   O29       1.0  0.21840  0.70100  0.55483  1.0000 -0.5812684868
O   O30       1.0  0.22850  0.14800  0.76208  1.0000 -0.5812684868
O   O31       1.0  0.35580  0.70160  0.59430  1.0000 -0.5812684868
O   O32       1.0  0.15330  0.59180  0.51059  1.0000 -0.5911704996
O   O33       1.0  0.41940  0.52330  0.55700  1.0000 -0.5552013416
O   O34       1.0  0.24350  0.51370  0.51250  1.0000 -0.5711652189
O   O35       1.0  0.05750  0.28720  0.70500  1.0000 -0.5711652189
O   O36       1.0  0.13330  0.17790  0.69750  1.0000 -0.5711652189
O   O37       1.0  0.53080  0.11000  0.91304  1.0000 -0.5990973462
O   O38       1.0  0.91210  0.84830  0.73009  1.0000 -0.5911704996
O   O39       1.0  0.78140  0.80370  0.64697  1.0000 -0.5812684868
O   O40       1.0  0.71930  0.71630  0.65726  1.0000 -0.5911704996
O   O41       1.0  0.78160  0.20100  0.94517  1.0000 -0.5812684868
O   O42       1.0  0.77150  0.64800  0.73792  1.0000 -0.5812684868
O   O43       1.0  0.64420  0.20160  0.90570  1.0000 -0.5812684868
O   O44       1.0  0.84670  0.09180  0.98941  1.0000 -0.5911704996
O   O45       1.0  0.58060  0.02330  0.94300  1.0000 -0.5552013416
O   O46       1.0  0.75650  0.01370  0.98750  1.0000 -0.5711652189
O   O47       1.0  0.94250  0.78720  0.79500  1.0000 -0.5711652189
O   O48       1.0  0.86670  0.67790  0.80250  1.0000 -0.5711652189
