# DDEC6 charges by PACMAN v1.1 (https://github.com/mtap-research/PACMAN-charge/)
data_2020[Cd][fes]2[ASR]3
_chemical_formula_sum              "Cd8 H48 C96 N16 O32"
_cell_length_a       16.0209
_cell_length_b       15.0567
_cell_length_c       18.4447
_cell_angle_alpha    90
_cell_angle_beta     113.878
_cell_angle_gamma    90

_symmetry_space_group_name_H-M    "P 1"
_symmetry_Int_Tables_number       1

loop_
  _symmetry_equiv_pos_as_xyz
  'x, y, z'

loop_
  _atom_site_type_symbol
  _atom_site_label
  _atom_site_symmetry_multiplicity
  _atom_site_fract_x
  _atom_site_fract_y
  _atom_site_fract_z
  _atom_site_occupancy
  _atom_site_charge
Cd  Cd1       1.0  0.80668  0.59243  0.40516  1.0000 0.8328747423
Cd  Cd2       1.0  0.71612  0.09195  0.08211  1.0000 0.8359624417
Cd  Cd3       1.0  0.30668  0.90757  0.40516  1.0000 0.8328747423
Cd  Cd4       1.0  0.21612  0.40805  0.08211  1.0000 0.8359624417
Cd  Cd5       1.0  0.69332  0.09243  0.59484  1.0000 0.8328747423
Cd  Cd6       1.0  0.78388  0.59195  0.91789  1.0000 0.8359624417
Cd  Cd7       1.0  0.19332  0.40757  0.59484  1.0000 0.8328747423
Cd  Cd8       1.0  0.28388  0.90805  0.91789  1.0000 0.8359624417
H   H1        1.0  0.49566  0.09381  0.97546  1.0000 0.1175523707
H   H2        1.0  0.02250  0.59897  0.51760  1.0000 0.1138822557
H   H3        1.0  0.64324  0.68950  0.25908  1.0000 0.1175523707
H   H4        1.0  0.60987  0.81583  0.18167  1.0000 0.1414477387
H   H5        1.0  0.51341  0.33071  0.13563  1.0000 0.1414477387
H   H6        1.0  0.01132  0.83024  0.35286  1.0000 0.1414477387
H   H7        1.0  0.87989  0.19228  0.23309  1.0000 0.1175523707
H   H8        1.0  0.87725  0.87422  0.27560  1.0000 0.1465900046
H   H9        1.0  0.36340  0.16538  0.96236  1.0000 0.1414477387
H   H10       1.0  0.64326  0.37686  0.20651  1.0000 0.1414477387
H   H11       1.0  0.90919  0.31713  0.31093  1.0000 0.1465900046
H   H12       1.0  0.15725  0.66636  0.53057  1.0000 0.1414477387
H   H13       1.0  0.99566  0.40619  0.97546  1.0000 0.1175523707
H   H14       1.0  0.52250  0.90103  0.51760  1.0000 0.1138822557
H   H15       1.0  0.14324  0.81050  0.25908  1.0000 0.1175523707
H   H16       1.0  0.10987  0.68417  0.18167  1.0000 0.1414477387
H   H17       1.0  0.01341  0.16929  0.13563  1.0000 0.1414477387
H   H18       1.0  0.51132  0.66976  0.35286  1.0000 0.1414477387
H   H19       1.0  0.37989  0.30772  0.23309  1.0000 0.1175523707
H   H20       1.0  0.37725  0.62578  0.27560  1.0000 0.1465900046
H   H21       1.0  0.86340  0.33462  0.96236  1.0000 0.1414477387
H   H22       1.0  0.14326  0.12314  0.20651  1.0000 0.1414477387
H   H23       1.0  0.40919  0.18287  0.31093  1.0000 0.1465900046
H   H24       1.0  0.65725  0.83364  0.53057  1.0000 0.1414477387
H   H25       1.0  0.00434  0.59381  0.02454  1.0000 0.1175523707
H   H26       1.0  0.47750  0.09897  0.48240  1.0000 0.1138822557
H   H27       1.0  0.85676  0.18950  0.74092  1.0000 0.1175523707
H   H28       1.0  0.89013  0.31583  0.81833  1.0000 0.1414477387
H   H29       1.0  0.98659  0.83071  0.86437  1.0000 0.1414477387
H   H30       1.0  0.48868  0.33024  0.64714  1.0000 0.1414477387
H   H31       1.0  0.62011  0.69228  0.76691  1.0000 0.1175523707
H   H32       1.0  0.62275  0.37422  0.72440  1.0000 0.1465900046
H   H33       1.0  0.13660  0.66538  0.03764  1.0000 0.1414477387
H   H34       1.0  0.85674  0.87686  0.79349  1.0000 0.1414477387
H   H35       1.0  0.59081  0.81713  0.68907  1.0000 0.1465900046
H   H36       1.0  0.34275  0.16636  0.46943  1.0000 0.1414477387
H   H37       1.0  0.50434  0.90619  0.02454  1.0000 0.1175523707
H   H38       1.0  0.97750  0.40103  0.48240  1.0000 0.1138822557
H   H39       1.0  0.35676  0.31050  0.74092  1.0000 0.1175523707
H   H40       1.0  0.39013  0.18417  0.81833  1.0000 0.1414477387
H   H41       1.0  0.48659  0.66929  0.86437  1.0000 0.1414477387
H   H42       1.0  0.98868  0.16976  0.64714  1.0000 0.1414477387
H   H43       1.0  0.12011  0.80772  0.76691  1.0000 0.1175523707
H   H44       1.0  0.12275  0.12578  0.72440  1.0000 0.1465900046
H   H45       1.0  0.63660  0.83462  0.03764  1.0000 0.1414477387
H   H46       1.0  0.35674  0.62314  0.79349  1.0000 0.1414477387
H   H47       1.0  0.09081  0.68287  0.68907  1.0000 0.1465900046
H   H48       1.0  0.84275  0.33364  0.46943  1.0000 0.1414477387
C   C1        1.0  0.67864  0.26320  0.16783  1.0000 0.1772744813
C   C2        1.0  0.49930  0.14220  0.00796  1.0000 0.0872032688
C   C3        1.0  0.58640  0.23710  0.10839  1.0000 0.1772744813
C   C4        1.0  0.84433  0.76360  0.32012  1.0000 0.1744772465
C   C5        1.0  0.93629  0.73890  0.38034  1.0000 0.1772744813
C   C6        1.0  0.42401  0.25700  0.04761  1.0000 0.044384106
C   C7        1.0  0.79340  0.44480  0.31610  1.0000 0.5313603291
C   C8        1.0  0.02060  0.64560  0.48388  1.0000 0.0872032688
C   C9        1.0  0.72230  0.94280  0.17083  1.0000 0.5313603291
C   C10       1.0  0.74050  0.85960  0.22027  1.0000 0.0492663783
C   C11       1.0  0.69040  0.72790  0.26300  1.0000 0.099562873
C   C12       1.0  0.66980  0.80320  0.21575  1.0000 -0.1489927263
C   C13       1.0  0.50848  0.28270  0.10244  1.0000 -0.1694511219
C   C14       1.0  0.09889  0.75690  0.44327  1.0000 0.044384106
C   C15       1.0  0.18570  0.80220  0.44840  1.0000 0.5313603291
C   C16       1.0  0.01496  0.78310  0.38661  1.0000 -0.1761489117
C   C17       1.0  0.83180  0.22990  0.22793  1.0000 0.0872032688
C   C18       1.0  0.77940  0.36130  0.26729  1.0000 0.044384106
C   C19       1.0  0.82870  0.83830  0.27250  1.0000 -0.1694511219
C   C20       1.0  0.41940  0.18490  0.99966  1.0000 -0.1489927263
C   C21       1.0  0.69230  0.33990  0.21283  1.0000 -0.1694511219
C   C22       1.0  0.85000  0.30490  0.27480  1.0000 -0.1557965195
C   C23       1.0  0.10190  0.68620  0.49251  1.0000 -0.1489927263
C   C24       1.0  0.33940  0.30650  0.04220  1.0000 0.5313603291
C   C25       1.0  0.17864  0.23680  0.16783  1.0000 0.1772744813
C   C26       1.0  0.99930  0.35780  0.00796  1.0000 0.0872032688
C   C27       1.0  0.08640  0.26290  0.10839  1.0000 0.1772744813
C   C28       1.0  0.34433  0.73640  0.32012  1.0000 0.1744772465
C   C29       1.0  0.43629  0.76110  0.38034  1.0000 0.1772744813
C   C30       1.0  0.92401  0.24300  0.04761  1.0000 0.044384106
C   C31       1.0  0.29340  0.05520  0.31610  1.0000 0.5313603291
C   C32       1.0  0.52060  0.85440  0.48388  1.0000 0.0844328275
C   C33       1.0  0.22230  0.55720  0.17083  1.0000 0.5313603291
C   C34       1.0  0.24050  0.64040  0.22027  1.0000 0.0492663783
C   C35       1.0  0.19040  0.77210  0.26300  1.0000 0.099562873
C   C36       1.0  0.16980  0.69680  0.21575  1.0000 -0.1489927263
C   C37       1.0  0.00848  0.21730  0.10244  1.0000 -0.1694511219
C   C38       1.0  0.59889  0.74310  0.44327  1.0000 0.044384106
C   C39       1.0  0.68570  0.69780  0.44840  1.0000 0.5313603291
C   C40       1.0  0.51496  0.71690  0.38661  1.0000 -0.1761489117
C   C41       1.0  0.33180  0.27010  0.22793  1.0000 0.0872032688
C   C42       1.0  0.27940  0.13870  0.26729  1.0000 0.044384106
C   C43       1.0  0.32870  0.66170  0.27250  1.0000 -0.1694511219
C   C44       1.0  0.91940  0.31510  0.99966  1.0000 -0.1489927263
C   C45       1.0  0.19230  0.16010  0.21283  1.0000 -0.1694511219
C   C46       1.0  0.35000  0.19510  0.27480  1.0000 -0.1557965195
C   C47       1.0  0.60190  0.81380  0.49251  1.0000 -0.1489927263
C   C48       1.0  0.83940  0.19350  0.04220  1.0000 0.5313603291
C   C49       1.0  0.82136  0.76320  0.83217  1.0000 0.1772744813
C   C50       1.0  0.00070  0.64220  0.99204  1.0000 0.0872032688
C   C51       1.0  0.91360  0.73710  0.89161  1.0000 0.1772744813
C   C52       1.0  0.65567  0.26360  0.67988  1.0000 0.1744772465
C   C53       1.0  0.56371  0.23890  0.61966  1.0000 0.1772744813
C   C54       1.0  0.07599  0.75700  0.95239  1.0000 0.044384106
C   C55       1.0  0.70660  0.94480  0.68390  1.0000 0.5313603291
C   C56       1.0  0.47940  0.14560  0.51612  1.0000 0.0844328275
C   C57       1.0  0.77770  0.44280  0.82917  1.0000 0.5313603291
C   C58       1.0  0.75950  0.35960  0.77973  1.0000 0.0492663783
C   C59       1.0  0.80960  0.22790  0.73700  1.0000 0.099562873
C   C60       1.0  0.83020  0.30320  0.78425  1.0000 -0.1489927263
C   C61       1.0  0.99152  0.78270  0.89756  1.0000 -0.1761489117
C   C62       1.0  0.40111  0.25690  0.55673  1.0000 0.044384106
C   C63       1.0  0.31430  0.30220  0.55160  1.0000 0.5313603291
C   C64       1.0  0.48504  0.28310  0.61339  1.0000 -0.1761489117
C   C65       1.0  0.66820  0.72990  0.77207  1.0000 0.0872032688
C   C66       1.0  0.72060  0.86130  0.73271  1.0000 0.044384106
C   C67       1.0  0.67130  0.33830  0.72750  1.0000 -0.1694511219
C   C68       1.0  0.08060  0.68490  0.00034  1.0000 -0.1489927263
C   C69       1.0  0.80770  0.83990  0.78717  1.0000 -0.1694511219
C   C70       1.0  0.65000  0.80490  0.72520  1.0000 -0.1557965195
C   C71       1.0  0.39810  0.18620  0.50749  1.0000 -0.1489927263
C   C72       1.0  0.16060  0.80650  0.95780  1.0000 0.5313603291
C   C73       1.0  0.32136  0.73680  0.83217  1.0000 0.1772744813
C   C74       1.0  0.50070  0.85780  0.99204  1.0000 0.0872032688
C   C75       1.0  0.41360  0.76290  0.89161  1.0000 0.1772744813
C   C76       1.0  0.15567  0.23640  0.67988  1.0000 0.1744772465
C   C77       1.0  0.06371  0.26110  0.61966  1.0000 0.1772744813
C   C78       1.0  0.57599  0.74300  0.95239  1.0000 0.044384106
C   C79       1.0  0.20660  0.55520  0.68390  1.0000 0.5313603291
C   C80       1.0  0.97940  0.35440  0.51612  1.0000 0.0844328275
C   C81       1.0  0.27770  0.05720  0.82917  1.0000 0.5313603291
C   C82       1.0  0.25950  0.14040  0.77973  1.0000 0.0492663783
C   C83       1.0  0.30960  0.27210  0.73700  1.0000 0.099562873
C   C84       1.0  0.33020  0.19680  0.78425  1.0000 -0.1489927263
C   C85       1.0  0.49152  0.71730  0.89756  1.0000 -0.1761489117
C   C86       1.0  0.90111  0.24310  0.55673  1.0000 0.044384106
C   C87       1.0  0.81430  0.19780  0.55160  1.0000 0.5313603291
C   C88       1.0  0.98504  0.21690  0.61339  1.0000 -0.1761489117
C   C89       1.0  0.16820  0.77010  0.77207  1.0000 0.0872032688
C   C90       1.0  0.22060  0.63870  0.73271  1.0000 0.044384106
C   C91       1.0  0.17130  0.16170  0.72750  1.0000 -0.1694511219
C   C92       1.0  0.58060  0.81510  0.00034  1.0000 -0.1489927263
C   C93       1.0  0.30770  0.66010  0.78717  1.0000 -0.1694511219
C   C94       1.0  0.15000  0.69510  0.72520  1.0000 -0.1557965195
C   C95       1.0  0.89810  0.31380  0.50749  1.0000 -0.1489927263
C   C96       1.0  0.66060  0.69350  0.95780  1.0000 0.5313603291
N   N1        1.0  0.74771  0.20880  0.17524  1.0000 -0.2490441321
N   N2        1.0  0.93969  0.67089  0.42887  1.0000 -0.2569075802
N   N3        1.0  0.58148  0.16752  0.06078  1.0000 -0.2569075802
N   N4        1.0  0.77504  0.70841  0.31380  1.0000 -0.2490441321
N   N5        1.0  0.24771  0.29120  0.17524  1.0000 -0.2490441321
N   N6        1.0  0.43969  0.82911  0.42887  1.0000 -0.2569075802
N   N7        1.0  0.08148  0.33248  0.06078  1.0000 -0.2569075802
N   N8        1.0  0.27504  0.79159  0.31380  1.0000 -0.2490441321
N   N9        1.0  0.75229  0.70880  0.82476  1.0000 -0.2490441321
N   N10       1.0  0.56031  0.17089  0.57113  1.0000 -0.2490441321
N   N11       1.0  0.91852  0.66752  0.93922  1.0000 -0.2569075802
N   N12       1.0  0.72496  0.20841  0.68620  1.0000 -0.2490441321
N   N13       1.0  0.25229  0.79120  0.82476  1.0000 -0.2490441321
N   N14       1.0  0.06031  0.32911  0.57113  1.0000 -0.2490441321
N   N15       1.0  0.41852  0.83248  0.93922  1.0000 -0.2569075802
N   N16       1.0  0.22496  0.29159  0.68620  1.0000 -0.2490441321
O   O1        1.0  0.25939  0.76266  0.48163  1.0000 -0.5593201845
O   O2        1.0  0.79032  0.98034  0.16686  1.0000 -0.5214405461
O   O3        1.0  0.35381  0.37749  0.08229  1.0000 -0.5336875845
O   O4        1.0  0.64307  0.97011  0.13663  1.0000 -0.5593201845
O   O5        1.0  0.87225  0.46699  0.36064  1.0000 -0.5593201845
O   O6        1.0  0.17542  0.87791  0.41626  1.0000 -0.5371787636
O   O7        1.0  0.72508  0.48863  0.30970  1.0000 -0.5214405461
O   O8        1.0  0.26324  0.27539  0.00151  1.0000 -0.5593201845
O   O9        1.0  0.75939  0.73734  0.48163  1.0000 -0.5593201845
O   O10       1.0  0.29032  0.51966  0.16686  1.0000 -0.5214405461
O   O11       1.0  0.85381  0.12251  0.08229  1.0000 -0.5336875845
O   O12       1.0  0.14307  0.52989  0.13663  1.0000 -0.5593201845
O   O13       1.0  0.37225  0.03301  0.36064  1.0000 -0.5593201845
O   O14       1.0  0.67542  0.62209  0.41626  1.0000 -0.5371787636
O   O15       1.0  0.22508  0.01137  0.30970  1.0000 -0.5214405461
O   O16       1.0  0.76324  0.22461  0.00151  1.0000 -0.5593201845
O   O17       1.0  0.24061  0.26266  0.51837  1.0000 -0.5593201845
O   O18       1.0  0.70968  0.48034  0.83314  1.0000 -0.5214405461
O   O19       1.0  0.14619  0.87749  0.91771  1.0000 -0.5371787636
O   O20       1.0  0.85693  0.47011  0.86337  1.0000 -0.5593201845
O   O21       1.0  0.62775  0.96699  0.63936  1.0000 -0.5593201845
O   O22       1.0  0.32458  0.37791  0.58374  1.0000 -0.5371787636
O   O23       1.0  0.77492  0.98863  0.69030  1.0000 -0.5214405461
O   O24       1.0  0.23676  0.77539  0.99849  1.0000 -0.5593201845
O   O25       1.0  0.74061  0.23734  0.51837  1.0000 -0.5593201845
O   O26       1.0  0.20968  0.01966  0.83314  1.0000 -0.5214405461
O   O27       1.0  0.64619  0.62251  0.91771  1.0000 -0.5336875845
O   O28       1.0  0.35693  0.02989  0.86337  1.0000 -0.5593201845
O   O29       1.0  0.12775  0.53301  0.63936  1.0000 -0.5593201845
O   O30       1.0  0.82458  0.12209  0.58374  1.0000 -0.5371787636
O   O31       1.0  0.27492  0.51137  0.69030  1.0000 -0.5214405461
O   O32       1.0  0.73676  0.72461  0.99849  1.0000 -0.5593201845
