# DDEC6 charges by PACMAN v1.1 (https://github.com/mtap-research/PACMAN-charge/)
data_2021[Co][pcu]3[ASR]3
_chemical_formula_sum              "Co8 H144 C240 S32 N16 O32"
_cell_length_a       18.7807
_cell_length_b       18.9387
_cell_length_c       27.8759
_cell_angle_alpha    90
_cell_angle_beta     112.53
_cell_angle_gamma    90

_symmetry_space_group_name_H-M    "P 1"
_symmetry_Int_Tables_number       1

loop_
  _symmetry_equiv_pos_as_xyz
  'x, y, z'

loop_
  _atom_site_type_symbol
  _atom_site_label
  _atom_site_symmetry_multiplicity
  _atom_site_fract_x
  _atom_site_fract_y
  _atom_site_fract_z
  _atom_site_occupancy
  _atom_site_charge
Co  Co1       1.0  0.58802  0.85120  0.93470  1.0000 0.8241005759
Co  Co2       1.0  0.81552  0.79615  0.01546  1.0000 0.8392063599
Co  Co3       1.0  0.58802  0.64880  0.43470  1.0000 0.8241005759
Co  Co4       1.0  0.81552  0.70385  0.51546  1.0000 0.8392063599
Co  Co5       1.0  0.41198  0.35120  0.56530  1.0000 0.8241005759
Co  Co6       1.0  0.18448  0.29615  0.48454  1.0000 0.8392063599
Co  Co7       1.0  0.41198  0.14880  0.06530  1.0000 0.8241005759
Co  Co8       1.0  0.18448  0.20385  0.98454  1.0000 0.8392063599
H   H1        1.0  0.58957  0.19701  0.03270  1.0000 0.1737528514
H   H2        1.0  0.58743  0.50947  0.82610  1.0000 0.1589323191
H   H3        1.0  0.61913  0.98500  0.88551  1.0000 0.1109266876
H   H4        1.0  0.62295  0.10574  0.89368  1.0000 0.1294006793
H   H5        1.0  0.57863  0.08406  0.02339  1.0000 0.13920477
H   H6        1.0  0.57818  0.96379  0.01222  1.0000 0.1109266876
H   H7        1.0  0.56432  0.71039  0.98283  1.0000 0.1006499891
H   H8        1.0  0.56513  0.59065  0.97154  1.0000 0.1294006793
H   H9        1.0  0.59867  0.62482  0.83879  1.0000 0.13920477
H   H10       1.0  0.59460  0.74384  0.85354  1.0000 0.1006499891
H   H11       1.0  0.81593  0.13527  0.12553  1.0000 0.1589323191
H   H12       1.0  0.79028  0.44820  0.91456  1.0000 0.1589323191
H   H13       1.0  0.82669  0.93683  0.96303  1.0000 0.1109266876
H   H14       1.0  0.81914  0.05646  0.97306  1.0000 0.1294006793
H   H15       1.0  0.81355  0.01942  0.11377  1.0000 0.13920477
H   H16       1.0  0.82008  0.90123  0.09917  1.0000 0.1109266876
H   H17       1.0  0.79070  0.66217  0.06893  1.0000 0.1109266876
H   H18       1.0  0.78505  0.54118  0.06173  1.0000 0.13920477
H   H19       1.0  0.79873  0.56047  0.92211  1.0000 0.1294006793
H   H20       1.0  0.80570  0.68019  0.93366  1.0000 0.1109266876
H   H21       1.0  0.82197  0.76053  0.86678  1.0000 0.1214416625
H   H22       1.0  0.80428  0.72986  0.78188  1.0000 0.1109266876
H   H23       1.0  0.60234  0.83629  0.72962  1.0000 0.1109266876
H   H24       1.0  0.61981  0.86544  0.81439  1.0000 0.1294006793
H   H25       1.0  0.55803  0.70776  0.58257  1.0000 0.1109266876
H   H26       1.0  0.57264  0.74387  0.66538  1.0000 0.1006499891
H   H27       1.0  0.80161  0.76298  0.70337  1.0000 0.1109266876
H   H28       1.0  0.78678  0.72876  0.62020  1.0000 0.1294006793
H   H29       1.0  0.97832  0.74250  0.18247  1.0000 0.1214416625
H   H30       1.0  0.09495  0.70873  0.24793  1.0000 0.1109266876
H   H31       1.0  0.20097  0.72373  0.14761  1.0000 0.0884115497
H   H32       1.0  0.08497  0.75749  0.08245  1.0000 0.1214416625
H   H33       1.0  0.39550  0.61098  0.26540  1.0000 0.1214416625
H   H34       1.0  0.27689  0.63731  0.20097  1.0000 0.1006499891
H   H35       1.0  0.21491  0.73983  0.30442  1.0000 0.1006499891
H   H36       1.0  0.33304  0.71147  0.36966  1.0000 0.1109266876
H   H37       1.0  0.58957  0.30299  0.53270  1.0000 0.1737528514
H   H38       1.0  0.58743  0.99053  0.32610  1.0000 0.1589323191
H   H39       1.0  0.61913  0.51500  0.38551  1.0000 0.1109266876
H   H40       1.0  0.62295  0.39426  0.39368  1.0000 0.1294006793
H   H41       1.0  0.57863  0.41594  0.52339  1.0000 0.13920477
H   H42       1.0  0.57818  0.53621  0.51222  1.0000 0.1109266876
H   H43       1.0  0.56432  0.78961  0.48283  1.0000 0.1006499891
H   H44       1.0  0.56513  0.90935  0.47154  1.0000 0.1294006793
H   H45       1.0  0.59867  0.87518  0.33879  1.0000 0.13920477
H   H46       1.0  0.59460  0.75616  0.35354  1.0000 0.1006499891
H   H47       1.0  0.81593  0.36473  0.62553  1.0000 0.1589323191
H   H48       1.0  0.79028  0.05180  0.41456  1.0000 0.1589323191
H   H49       1.0  0.82669  0.56317  0.46303  1.0000 0.1109266876
H   H50       1.0  0.81914  0.44354  0.47306  1.0000 0.1294006793
H   H51       1.0  0.81355  0.48058  0.61377  1.0000 0.13920477
H   H52       1.0  0.82008  0.59877  0.59917  1.0000 0.1109266876
H   H53       1.0  0.79070  0.83783  0.56893  1.0000 0.1109266876
H   H54       1.0  0.78505  0.95882  0.56173  1.0000 0.13920477
H   H55       1.0  0.79873  0.93953  0.42211  1.0000 0.1294006793
H   H56       1.0  0.80570  0.81981  0.43366  1.0000 0.1109266876
H   H57       1.0  0.82197  0.73947  0.36678  1.0000 0.1214416625
H   H58       1.0  0.80428  0.77014  0.28188  1.0000 0.1109266876
H   H59       1.0  0.60234  0.66371  0.22962  1.0000 0.1109266876
H   H60       1.0  0.61981  0.63456  0.31439  1.0000 0.1294006793
H   H61       1.0  0.55803  0.79224  0.08257  1.0000 0.1109266876
H   H62       1.0  0.57264  0.75613  0.16538  1.0000 0.1006499891
H   H63       1.0  0.80161  0.73702  0.20337  1.0000 0.1109266876
H   H64       1.0  0.78678  0.77124  0.12020  1.0000 0.1294006793
H   H65       1.0  0.97832  0.75750  0.68247  1.0000 0.1214416625
H   H66       1.0  0.09495  0.79127  0.74793  1.0000 0.1109266876
H   H67       1.0  0.20097  0.77627  0.64761  1.0000 0.0884115497
H   H68       1.0  0.08497  0.74251  0.58245  1.0000 0.1214416625
H   H69       1.0  0.39550  0.88902  0.76540  1.0000 0.1214416625
H   H70       1.0  0.27689  0.86269  0.70097  1.0000 0.1006499891
H   H71       1.0  0.21491  0.76017  0.80442  1.0000 0.1006499891
H   H72       1.0  0.33304  0.78853  0.86966  1.0000 0.1109266876
H   H73       1.0  0.41043  0.69701  0.46730  1.0000 0.1737528514
H   H74       1.0  0.41257  0.00947  0.67390  1.0000 0.1589323191
H   H75       1.0  0.38087  0.48500  0.61449  1.0000 0.1109266876
H   H76       1.0  0.37705  0.60574  0.60632  1.0000 0.1294006793
H   H77       1.0  0.42137  0.58406  0.47661  1.0000 0.13920477
H   H78       1.0  0.42182  0.46379  0.48778  1.0000 0.1109266876
H   H79       1.0  0.43568  0.21039  0.51717  1.0000 0.1006499891
H   H80       1.0  0.43487  0.09065  0.52846  1.0000 0.1294006793
H   H81       1.0  0.40133  0.12482  0.66121  1.0000 0.13920477
H   H82       1.0  0.40540  0.24384  0.64646  1.0000 0.1006499891
H   H83       1.0  0.18407  0.63527  0.37447  1.0000 0.1589323191
H   H84       1.0  0.20972  0.94820  0.58544  1.0000 0.1589323191
H   H85       1.0  0.17331  0.43683  0.53697  1.0000 0.1109266876
H   H86       1.0  0.18086  0.55646  0.52694  1.0000 0.1294006793
H   H87       1.0  0.18645  0.51942  0.38623  1.0000 0.13920477
H   H88       1.0  0.17992  0.40123  0.40083  1.0000 0.1109266876
H   H89       1.0  0.20930  0.16217  0.43107  1.0000 0.1109266876
H   H90       1.0  0.21495  0.04118  0.43827  1.0000 0.13920477
H   H91       1.0  0.20127  0.06047  0.57789  1.0000 0.1294006793
H   H92       1.0  0.19430  0.18019  0.56634  1.0000 0.1109266876
H   H93       1.0  0.17803  0.26053  0.63322  1.0000 0.1214416625
H   H94       1.0  0.19572  0.22986  0.71812  1.0000 0.1109266876
H   H95       1.0  0.39766  0.33629  0.77038  1.0000 0.1109266876
H   H96       1.0  0.38019  0.36544  0.68561  1.0000 0.1294006793
H   H97       1.0  0.44197  0.20776  0.91743  1.0000 0.1109266876
H   H98       1.0  0.42736  0.24387  0.83462  1.0000 0.1006499891
H   H99       1.0  0.19839  0.26298  0.79663  1.0000 0.1109266876
H   H100      1.0  0.21322  0.22876  0.87980  1.0000 0.1294006793
H   H101      1.0  0.02168  0.24250  0.31753  1.0000 0.1214416625
H   H102      1.0  0.90505  0.20873  0.25207  1.0000 0.1109266876
H   H103      1.0  0.79903  0.22373  0.35239  1.0000 0.0884115497
H   H104      1.0  0.91503  0.25749  0.41755  1.0000 0.1214416625
H   H105      1.0  0.60450  0.11098  0.23460  1.0000 0.1214416625
H   H106      1.0  0.72311  0.13731  0.29903  1.0000 0.1006499891
H   H107      1.0  0.78509  0.23983  0.19558  1.0000 0.1006499891
H   H108      1.0  0.66696  0.21147  0.13034  1.0000 0.1109266876
H   H109      1.0  0.41043  0.80299  0.96730  1.0000 0.1737528514
H   H110      1.0  0.41257  0.49053  0.17390  1.0000 0.1589323191
H   H111      1.0  0.38087  0.01500  0.11449  1.0000 0.1109266876
H   H112      1.0  0.37705  0.89426  0.10632  1.0000 0.1294006793
H   H113      1.0  0.42137  0.91594  0.97661  1.0000 0.13920477
H   H114      1.0  0.42182  0.03621  0.98778  1.0000 0.1109266876
H   H115      1.0  0.43568  0.28961  0.01717  1.0000 0.1006499891
H   H116      1.0  0.43487  0.40935  0.02846  1.0000 0.1294006793
H   H117      1.0  0.40133  0.37518  0.16121  1.0000 0.13920477
H   H118      1.0  0.40540  0.25616  0.14646  1.0000 0.1006499891
H   H119      1.0  0.18407  0.86473  0.87447  1.0000 0.1589323191
H   H120      1.0  0.20972  0.55180  0.08544  1.0000 0.1589323191
H   H121      1.0  0.17331  0.06317  0.03697  1.0000 0.1109266876
H   H122      1.0  0.18086  0.94354  0.02694  1.0000 0.1294006793
H   H123      1.0  0.18645  0.98058  0.88623  1.0000 0.13920477
H   H124      1.0  0.17992  0.09877  0.90083  1.0000 0.1109266876
H   H125      1.0  0.20930  0.33783  0.93107  1.0000 0.1109266876
H   H126      1.0  0.21495  0.45882  0.93827  1.0000 0.13920477
H   H127      1.0  0.20127  0.43953  0.07789  1.0000 0.1294006793
H   H128      1.0  0.19430  0.31981  0.06634  1.0000 0.1109266876
H   H129      1.0  0.17803  0.23947  0.13322  1.0000 0.1214416625
H   H130      1.0  0.19572  0.27014  0.21812  1.0000 0.1109266876
H   H131      1.0  0.39766  0.16371  0.27038  1.0000 0.1109266876
H   H132      1.0  0.38019  0.13456  0.18561  1.0000 0.1294006793
H   H133      1.0  0.44197  0.29224  0.41743  1.0000 0.1109266876
H   H134      1.0  0.42736  0.25613  0.33462  1.0000 0.1006499891
H   H135      1.0  0.19839  0.23702  0.29663  1.0000 0.1109266876
H   H136      1.0  0.21322  0.27124  0.37980  1.0000 0.1294006793
H   H137      1.0  0.02168  0.25750  0.81753  1.0000 0.1214416625
H   H138      1.0  0.90505  0.29127  0.75207  1.0000 0.1109266876
H   H139      1.0  0.79903  0.27627  0.85239  1.0000 0.0884115497
H   H140      1.0  0.91503  0.24251  0.91755  1.0000 0.1214416625
H   H141      1.0  0.60450  0.38902  0.73460  1.0000 0.1214416625
H   H142      1.0  0.72311  0.36269  0.79903  1.0000 0.1006499891
H   H143      1.0  0.78509  0.26017  0.69558  1.0000 0.1006499891
H   H144      1.0  0.66696  0.28853  0.63034  1.0000 0.1109266876
C   C1        1.0  0.59897  0.18689  0.96425  1.0000 -0.010200162
C   C2        1.0  0.59283  0.22190  0.00403  1.0000 -0.2230147351
C   C3        1.0  0.59465  0.31997  0.94085  1.0000 -0.1165606514
C   C4        1.0  0.59104  0.38221  0.91744  1.0000 -0.1165606514
C   C5        1.0  0.58729  0.48316  0.85509  1.0000 -0.2367673893
C   C6        1.0  0.58475  0.51615  0.89675  1.0000 -0.010200162
C   C7        1.0  0.61072  0.00544  0.91402  1.0000 0.1006499891
C   C8        1.0  0.61263  0.07770  0.91853  1.0000 -0.2076786825
C   C9        1.0  0.59962  0.11002  0.95898  1.0000 0.1294006793
C   C10       1.0  0.58702  0.06515  0.99442  1.0000 -0.1976824779
C   C11       1.0  0.58674  0.99323  0.98734  1.0000 0.0884115497
C   C12       1.0  0.57166  0.69279  0.95316  1.0000 0.1006499891
C   C13       1.0  0.57208  0.62109  0.94658  1.0000 -0.2076786825
C   C14       1.0  0.58239  0.59261  0.90419  1.0000 0.1294006793
C   C15       1.0  0.59136  0.64095  0.86886  1.0000 -0.1976824779
C   C16       1.0  0.58951  0.71186  0.87831  1.0000 0.0801390927
C   C17       1.0  0.81129  0.12900  0.05289  1.0000 -0.010200162
C   C18       1.0  0.81093  0.16170  0.09543  1.0000 -0.2367673893
C   C19       1.0  0.79822  0.26280  0.03152  1.0000 -0.1112662728
C   C20       1.0  0.79497  0.32515  0.00887  1.0000 -0.0947027881
C   C21       1.0  0.79165  0.42340  0.94455  1.0000 -0.2367673893
C   C22       1.0  0.79253  0.45884  0.98623  1.0000 -0.010200162
C   C23       1.0  0.82375  0.95400  0.99425  1.0000 0.1006499891
C   C24       1.0  0.81980  0.02540  0.00000  1.0000 -0.2076786825
C   C25       1.0  0.81659  0.05246  0.04589  1.0000 0.1214416625
C   C26       1.0  0.81630  0.00400  0.08210  1.0000 -0.1888648648
C   C27       1.0  0.82013  0.93340  0.07303  1.0000 0.0884115497
C   C28       1.0  0.79370  0.64120  0.03880  1.0000 0.1006499891
C   C29       1.0  0.78991  0.56860  0.03461  1.0000 -0.2076786825
C   C30       1.0  0.79313  0.53553  0.99153  1.0000 0.1214416625
C   C31       1.0  0.79807  0.57990  0.95337  1.0000 -0.1976824779
C   C32       1.0  0.80212  0.65140  0.96052  1.0000 0.0801390927
C   C33       1.0  0.72194  0.81536  0.84883  1.0000 -0.0414230306
C   C34       1.0  0.77685  0.77550  0.83875  1.0000 -0.1112662728
C   C35       1.0  0.76650  0.75730  0.78830  1.0000 -0.1571452746
C   C36       1.0  0.70016  0.77940  0.74696  1.0000 0.0801390927
C   C37       1.0  0.64701  0.82010  0.75751  1.0000 -0.1519581288
C   C38       1.0  0.65739  0.83770  0.80799  1.0000 -0.1112662728
C   C39       1.0  0.67025  0.71405  0.59305  1.0000 -0.0317092337
C   C40       1.0  0.60795  0.71920  0.60715  1.0000 -0.1112662728
C   C41       1.0  0.61655  0.74060  0.65645  1.0000 -0.1519581288
C   C42       1.0  0.68923  0.75750  0.69313  1.0000 0.0801390927
C   C43       1.0  0.75162  0.75210  0.67872  1.0000 -0.1414262731
C   C44       1.0  0.74309  0.73130  0.62939  1.0000 -0.1112662728
C   C45       1.0  0.73116  0.82885  0.90408  1.0000 0.5572115701
C   C46       1.0  0.66165  0.69153  0.53965  1.0000 0.5523475926
C   C47       1.0  0.01975  0.75180  0.12605  1.0000 -0.0220215427
C   C48       1.0  0.02330  0.73820  0.17490  1.0000 -0.1013266374
C   C49       1.0  0.09320  0.71780  0.21400  1.0000 -0.1519581288
C   C50       1.0  0.15864  0.71060  0.20414  1.0000 0.0801390927
C   C51       1.0  0.15556  0.72660  0.15486  1.0000 -0.1571452746
C   C52       1.0  0.08655  0.74690  0.11615  1.0000 -0.1013266374
C   C53       1.0  0.37623  0.65870  0.32403  1.0000 -0.0220215427
C   C54       1.0  0.35877  0.63710  0.27387  1.0000 -0.1013266374
C   C55       1.0  0.28793  0.65310  0.23543  1.0000 -0.1571452746
C   C56       1.0  0.23368  0.69100  0.24578  1.0000 0.0884115497
C   C57       1.0  0.25146  0.71300  0.29616  1.0000 -0.1519581288
C   C58       1.0  0.32215  0.69640  0.33505  1.0000 -0.1112662728
C   C59       1.0  0.94517  0.77250  0.08417  1.0000 0.532625131
C   C60       1.0  0.45339  0.64607  0.36519  1.0000 0.532625131
C   C61       1.0  0.59897  0.31311  0.46425  1.0000 -0.010200162
C   C62       1.0  0.59283  0.27810  0.50403  1.0000 -0.2230147351
C   C63       1.0  0.59465  0.18003  0.44085  1.0000 -0.1165606514
C   C64       1.0  0.59104  0.11779  0.41744  1.0000 -0.1165606514
C   C65       1.0  0.58729  0.01684  0.35509  1.0000 -0.2367673893
C   C66       1.0  0.58475  0.98385  0.39675  1.0000 -0.010200162
C   C67       1.0  0.61072  0.49456  0.41402  1.0000 0.1006499891
C   C68       1.0  0.61263  0.42230  0.41853  1.0000 -0.2076786825
C   C69       1.0  0.59962  0.38998  0.45898  1.0000 0.1294006793
C   C70       1.0  0.58702  0.43485  0.49442  1.0000 -0.1976824779
C   C71       1.0  0.58674  0.50677  0.48734  1.0000 0.0884115497
C   C72       1.0  0.57166  0.80721  0.45316  1.0000 0.1006499891
C   C73       1.0  0.57208  0.87891  0.44658  1.0000 -0.2076786825
C   C74       1.0  0.58239  0.90739  0.40419  1.0000 0.1294006793
C   C75       1.0  0.59136  0.85905  0.36886  1.0000 -0.1976824779
C   C76       1.0  0.58951  0.78814  0.37831  1.0000 0.0801390927
C   C77       1.0  0.81129  0.37100  0.55289  1.0000 -0.010200162
C   C78       1.0  0.81093  0.33830  0.59543  1.0000 -0.2367673893
C   C79       1.0  0.79822  0.23720  0.53152  1.0000 -0.1112662728
C   C80       1.0  0.79497  0.17485  0.50887  1.0000 -0.0947027881
C   C81       1.0  0.79165  0.07660  0.44455  1.0000 -0.2367673893
C   C82       1.0  0.79253  0.04116  0.48623  1.0000 -0.010200162
C   C83       1.0  0.82375  0.54600  0.49425  1.0000 0.1006499891
C   C84       1.0  0.81980  0.47460  0.50000  1.0000 -0.2076786825
C   C85       1.0  0.81659  0.44754  0.54589  1.0000 0.1214416625
C   C86       1.0  0.81630  0.49600  0.58210  1.0000 -0.1888648648
C   C87       1.0  0.82013  0.56660  0.57303  1.0000 0.0884115497
C   C88       1.0  0.79370  0.85880  0.53880  1.0000 0.1006499891
C   C89       1.0  0.78991  0.93140  0.53461  1.0000 -0.2076786825
C   C90       1.0  0.79313  0.96447  0.49153  1.0000 0.1214416625
C   C91       1.0  0.79807  0.92010  0.45337  1.0000 -0.1976824779
C   C92       1.0  0.80212  0.84860  0.46052  1.0000 0.0801390927
C   C93       1.0  0.72194  0.68464  0.34883  1.0000 -0.0414230306
C   C94       1.0  0.77685  0.72450  0.33875  1.0000 -0.1112662728
C   C95       1.0  0.76650  0.74270  0.28830  1.0000 -0.1571452746
C   C96       1.0  0.70016  0.72060  0.24696  1.0000 0.0801390927
C   C97       1.0  0.64701  0.67990  0.25751  1.0000 -0.1519581288
C   C98       1.0  0.65739  0.66230  0.30799  1.0000 -0.1013266374
C   C99       1.0  0.67025  0.78595  0.09305  1.0000 -0.0317092337
C   C100      1.0  0.60795  0.78080  0.10715  1.0000 -0.1112662728
C   C101      1.0  0.61655  0.75940  0.15645  1.0000 -0.1519581288
C   C102      1.0  0.68923  0.74250  0.19313  1.0000 0.0801390927
C   C103      1.0  0.75162  0.74790  0.17872  1.0000 -0.1414262731
C   C104      1.0  0.74309  0.76870  0.12939  1.0000 -0.1112662728
C   C105      1.0  0.73116  0.67115  0.40408  1.0000 0.5572115701
C   C106      1.0  0.66165  0.80847  0.03965  1.0000 0.5523475926
C   C107      1.0  0.01975  0.74820  0.62605  1.0000 -0.0220215427
C   C108      1.0  0.02330  0.76180  0.67490  1.0000 -0.1013266374
C   C109      1.0  0.09320  0.78220  0.71400  1.0000 -0.1519581288
C   C110      1.0  0.15864  0.78940  0.70414  1.0000 0.0801390927
C   C111      1.0  0.15556  0.77340  0.65486  1.0000 -0.1571452746
C   C112      1.0  0.08655  0.75310  0.61615  1.0000 -0.1013266374
C   C113      1.0  0.37623  0.84130  0.82403  1.0000 -0.0220215427
C   C114      1.0  0.35877  0.86290  0.77387  1.0000 -0.1013266374
C   C115      1.0  0.28793  0.84690  0.73543  1.0000 -0.1571452746
C   C116      1.0  0.23368  0.80900  0.74578  1.0000 0.0884115497
C   C117      1.0  0.25146  0.78700  0.79616  1.0000 -0.1519581288
C   C118      1.0  0.32215  0.80360  0.83505  1.0000 -0.1112662728
C   C119      1.0  0.94517  0.72750  0.58417  1.0000 0.532625131
C   C120      1.0  0.45339  0.85393  0.86519  1.0000 0.532625131
C   C121      1.0  0.40103  0.68689  0.53575  1.0000 -0.010200162
C   C122      1.0  0.40717  0.72190  0.49597  1.0000 -0.2230147351
C   C123      1.0  0.40535  0.81997  0.55915  1.0000 -0.1165606514
C   C124      1.0  0.40896  0.88221  0.58256  1.0000 -0.1165606514
C   C125      1.0  0.41271  0.98316  0.64491  1.0000 -0.2367673893
C   C126      1.0  0.41525  0.01615  0.60325  1.0000 -0.010200162
C   C127      1.0  0.38928  0.50544  0.58598  1.0000 0.1006499891
C   C128      1.0  0.38737  0.57770  0.58147  1.0000 -0.2076786825
C   C129      1.0  0.40038  0.61002  0.54102  1.0000 0.1294006793
C   C130      1.0  0.41298  0.56515  0.50558  1.0000 -0.1976824779
C   C131      1.0  0.41326  0.49323  0.51266  1.0000 0.0884115497
C   C132      1.0  0.42834  0.19279  0.54684  1.0000 0.1006499891
C   C133      1.0  0.42792  0.12109  0.55342  1.0000 -0.2076786825
C   C134      1.0  0.41761  0.09261  0.59581  1.0000 0.1294006793
C   C135      1.0  0.40864  0.14095  0.63114  1.0000 -0.1976824779
C   C136      1.0  0.41049  0.21186  0.62169  1.0000 0.0801390927
C   C137      1.0  0.18871  0.62900  0.44711  1.0000 -0.010200162
C   C138      1.0  0.18907  0.66170  0.40457  1.0000 -0.2367673893
C   C139      1.0  0.20178  0.76280  0.46848  1.0000 -0.1112662728
C   C140      1.0  0.20503  0.82515  0.49113  1.0000 -0.0947027881
C   C141      1.0  0.20835  0.92340  0.55545  1.0000 -0.2367673893
C   C142      1.0  0.20747  0.95884  0.51377  1.0000 -0.010200162
C   C143      1.0  0.17625  0.45400  0.50575  1.0000 0.1006499891
C   C144      1.0  0.18020  0.52540  0.50000  1.0000 -0.2076786825
C   C145      1.0  0.18341  0.55246  0.45411  1.0000 0.1214416625
C   C146      1.0  0.18370  0.50400  0.41790  1.0000 -0.1888648648
C   C147      1.0  0.17987  0.43340  0.42697  1.0000 0.0884115497
C   C148      1.0  0.20630  0.14120  0.46120  1.0000 0.1006499891
C   C149      1.0  0.21009  0.06860  0.46539  1.0000 -0.2076786825
C   C150      1.0  0.20687  0.03553  0.50847  1.0000 0.1214416625
C   C151      1.0  0.20193  0.07990  0.54663  1.0000 -0.1976824779
C   C152      1.0  0.19788  0.15140  0.53948  1.0000 0.0801390927
C   C153      1.0  0.27806  0.31536  0.65117  1.0000 -0.0414230306
C   C154      1.0  0.22315  0.27550  0.66125  1.0000 -0.1112662728
C   C155      1.0  0.23350  0.25730  0.71170  1.0000 -0.1571452746
C   C156      1.0  0.29984  0.27940  0.75304  1.0000 0.0801390927
C   C157      1.0  0.35299  0.32010  0.74249  1.0000 -0.1519581288
C   C158      1.0  0.34261  0.33770  0.69201  1.0000 -0.1013266374
C   C159      1.0  0.32975  0.21405  0.90695  1.0000 -0.0317092337
C   C160      1.0  0.39205  0.21920  0.89285  1.0000 -0.1112662728
C   C161      1.0  0.38345  0.24060  0.84355  1.0000 -0.1519581288
C   C162      1.0  0.31077  0.25750  0.80687  1.0000 0.0801390927
C   C163      1.0  0.24838  0.25210  0.82128  1.0000 -0.1414262731
C   C164      1.0  0.25691  0.23130  0.87061  1.0000 -0.1112662728
C   C165      1.0  0.26884  0.32885  0.59592  1.0000 0.5572115701
C   C166      1.0  0.33835  0.19153  0.96035  1.0000 0.5523475926
C   C167      1.0  0.98025  0.25180  0.37395  1.0000 -0.0220215427
C   C168      1.0  0.97670  0.23820  0.32510  1.0000 -0.1013266374
C   C169      1.0  0.90680  0.21780  0.28600  1.0000 -0.1519581288
C   C170      1.0  0.84136  0.21060  0.29586  1.0000 0.0801390927
C   C171      1.0  0.84444  0.22660  0.34514  1.0000 -0.1571452746
C   C172      1.0  0.91345  0.24690  0.38385  1.0000 -0.1013266374
C   C173      1.0  0.62377  0.15870  0.17597  1.0000 -0.0220215427
C   C174      1.0  0.64123  0.13710  0.22613  1.0000 -0.1013266374
C   C175      1.0  0.71207  0.15310  0.26457  1.0000 -0.1571452746
C   C176      1.0  0.76632  0.19100  0.25422  1.0000 0.0884115497
C   C177      1.0  0.74854  0.21300  0.20384  1.0000 -0.1519581288
C   C178      1.0  0.67785  0.19640  0.16495  1.0000 -0.1112662728
C   C179      1.0  0.05483  0.27250  0.41583  1.0000 0.532625131
C   C180      1.0  0.54661  0.14607  0.13481  1.0000 0.532625131
C   C181      1.0  0.40103  0.81311  0.03575  1.0000 -0.010200162
C   C182      1.0  0.40717  0.77810  0.99597  1.0000 -0.2230147351
C   C183      1.0  0.40535  0.68003  0.05915  1.0000 -0.1165606514
C   C184      1.0  0.40896  0.61779  0.08256  1.0000 -0.1165606514
C   C185      1.0  0.41271  0.51684  0.14491  1.0000 -0.2367673893
C   C186      1.0  0.41525  0.48385  0.10325  1.0000 -0.010200162
C   C187      1.0  0.38928  0.99456  0.08598  1.0000 0.1006499891
C   C188      1.0  0.38737  0.92230  0.08147  1.0000 -0.2076786825
C   C189      1.0  0.40038  0.88998  0.04102  1.0000 0.1294006793
C   C190      1.0  0.41298  0.93485  0.00558  1.0000 -0.1976824779
C   C191      1.0  0.41326  0.00677  0.01266  1.0000 0.0884115497
C   C192      1.0  0.42834  0.30721  0.04684  1.0000 0.1006499891
C   C193      1.0  0.42792  0.37891  0.05342  1.0000 -0.2076786825
C   C194      1.0  0.41761  0.40739  0.09581  1.0000 0.1294006793
C   C195      1.0  0.40864  0.35905  0.13114  1.0000 -0.1976824779
C   C196      1.0  0.41049  0.28814  0.12169  1.0000 0.0801390927
C   C197      1.0  0.18871  0.87100  0.94711  1.0000 -0.010200162
C   C198      1.0  0.18907  0.83830  0.90457  1.0000 -0.2367673893
C   C199      1.0  0.20178  0.73720  0.96848  1.0000 -0.1112662728
C   C200      1.0  0.20503  0.67485  0.99113  1.0000 -0.0947027881
C   C201      1.0  0.20835  0.57660  0.05545  1.0000 -0.2367673893
C   C202      1.0  0.20747  0.54116  0.01377  1.0000 -0.010200162
C   C203      1.0  0.17625  0.04600  0.00575  1.0000 0.1006499891
C   C204      1.0  0.18020  0.97460  0.00000  1.0000 -0.2076786825
C   C205      1.0  0.18341  0.94754  0.95411  1.0000 0.1214416625
C   C206      1.0  0.18370  0.99600  0.91790  1.0000 -0.1888648648
C   C207      1.0  0.17987  0.06660  0.92697  1.0000 0.0884115497
C   C208      1.0  0.20630  0.35880  0.96120  1.0000 0.1006499891
C   C209      1.0  0.21009  0.43140  0.96539  1.0000 -0.2076786825
C   C210      1.0  0.20687  0.46447  0.00847  1.0000 0.1214416625
C   C211      1.0  0.20193  0.42010  0.04663  1.0000 -0.1976824779
C   C212      1.0  0.19788  0.34860  0.03948  1.0000 0.0801390927
C   C213      1.0  0.27806  0.18464  0.15117  1.0000 -0.0414230306
C   C214      1.0  0.22315  0.22450  0.16125  1.0000 -0.1112662728
C   C215      1.0  0.23350  0.24270  0.21170  1.0000 -0.1571452746
C   C216      1.0  0.29984  0.22060  0.25304  1.0000 0.0801390927
C   C217      1.0  0.35299  0.17990  0.24249  1.0000 -0.1519581288
C   C218      1.0  0.34261  0.16230  0.19201  1.0000 -0.1013266374
C   C219      1.0  0.32975  0.28595  0.40695  1.0000 -0.0317092337
C   C220      1.0  0.39205  0.28080  0.39285  1.0000 -0.1112662728
C   C221      1.0  0.38345  0.25940  0.34355  1.0000 -0.1519581288
C   C222      1.0  0.31077  0.24250  0.30687  1.0000 0.0801390927
C   C223      1.0  0.24838  0.24790  0.32128  1.0000 -0.1414262731
C   C224      1.0  0.25691  0.26870  0.37061  1.0000 -0.1112662728
C   C225      1.0  0.26884  0.17115  0.09592  1.0000 0.5572115701
C   C226      1.0  0.33835  0.30847  0.46035  1.0000 0.5523475926
C   C227      1.0  0.98025  0.24820  0.87395  1.0000 -0.0220215427
C   C228      1.0  0.97670  0.26180  0.82510  1.0000 -0.1013266374
C   C229      1.0  0.90680  0.28220  0.78600  1.0000 -0.1519581288
C   C230      1.0  0.84136  0.28940  0.79586  1.0000 0.0801390927
C   C231      1.0  0.84444  0.27340  0.84514  1.0000 -0.1571452746
C   C232      1.0  0.91345  0.25310  0.88385  1.0000 -0.1013266374
C   C233      1.0  0.62377  0.34130  0.67597  1.0000 -0.0220215427
C   C234      1.0  0.64123  0.36290  0.72613  1.0000 -0.1013266374
C   C235      1.0  0.71207  0.34690  0.76457  1.0000 -0.1571452746
C   C236      1.0  0.76632  0.30900  0.75422  1.0000 0.0884115497
C   C237      1.0  0.74854  0.28700  0.70384  1.0000 -0.1519581288
C   C238      1.0  0.67785  0.30360  0.66495  1.0000 -0.1112662728
C   C239      1.0  0.05483  0.22750  0.91583  1.0000 0.532625131
C   C240      1.0  0.54661  0.35393  0.63481  1.0000 0.532625131
S   S1        1.0  0.60333  0.23889  0.91296  1.0000 0.0407549416
S   S2        1.0  0.59096  0.31280  0.00270  1.0000 0.1214416625
S   S3        1.0  0.59044  0.39182  0.85464  1.0000 0.1109266876
S   S4        1.0  0.58520  0.46197  0.94791  1.0000 0.0511031892
S   S5        1.0  0.80233  0.18342  0.99994  1.0000 0.0511031892
S   S6        1.0  0.80137  0.25196  0.09484  1.0000 0.13920477
S   S7        1.0  0.79303  0.33251  0.94564  1.0000 0.1294006793
S   S8        1.0  0.79255  0.40649  0.03854  1.0000 0.0407549416
S   S9        1.0  0.60333  0.26111  0.41296  1.0000 0.0407549416
S   S10       1.0  0.59096  0.18720  0.50270  1.0000 0.1214416625
S   S11       1.0  0.59044  0.10818  0.35464  1.0000 0.1109266876
S   S12       1.0  0.58520  0.03803  0.44791  1.0000 0.0511031892
S   S13       1.0  0.80233  0.31658  0.49994  1.0000 0.0511031892
S   S14       1.0  0.80137  0.24804  0.59484  1.0000 0.13920477
S   S15       1.0  0.79303  0.16749  0.44564  1.0000 0.1294006793
S   S16       1.0  0.79255  0.09351  0.53854  1.0000 0.0407549416
S   S17       1.0  0.39667  0.73889  0.58704  1.0000 0.0407549416
S   S18       1.0  0.40904  0.81280  0.49730  1.0000 0.1214416625
S   S19       1.0  0.40956  0.89182  0.64536  1.0000 0.1109266876
S   S20       1.0  0.41480  0.96197  0.55209  1.0000 0.0511031892
S   S21       1.0  0.19767  0.68342  0.50006  1.0000 0.0511031892
S   S22       1.0  0.19863  0.75196  0.40516  1.0000 0.13920477
S   S23       1.0  0.20697  0.83251  0.55436  1.0000 0.1294006793
S   S24       1.0  0.20745  0.90649  0.46146  1.0000 0.0407549416
S   S25       1.0  0.39667  0.76111  0.08704  1.0000 0.0407549416
S   S26       1.0  0.40904  0.68720  0.99730  1.0000 0.1214416625
S   S27       1.0  0.40956  0.60818  0.14536  1.0000 0.1109266876
S   S28       1.0  0.41480  0.53803  0.05209  1.0000 0.0511031892
S   S29       1.0  0.19767  0.81658  0.00006  1.0000 0.0511031892
S   S30       1.0  0.19863  0.74804  0.90516  1.0000 0.13920477
S   S31       1.0  0.20697  0.66749  0.05436  1.0000 0.1294006793
S   S32       1.0  0.20745  0.59351  0.96146  1.0000 0.0346024219
N   N1        1.0  0.59764  0.96240  0.94791  1.0000 -0.2289034691
N   N2        1.0  0.58114  0.73893  0.92020  1.0000 -0.2367673893
N   N3        1.0  0.82375  0.90705  0.02973  1.0000 -0.2289034691
N   N4        1.0  0.80116  0.68308  0.00306  1.0000 -0.2230147351
N   N5        1.0  0.59764  0.53760  0.44791  1.0000 -0.2289034691
N   N6        1.0  0.58114  0.76107  0.42020  1.0000 -0.2367673893
N   N7        1.0  0.82375  0.59295  0.52973  1.0000 -0.2289034691
N   N8        1.0  0.80116  0.81692  0.50306  1.0000 -0.2230147351
N   N9        1.0  0.40236  0.46240  0.55209  1.0000 -0.2289034691
N   N10       1.0  0.41886  0.23893  0.57980  1.0000 -0.2367673893
N   N11       1.0  0.17625  0.40705  0.47027  1.0000 -0.2289034691
N   N12       1.0  0.19884  0.18308  0.49694  1.0000 -0.2230147351
N   N13       1.0  0.40236  0.03760  0.05209  1.0000 -0.2289034691
N   N14       1.0  0.41886  0.26107  0.07980  1.0000 -0.2367673893
N   N15       1.0  0.17625  0.09295  0.97027  1.0000 -0.2289034691
N   N16       1.0  0.19884  0.31692  0.99694  1.0000 -0.2230147351
O   O1        1.0  0.67841  0.86005  0.91204  1.0000 -0.550018825
O   O2        1.0  0.79313  0.80733  0.93905  1.0000 -0.5423715491
O   O3        1.0  0.59879  0.66441  0.51064  1.0000 -0.5321517417
O   O4        1.0  0.71558  0.70327  0.52510  1.0000 -0.5684179146
O   O5        1.0  0.94042  0.78236  0.03812  1.0000 -0.5321517417
O   O6        1.0  0.88660  0.77775  0.09520  1.0000 -0.550018825
O   O7        1.0  0.50962  0.63152  0.35318  1.0000 -0.5321517417
O   O8        1.0  0.46245  0.65241  0.41245  1.0000 -0.5423715491
O   O9        1.0  0.67841  0.63995  0.41204  1.0000 -0.550018825
O   O10       1.0  0.79313  0.69267  0.43905  1.0000 -0.5423715491
O   O11       1.0  0.59879  0.83559  0.01064  1.0000 -0.5321517417
O   O12       1.0  0.71558  0.79673  0.02510  1.0000 -0.5684179146
O   O13       1.0  0.94042  0.71764  0.53812  1.0000 -0.5321517417
O   O14       1.0  0.88660  0.72225  0.59520  1.0000 -0.550018825
O   O15       1.0  0.50962  0.86848  0.85318  1.0000 -0.5321517417
O   O16       1.0  0.46245  0.84759  0.91245  1.0000 -0.5423715491
O   O17       1.0  0.32159  0.36005  0.58796  1.0000 -0.550018825
O   O18       1.0  0.20687  0.30733  0.56095  1.0000 -0.5423715491
O   O19       1.0  0.40121  0.16441  0.98936  1.0000 -0.5321517417
O   O20       1.0  0.28442  0.20327  0.97490  1.0000 -0.5684179146
O   O21       1.0  0.05958  0.28236  0.46188  1.0000 -0.5321517417
O   O22       1.0  0.11340  0.27775  0.40480  1.0000 -0.550018825
O   O23       1.0  0.49038  0.13152  0.14682  1.0000 -0.5321517417
O   O24       1.0  0.53755  0.15241  0.08755  1.0000 -0.5423715491
O   O25       1.0  0.32159  0.13995  0.08796  1.0000 -0.550018825
O   O26       1.0  0.20687  0.19267  0.06095  1.0000 -0.5423715491
O   O27       1.0  0.40121  0.33559  0.48936  1.0000 -0.5321517417
O   O28       1.0  0.28442  0.29673  0.47490  1.0000 -0.5684179146
O   O29       1.0  0.05958  0.21764  0.96188  1.0000 -0.5321517417
O   O30       1.0  0.11340  0.22225  0.90480  1.0000 -0.550018825
O   O31       1.0  0.49038  0.36848  0.64682  1.0000 -0.5321517417
O   O32       1.0  0.53755  0.34759  0.58755  1.0000 -0.5423715491
