# DDEC6 charges by PACMAN v1.1 (https://github.com/mtap-research/PACMAN-charge/)
data_2021[Zn][nan]3[ASR]15
_chemical_formula_sum              "Zn10 H36 C92 O48"
_cell_length_a       19.8532
_cell_length_b       19.8532
_cell_length_c       19.8532
_cell_angle_alpha    122.827
_cell_angle_beta     122.827
_cell_angle_gamma    85.1703

_symmetry_space_group_name_H-M    "P 1"
_symmetry_Int_Tables_number       1

loop_
  _symmetry_equiv_pos_as_xyz
  'x, y, z'

loop_
  _atom_site_type_symbol
  _atom_site_label
  _atom_site_symmetry_multiplicity
  _atom_site_fract_x
  _atom_site_fract_y
  _atom_site_fract_z
  _atom_site_occupancy
  _atom_site_charge
Zn  Zn1       1.0  0.42458  0.42458  0.42442  1.0000 0.9420161386
Zn  Zn2       1.0  0.00016  0.00016  0.57558  1.0000 0.9420161386
Zn  Zn3       1.0  0.42458  0.00016  0.00000  1.0000 0.9420161386
Zn  Zn4       1.0  0.00016  0.42458  0.00000  1.0000 0.9420161386
Zn  Zn5       1.0  0.99984  0.57542  0.00000  1.0000 0.9420161386
Zn  Zn6       1.0  0.57542  0.99984  0.00000  1.0000 0.9420161386
Zn  Zn7       1.0  0.99984  0.99984  0.42442  1.0000 0.9420161386
Zn  Zn8       1.0  0.57542  0.57542  0.57558  1.0000 0.9420161386
Zn  Zn9       1.0  0.55101  0.55101  0.00000  1.0000 0.9420161386
Zn  Zn10      1.0  0.44899  0.44899  0.00000  1.0000 0.9420161386
H   H1        1.0  0.47640  0.69870  0.43170  1.0000 0.1469764964
H   H2        1.0  0.26700  0.04470  0.56830  1.0000 0.1469764964
H   H3        1.0  0.69870  0.26700  0.22230  1.0000 0.1469764964
H   H4        1.0  0.04470  0.47640  0.77770  1.0000 0.1469764964
H   H5        1.0  0.73300  0.30130  0.77770  1.0000 0.1469764964
H   H6        1.0  0.52360  0.95530  0.22230  1.0000 0.1469764964
H   H7        1.0  0.95530  0.73300  0.43170  1.0000 0.1469764964
H   H8        1.0  0.30130  0.52360  0.56830  1.0000 0.1469764964
H   H9        1.0  0.52360  0.30130  0.56830  1.0000 0.1469764964
H   H10       1.0  0.73300  0.95530  0.43170  1.0000 0.1469764964
H   H11       1.0  0.30130  0.73300  0.77770  1.0000 0.1469764964
H   H12       1.0  0.95530  0.52360  0.22230  1.0000 0.1469764964
H   H13       1.0  0.26700  0.69870  0.22230  1.0000 0.1469764964
H   H14       1.0  0.47640  0.04470  0.77770  1.0000 0.1469764964
H   H15       1.0  0.04470  0.26700  0.56830  1.0000 0.1469764964
H   H16       1.0  0.69870  0.47640  0.43170  1.0000 0.1469764964
H   H17       1.0  0.26460  0.51330  0.24870  1.0000 0.1396923319
H   H18       1.0  0.43120  0.65640  0.22520  1.0000 0.1396923319
H   H19       1.0  0.26460  0.01590  0.75130  1.0000 0.1396923319
H   H20       1.0  0.43120  0.20600  0.77480  1.0000 0.1396923319
H   H21       1.0  0.51330  0.26460  0.24870  1.0000 0.1396923319
H   H22       1.0  0.65640  0.43120  0.22520  1.0000 0.1396923319
H   H23       1.0  0.01590  0.26460  0.75130  1.0000 0.1396923319
H   H24       1.0  0.20600  0.43120  0.77480  1.0000 0.1396923319
H   H25       1.0  0.73540  0.48670  0.75130  1.0000 0.1396923319
H   H26       1.0  0.56880  0.34360  0.77480  1.0000 0.1396923319
H   H27       1.0  0.73540  0.98410  0.24870  1.0000 0.1396923319
H   H28       1.0  0.56880  0.79400  0.22520  1.0000 0.1396923319
H   H29       1.0  0.98410  0.73540  0.24870  1.0000 0.1396923319
H   H30       1.0  0.79400  0.56880  0.22520  1.0000 0.1396923319
H   H31       1.0  0.48670  0.73540  0.75130  1.0000 0.1396923319
H   H32       1.0  0.34360  0.56880  0.77480  1.0000 0.1396923319
H   H33       1.0  0.50000  0.90790  0.40790  1.0000 0.156602775
H   H34       1.0  0.50000  0.09210  0.59210  1.0000 0.156602775
H   H35       1.0  0.90790  0.50000  0.40790  1.0000 0.156602775
H   H36       1.0  0.09210  0.50000  0.59210  1.0000 0.156602775
C   C1        1.0  0.42292  0.55992  0.40300  1.0000 0.5975370382
C   C2        1.0  0.37709  0.59846  0.34707  1.0000 -0.0097230763
C   C3        1.0  0.41982  0.67302  0.37820  1.0000 -0.1873318233
C   C4        1.0  0.15692  0.01992  0.59700  1.0000 0.5975370382
C   C5        1.0  0.25139  0.03002  0.65293  1.0000 -0.0097230763
C   C6        1.0  0.29482  0.04162  0.62180  1.0000 -0.1873318233
C   C7        1.0  0.55992  0.15692  0.13700  1.0000 0.5975370382
C   C8        1.0  0.59846  0.25139  0.22137  1.0000 -0.0097230763
C   C9        1.0  0.67302  0.29482  0.25320  1.0000 -0.1873318233
C   C10       1.0  0.01992  0.42292  0.86300  1.0000 0.5975370382
C   C11       1.0  0.03002  0.37709  0.77863  1.0000 -0.0097230763
C   C12       1.0  0.04162  0.41982  0.74680  1.0000 -0.1873318233
C   C13       1.0  0.84308  0.44008  0.86300  1.0000 0.5975370382
C   C14       1.0  0.74861  0.40154  0.77863  1.0000 -0.0097230763
C   C15       1.0  0.70518  0.32698  0.74680  1.0000 -0.1873318233
C   C16       1.0  0.57708  0.98008  0.13700  1.0000 0.5975370382
C   C17       1.0  0.62291  0.96998  0.22137  1.0000 -0.0097230763
C   C18       1.0  0.58018  0.95838  0.25320  1.0000 -0.1873318233
C   C19       1.0  0.98008  0.84308  0.40300  1.0000 0.5975370382
C   C20       1.0  0.96998  0.74861  0.34707  1.0000 -0.0097230763
C   C21       1.0  0.95838  0.70518  0.37820  1.0000 -0.1873318233
C   C22       1.0  0.44008  0.57708  0.59700  1.0000 0.5975370382
C   C23       1.0  0.40154  0.62291  0.65293  1.0000 -0.0097230763
C   C24       1.0  0.32698  0.58018  0.62180  1.0000 -0.1873318233
C   C25       1.0  0.57708  0.44008  0.59700  1.0000 0.5975370382
C   C26       1.0  0.62291  0.40154  0.65293  1.0000 -0.0097230763
C   C27       1.0  0.58018  0.32698  0.62180  1.0000 -0.1873318233
C   C28       1.0  0.84308  0.98008  0.40300  1.0000 0.5975370382
C   C29       1.0  0.74861  0.96998  0.34707  1.0000 -0.0097230763
C   C30       1.0  0.70518  0.95838  0.37820  1.0000 -0.1873318233
C   C31       1.0  0.44008  0.84308  0.86300  1.0000 0.5975370382
C   C32       1.0  0.40154  0.74861  0.77863  1.0000 -0.0097230763
C   C33       1.0  0.32698  0.70518  0.74680  1.0000 -0.1873318233
C   C34       1.0  0.98008  0.57708  0.13700  1.0000 0.5975370382
C   C35       1.0  0.96998  0.62291  0.22137  1.0000 -0.0097230763
C   C36       1.0  0.95838  0.58018  0.25320  1.0000 -0.1873318233
C   C37       1.0  0.15692  0.55992  0.13700  1.0000 0.5975370382
C   C38       1.0  0.25139  0.59846  0.22137  1.0000 -0.0097230763
C   C39       1.0  0.29482  0.67302  0.25320  1.0000 -0.1873318233
C   C40       1.0  0.42292  0.01992  0.86300  1.0000 0.5975370382
C   C41       1.0  0.37709  0.03002  0.77863  1.0000 -0.0097230763
C   C42       1.0  0.41982  0.04162  0.74680  1.0000 -0.1873318233
C   C43       1.0  0.01992  0.15692  0.59700  1.0000 0.5975370382
C   C44       1.0  0.03002  0.25139  0.65293  1.0000 -0.0097230763
C   C45       1.0  0.04162  0.29482  0.62180  1.0000 -0.1873318233
C   C46       1.0  0.55992  0.42292  0.40300  1.0000 0.5975370382
C   C47       1.0  0.59846  0.37709  0.34707  1.0000 -0.0097230763
C   C48       1.0  0.67302  0.41982  0.37820  1.0000 -0.1873318233
C   C49       1.0  0.29341  0.56271  0.26930  1.0000 -0.107906873
C   C50       1.0  0.37820  0.70800  0.32980  1.0000 0.211885949
C   C51       1.0  0.45940  0.78300  0.32360  1.0000 0.2743355234
C   C52       1.0  0.45885  0.70835  0.24950  1.0000 -0.2398859008
C   C53       1.0  0.29341  0.02411  0.73070  1.0000 -0.107906873
C   C54       1.0  0.37820  0.04840  0.67020  1.0000 0.211885949
C   C55       1.0  0.45940  0.13580  0.67640  1.0000 0.2743355234
C   C56       1.0  0.45885  0.20935  0.75050  1.0000 -0.2398859008
C   C57       1.0  0.56271  0.29341  0.26930  1.0000 -0.107906873
C   C58       1.0  0.70800  0.37820  0.32980  1.0000 0.211885949
C   C59       1.0  0.78300  0.45940  0.32360  1.0000 0.2743355234
C   C60       1.0  0.70835  0.45885  0.24950  1.0000 -0.2398859008
C   C61       1.0  0.02411  0.29341  0.73070  1.0000 -0.107906873
C   C62       1.0  0.04840  0.37820  0.67020  1.0000 0.211885949
C   C63       1.0  0.13580  0.45940  0.67640  1.0000 0.2743355234
C   C64       1.0  0.20935  0.45885  0.75050  1.0000 -0.2398859008
C   C65       1.0  0.70659  0.43729  0.73070  1.0000 -0.107906873
C   C66       1.0  0.62180  0.29200  0.67020  1.0000 0.211885949
C   C67       1.0  0.54060  0.21700  0.67640  1.0000 0.2743355234
C   C68       1.0  0.54115  0.29165  0.75050  1.0000 -0.2398859008
C   C69       1.0  0.70659  0.97589  0.26930  1.0000 -0.107906873
C   C70       1.0  0.62180  0.95160  0.32980  1.0000 0.211885949
C   C71       1.0  0.54060  0.86420  0.32360  1.0000 0.2743355234
C   C72       1.0  0.54115  0.79065  0.24950  1.0000 -0.2398859008
C   C73       1.0  0.97589  0.70659  0.26930  1.0000 -0.107906873
C   C74       1.0  0.95160  0.62180  0.32980  1.0000 0.211885949
C   C75       1.0  0.86420  0.54060  0.32360  1.0000 0.2743355234
C   C76       1.0  0.79065  0.54115  0.24950  1.0000 -0.2398859008
C   C77       1.0  0.43729  0.70659  0.73070  1.0000 -0.107906873
C   C78       1.0  0.29200  0.62180  0.67020  1.0000 0.211885949
C   C79       1.0  0.21700  0.54060  0.67640  1.0000 0.2743355234
C   C80       1.0  0.29165  0.54115  0.75050  1.0000 -0.2398859008
C   C81       1.0  0.50000  0.85900  0.35900  1.0000 -0.3036927084
C   C82       1.0  0.50000  0.71330  0.21330  1.0000 0.0120829812
C   C83       1.0  0.50000  0.63510  0.13510  1.0000 0.589839076
C   C84       1.0  0.50000  0.14100  0.64100  1.0000 -0.3036927084
C   C85       1.0  0.50000  0.28670  0.78670  1.0000 0.0120829812
C   C86       1.0  0.50000  0.36490  0.86490  1.0000 0.589839076
C   C87       1.0  0.85900  0.50000  0.35900  1.0000 -0.3036927084
C   C88       1.0  0.71330  0.50000  0.21330  1.0000 0.0120829812
C   C89       1.0  0.63510  0.50000  0.13510  1.0000 0.589839076
C   C90       1.0  0.14100  0.50000  0.64100  1.0000 -0.3036927084
C   C91       1.0  0.28670  0.50000  0.78670  1.0000 0.0120829812
C   C92       1.0  0.36490  0.50000  0.86490  1.0000 0.589839076
O   O1        1.0  0.38325  0.48991  0.36658  1.0000 -0.5331132341
O   O2        1.0  0.49667  0.60154  0.47885  1.0000 -0.5461174349
O   O3        1.0  0.12333  0.01667  0.63342  1.0000 -0.5372673075
O   O4        1.0  0.12269  0.01782  0.52115  1.0000 -0.5461174349
O   O5        1.0  0.48991  0.12333  0.10666  1.0000 -0.5331132341
O   O6        1.0  0.60154  0.12269  0.10487  1.0000 -0.5461174349
O   O7        1.0  0.01667  0.38325  0.89334  1.0000 -0.5372673075
O   O8        1.0  0.01782  0.49667  0.89513  1.0000 -0.5461174349
O   O9        1.0  0.87667  0.51009  0.89334  1.0000 -0.5372673075
O   O10       1.0  0.87731  0.39846  0.89513  1.0000 -0.5461174349
O   O11       1.0  0.61675  0.98333  0.10666  1.0000 -0.5331132341
O   O12       1.0  0.50333  0.98218  0.10487  1.0000 -0.5461174349
O   O13       1.0  0.98333  0.87667  0.36658  1.0000 -0.5331132341
O   O14       1.0  0.98218  0.87731  0.47885  1.0000 -0.5461174349
O   O15       1.0  0.51009  0.61675  0.63342  1.0000 -0.5372673075
O   O16       1.0  0.39846  0.50333  0.52115  1.0000 -0.5461174349
O   O17       1.0  0.61675  0.51009  0.63342  1.0000 -0.5372673075
O   O18       1.0  0.50333  0.39846  0.52115  1.0000 -0.5372673075
O   O19       1.0  0.87667  0.98333  0.36658  1.0000 -0.5331132341
O   O20       1.0  0.87731  0.98218  0.47885  1.0000 -0.5461174349
O   O21       1.0  0.51009  0.87667  0.89334  1.0000 -0.5372673075
O   O22       1.0  0.39846  0.87731  0.89513  1.0000 -0.5461174349
O   O23       1.0  0.98333  0.61675  0.10666  1.0000 -0.5372673075
O   O24       1.0  0.98218  0.50333  0.10487  1.0000 -0.5372673075
O   O25       1.0  0.12333  0.48991  0.10666  1.0000 -0.5331132341
O   O26       1.0  0.12269  0.60154  0.10487  1.0000 -0.5461174349
O   O27       1.0  0.38325  0.01667  0.89334  1.0000 -0.5372673075
O   O28       1.0  0.49667  0.01782  0.89513  1.0000 -0.5461174349
O   O29       1.0  0.01667  0.12333  0.63342  1.0000 -0.5331132341
O   O30       1.0  0.01782  0.12269  0.52115  1.0000 -0.5461174349
O   O31       1.0  0.48991  0.38325  0.36658  1.0000 -0.5372673075
O   O32       1.0  0.60154  0.49667  0.47885  1.0000 -0.5372673075
O   O33       1.0  0.42085  0.78466  0.36381  1.0000 -0.2117335598
O   O34       1.0  0.53824  0.64350  0.10526  1.0000 -0.5461174349
O   O35       1.0  0.42085  0.05704  0.63619  1.0000 -0.2117335598
O   O36       1.0  0.53824  0.43298  0.89474  1.0000 -0.5461174349
O   O37       1.0  0.78466  0.42085  0.36381  1.0000 -0.2117335598
O   O38       1.0  0.64350  0.53824  0.10526  1.0000 -0.5461174349
O   O39       1.0  0.05704  0.42085  0.63619  1.0000 -0.2117335598
O   O40       1.0  0.43298  0.53824  0.89474  1.0000 -0.5461174349
O   O41       1.0  0.57915  0.21534  0.63619  1.0000 -0.2117335598
O   O42       1.0  0.46176  0.35650  0.89474  1.0000 -0.5461174349
O   O43       1.0  0.57915  0.94296  0.36381  1.0000 -0.2117335598
O   O44       1.0  0.46176  0.56702  0.10526  1.0000 -0.5461174349
O   O45       1.0  0.94296  0.57915  0.36381  1.0000 -0.2117335598
O   O46       1.0  0.56702  0.46176  0.10526  1.0000 -0.5461174349
O   O47       1.0  0.21534  0.57915  0.63619  1.0000 -0.2117335598
O   O48       1.0  0.35650  0.46176  0.89474  1.0000 -0.5461174349
