# DDEC6 charges by PACMAN v1.1 (https://github.com/mtap-research/PACMAN-charge/)
data_2021[Sc][acs]3[ASR]2
_chemical_formula_sum              "Sc6 H96 C168 O26"
_cell_length_a       14.4443
_cell_length_b       14.4443
_cell_length_c       29.6629
_cell_angle_alpha    90
_cell_angle_beta     90
_cell_angle_gamma    120

_symmetry_space_group_name_H-M    "P 1"
_symmetry_Int_Tables_number       1

loop_
  _symmetry_equiv_pos_as_xyz
  'x, y, z'

loop_
  _atom_site_type_symbol
  _atom_site_label
  _atom_site_symmetry_multiplicity
  _atom_site_fract_x
  _atom_site_fract_y
  _atom_site_fract_z
  _atom_site_occupancy
  _atom_site_charge
Sc  Sc1       1.0  0.86072  0.86072  0.25000  1.0000 1.8035186682
Sc  Sc2       1.0  0.00000  0.13928  0.25000  1.0000 1.8035186682
Sc  Sc3       1.0  0.13928  0.00000  0.25000  1.0000 1.8035186682
Sc  Sc4       1.0  0.13928  0.13928  0.75000  1.0000 1.8035186682
Sc  Sc5       1.0  0.00000  0.86072  0.75000  1.0000 1.8035186682
Sc  Sc6       1.0  0.86072  0.00000  0.75000  1.0000 1.8035186682
H   H1        1.0  0.83909  0.66625  0.36249  1.0000 0.1113591403
H   H2        1.0  0.83875  0.55349  0.41921  1.0000 0.1230663866
H   H3        1.0  0.82716  0.16091  0.36249  1.0000 0.1113591403
H   H4        1.0  0.71474  0.16125  0.41921  1.0000 0.1230663866
H   H5        1.0  0.33375  0.17284  0.36249  1.0000 0.1113591403
H   H6        1.0  0.44651  0.28526  0.41921  1.0000 0.1230663866
H   H7        1.0  0.16091  0.33375  0.86249  1.0000 0.1113591403
H   H8        1.0  0.16125  0.44651  0.91921  1.0000 0.1230663866
H   H9        1.0  0.17284  0.83909  0.86249  1.0000 0.1113591403
H   H10       1.0  0.28526  0.83875  0.91921  1.0000 0.1230663866
H   H11       1.0  0.66625  0.82716  0.86249  1.0000 0.1113591403
H   H12       1.0  0.55349  0.71474  0.91921  1.0000 0.1230663866
H   H13       1.0  0.17284  0.33375  0.13751  1.0000 0.1113591403
H   H14       1.0  0.28526  0.44651  0.08079  1.0000 0.1230663866
H   H15       1.0  0.66625  0.83909  0.13751  1.0000 0.1113591403
H   H16       1.0  0.55349  0.83875  0.08079  1.0000 0.1230663866
H   H17       1.0  0.16091  0.82716  0.13751  1.0000 0.1113591403
H   H18       1.0  0.16125  0.71474  0.08079  1.0000 0.1230663866
H   H19       1.0  0.82716  0.66625  0.63751  1.0000 0.1113591403
H   H20       1.0  0.71474  0.55349  0.58079  1.0000 0.1230663866
H   H21       1.0  0.33375  0.16091  0.63751  1.0000 0.1113591403
H   H22       1.0  0.44651  0.16125  0.58079  1.0000 0.1230663866
H   H23       1.0  0.83909  0.17284  0.63751  1.0000 0.1113591403
H   H24       1.0  0.83875  0.28526  0.58079  1.0000 0.1230663866
H   H25       1.0  0.16091  0.33375  0.63751  1.0000 0.1113591403
H   H26       1.0  0.16125  0.44651  0.58079  1.0000 0.1230663866
H   H27       1.0  0.17284  0.83909  0.63751  1.0000 0.1113591403
H   H28       1.0  0.28526  0.83875  0.58079  1.0000 0.1230663866
H   H29       1.0  0.66625  0.82716  0.63751  1.0000 0.1113591403
H   H30       1.0  0.55349  0.71474  0.58079  1.0000 0.1230663866
H   H31       1.0  0.83909  0.66625  0.13751  1.0000 0.1113591403
H   H32       1.0  0.83875  0.55349  0.08079  1.0000 0.1230663866
H   H33       1.0  0.82716  0.16091  0.13751  1.0000 0.1113591403
H   H34       1.0  0.71474  0.16125  0.08079  1.0000 0.1230663866
H   H35       1.0  0.33375  0.17284  0.13751  1.0000 0.1113591403
H   H36       1.0  0.44651  0.28526  0.08079  1.0000 0.1230663866
H   H37       1.0  0.82716  0.66625  0.86249  1.0000 0.1113591403
H   H38       1.0  0.71474  0.55349  0.91921  1.0000 0.1230663866
H   H39       1.0  0.33375  0.16091  0.86249  1.0000 0.1113591403
H   H40       1.0  0.44651  0.16125  0.91921  1.0000 0.1230663866
H   H41       1.0  0.83909  0.17284  0.86249  1.0000 0.1113591403
H   H42       1.0  0.83875  0.28526  0.91921  1.0000 0.1230663866
H   H43       1.0  0.17284  0.33375  0.36249  1.0000 0.1113591403
H   H44       1.0  0.28526  0.44651  0.41921  1.0000 0.1230663866
H   H45       1.0  0.66625  0.83909  0.36249  1.0000 0.1113591403
H   H46       1.0  0.55349  0.83875  0.41921  1.0000 0.1230663866
H   H47       1.0  0.16091  0.82716  0.36249  1.0000 0.1113591403
H   H48       1.0  0.16125  0.71474  0.41921  1.0000 0.1230663866
H   H49       1.0  0.00000  0.47457  0.38763  1.0000 0.1113591403
H   H50       1.0  0.00000  0.73070  0.49105  1.0000 0.1113591403
H   H51       1.0  0.00000  0.31581  0.37464  1.0000 0.1113591403
H   H52       1.0  0.00000  0.78749  0.56477  1.0000 0.1113591403
H   H53       1.0  0.47457  0.00000  0.38763  1.0000 0.1113591403
H   H54       1.0  0.73070  0.00000  0.49105  1.0000 0.1113591403
H   H55       1.0  0.31581  0.00000  0.37464  1.0000 0.1113591403
H   H56       1.0  0.78749  0.00000  0.56477  1.0000 0.1113591403
H   H57       1.0  0.52543  0.52543  0.38763  1.0000 0.1113591403
H   H58       1.0  0.26930  0.26930  0.49105  1.0000 0.1113591403
H   H59       1.0  0.68419  0.68419  0.37464  1.0000 0.1113591403
H   H60       1.0  0.21251  0.21251  0.56477  1.0000 0.1113591403
H   H61       1.0  0.00000  0.52543  0.88763  1.0000 0.1113591403
H   H62       1.0  0.00000  0.26930  0.99105  1.0000 0.1113591403
H   H63       1.0  0.00000  0.68419  0.87464  1.0000 0.1113591403
H   H64       1.0  0.00000  0.21251  0.06477  1.0000 0.1113591403
H   H65       1.0  0.52543  0.00000  0.88763  1.0000 0.1113591403
H   H66       1.0  0.26930  0.00000  0.99105  1.0000 0.1113591403
H   H67       1.0  0.68419  0.00000  0.87464  1.0000 0.1113591403
H   H68       1.0  0.21251  0.00000  0.06477  1.0000 0.1113591403
H   H69       1.0  0.47457  0.47457  0.88763  1.0000 0.1113591403
H   H70       1.0  0.73070  0.73070  0.99105  1.0000 0.1113591403
H   H71       1.0  0.31581  0.31581  0.87464  1.0000 0.1113591403
H   H72       1.0  0.78749  0.78749  0.06477  1.0000 0.1113591403
H   H73       1.0  0.52543  0.52543  0.11237  1.0000 0.1113591403
H   H74       1.0  0.26930  0.26930  0.00895  1.0000 0.1113591403
H   H75       1.0  0.68419  0.68419  0.12536  1.0000 0.1113591403
H   H76       1.0  0.21251  0.21251  0.93523  1.0000 0.1113591403
H   H77       1.0  0.47457  0.00000  0.11237  1.0000 0.1113591403
H   H78       1.0  0.73070  0.00000  0.00895  1.0000 0.1113591403
H   H79       1.0  0.31581  0.00000  0.12536  1.0000 0.1113591403
H   H80       1.0  0.78749  0.00000  0.93523  1.0000 0.1113591403
H   H81       1.0  0.00000  0.47457  0.11237  1.0000 0.1113591403
H   H82       1.0  0.00000  0.73070  0.00895  1.0000 0.1113591403
H   H83       1.0  0.00000  0.31581  0.12536  1.0000 0.1113591403
H   H84       1.0  0.00000  0.78749  0.93523  1.0000 0.1113591403
H   H85       1.0  0.47457  0.47457  0.61237  1.0000 0.1113591403
H   H86       1.0  0.73070  0.73070  0.50895  1.0000 0.1113591403
H   H87       1.0  0.31581  0.31581  0.62536  1.0000 0.1113591403
H   H88       1.0  0.78749  0.78749  0.43523  1.0000 0.1113591403
H   H89       1.0  0.52543  0.00000  0.61237  1.0000 0.1113591403
H   H90       1.0  0.26930  0.00000  0.50895  1.0000 0.1113591403
H   H91       1.0  0.68419  0.00000  0.62536  1.0000 0.1113591403
H   H92       1.0  0.21251  0.00000  0.43523  1.0000 0.1113591403
H   H93       1.0  0.00000  0.52543  0.61237  1.0000 0.1113591403
H   H94       1.0  0.00000  0.26930  0.50895  1.0000 0.1113591403
H   H95       1.0  0.00000  0.68419  0.62536  1.0000 0.1113591403
H   H96       1.0  0.00000  0.21251  0.43523  1.0000 0.1113591403
C   C1        1.0  0.90450  0.67310  0.37280  1.0000 -0.0855027731
C   C2        1.0  0.90440  0.61030  0.40810  1.0000 -0.1615044471
C   C3        1.0  0.76860  0.09550  0.37280  1.0000 -0.0855027731
C   C4        1.0  0.70590  0.09560  0.40810  1.0000 -0.1615044471
C   C5        1.0  0.32690  0.23140  0.37280  1.0000 -0.0855027731
C   C6        1.0  0.38970  0.29410  0.40810  1.0000 -0.1615044471
C   C7        1.0  0.09550  0.32690  0.87280  1.0000 -0.0855027731
C   C8        1.0  0.09560  0.38970  0.90810  1.0000 -0.1615044471
C   C9        1.0  0.23140  0.90450  0.87280  1.0000 -0.0849318649
C   C10       1.0  0.29410  0.90440  0.90810  1.0000 -0.1615044471
C   C11       1.0  0.67310  0.76860  0.87280  1.0000 -0.0849318649
C   C12       1.0  0.61030  0.70590  0.90810  1.0000 -0.1615044471
C   C13       1.0  0.23140  0.32690  0.12720  1.0000 -0.0849318649
C   C14       1.0  0.29410  0.38970  0.09190  1.0000 -0.1615044471
C   C15       1.0  0.67310  0.90450  0.12720  1.0000 -0.0849318649
C   C16       1.0  0.61030  0.90440  0.09190  1.0000 -0.1615044471
C   C17       1.0  0.09550  0.76860  0.12720  1.0000 -0.0855027731
C   C18       1.0  0.09560  0.70590  0.09190  1.0000 -0.1615044471
C   C19       1.0  0.76860  0.67310  0.62720  1.0000 -0.0855027731
C   C20       1.0  0.70590  0.61030  0.59190  1.0000 -0.1615044471
C   C21       1.0  0.32690  0.09550  0.62720  1.0000 -0.0855027731
C   C22       1.0  0.38970  0.09560  0.59190  1.0000 -0.1615044471
C   C23       1.0  0.90450  0.23140  0.62720  1.0000 -0.0849318649
C   C24       1.0  0.90440  0.29410  0.59190  1.0000 -0.1615044471
C   C25       1.0  0.09550  0.32690  0.62720  1.0000 -0.0855027731
C   C26       1.0  0.09560  0.38970  0.59190  1.0000 -0.1615044471
C   C27       1.0  0.23140  0.90450  0.62720  1.0000 -0.0849318649
C   C28       1.0  0.29410  0.90440  0.59190  1.0000 -0.1615044471
C   C29       1.0  0.67310  0.76860  0.62720  1.0000 -0.0849318649
C   C30       1.0  0.61030  0.70590  0.59190  1.0000 -0.1615044471
C   C31       1.0  0.90450  0.67310  0.12720  1.0000 -0.0855027731
C   C32       1.0  0.90440  0.61030  0.09190  1.0000 -0.1615044471
C   C33       1.0  0.76860  0.09550  0.12720  1.0000 -0.0855027731
C   C34       1.0  0.70590  0.09560  0.09190  1.0000 -0.1615044471
C   C35       1.0  0.32690  0.23140  0.12720  1.0000 -0.0855027731
C   C36       1.0  0.38970  0.29410  0.09190  1.0000 -0.1615044471
C   C37       1.0  0.76860  0.67310  0.87280  1.0000 -0.0855027731
C   C38       1.0  0.70590  0.61030  0.90810  1.0000 -0.1615044471
C   C39       1.0  0.32690  0.09550  0.87280  1.0000 -0.0855027731
C   C40       1.0  0.38970  0.09560  0.90810  1.0000 -0.1615044471
C   C41       1.0  0.90450  0.23140  0.87280  1.0000 -0.0849318649
C   C42       1.0  0.90440  0.29410  0.90810  1.0000 -0.1615044471
C   C43       1.0  0.23140  0.32690  0.37280  1.0000 -0.0855027731
C   C44       1.0  0.29410  0.38970  0.40810  1.0000 -0.1615044471
C   C45       1.0  0.67310  0.90450  0.37280  1.0000 -0.0849318649
C   C46       1.0  0.61030  0.90440  0.40810  1.0000 -0.1615044471
C   C47       1.0  0.09550  0.76860  0.37280  1.0000 -0.0855027731
C   C48       1.0  0.09560  0.70590  0.40810  1.0000 -0.1615044471
C   C49       1.0  0.00000  0.81140  0.31510  1.0000 0.6342157874
C   C50       1.0  0.00000  0.74580  0.35270  1.0000 -0.0604692675
C   C51       1.0  0.00000  0.63030  0.42720  1.0000 0.0759742462
C   C52       1.0  0.00000  0.56140  0.46440  1.0000 -0.04176655
C   C53       1.0  0.00000  0.46710  0.45603  1.0000 0.0319502497
C   C54       1.0  0.00000  0.59430  0.50810  1.0000 0.0319502497
C   C55       1.0  0.00000  0.43290  0.41240  1.0000 -0.1508743759
C   C56       1.0  0.00000  0.68890  0.51580  1.0000 -0.1508743759
C   C57       1.0  0.00000  0.33870  0.40470  1.0000 -0.1150391247
C   C58       1.0  0.00000  0.72260  0.55940  1.0000 -0.1101003817
C   C59       1.0  0.81140  0.00000  0.31510  1.0000 0.6342157874
C   C60       1.0  0.74580  0.00000  0.35270  1.0000 -0.0604692675
C   C61       1.0  0.63030  0.00000  0.42720  1.0000 0.0759742462
C   C62       1.0  0.56140  0.00000  0.46440  1.0000 -0.04176655
C   C63       1.0  0.46710  0.00000  0.45603  1.0000 0.0319502497
C   C64       1.0  0.59430  0.00000  0.50810  1.0000 0.0319502497
C   C65       1.0  0.43290  0.00000  0.41240  1.0000 -0.1508743759
C   C66       1.0  0.68890  0.00000  0.51580  1.0000 -0.1508743759
C   C67       1.0  0.33870  0.00000  0.40470  1.0000 -0.1101003817
C   C68       1.0  0.72260  0.00000  0.55940  1.0000 -0.1101003817
C   C69       1.0  0.18860  0.18860  0.31510  1.0000 0.6342157874
C   C70       1.0  0.25420  0.25420  0.35270  1.0000 -0.0604692675
C   C71       1.0  0.36970  0.36970  0.42720  1.0000 0.0759742462
C   C72       1.0  0.43860  0.43860  0.46440  1.0000 -0.04176655
C   C73       1.0  0.53290  0.53290  0.45603  1.0000 0.0319502497
C   C74       1.0  0.40570  0.40570  0.50810  1.0000 0.0319502497
C   C75       1.0  0.56710  0.56710  0.41240  1.0000 -0.1508743759
C   C76       1.0  0.31110  0.31110  0.51580  1.0000 -0.1508743759
C   C77       1.0  0.66130  0.66130  0.40470  1.0000 -0.1150391247
C   C78       1.0  0.27740  0.27740  0.55940  1.0000 -0.1101003817
C   C79       1.0  0.00000  0.18860  0.81510  1.0000 0.6342157874
C   C80       1.0  0.00000  0.25420  0.85270  1.0000 -0.0604692675
C   C81       1.0  0.00000  0.36970  0.92720  1.0000 0.0759742462
C   C82       1.0  0.00000  0.43860  0.96440  1.0000 -0.04176655
C   C83       1.0  0.00000  0.53290  0.95603  1.0000 0.0319502497
C   C84       1.0  0.00000  0.40570  0.00810  1.0000 0.0319502497
C   C85       1.0  0.00000  0.56710  0.91240  1.0000 -0.1508743759
C   C86       1.0  0.00000  0.31110  0.01580  1.0000 -0.1508743759
C   C87       1.0  0.00000  0.66130  0.90470  1.0000 -0.1150391247
C   C88       1.0  0.00000  0.27740  0.05940  1.0000 -0.1101003817
C   C89       1.0  0.18860  0.00000  0.81510  1.0000 0.6342157874
C   C90       1.0  0.25420  0.00000  0.85270  1.0000 -0.0604692675
C   C91       1.0  0.36970  0.00000  0.92720  1.0000 0.0759742462
C   C92       1.0  0.43860  0.00000  0.96440  1.0000 -0.04176655
C   C93       1.0  0.53290  0.00000  0.95603  1.0000 0.0319502497
C   C94       1.0  0.40570  0.00000  0.00810  1.0000 0.0319502497
C   C95       1.0  0.56710  0.00000  0.91240  1.0000 -0.1508743759
C   C96       1.0  0.31110  0.00000  0.01580  1.0000 -0.1508743759
C   C97       1.0  0.66130  0.00000  0.90470  1.0000 -0.1150391247
C   C98       1.0  0.27740  0.00000  0.05940  1.0000 -0.1101003817
C   C99       1.0  0.81140  0.81140  0.81510  1.0000 0.6342157874
C   C100      1.0  0.74580  0.74580  0.85270  1.0000 -0.0604692675
C   C101      1.0  0.63030  0.63030  0.92720  1.0000 0.0759742462
C   C102      1.0  0.56140  0.56140  0.96440  1.0000 -0.04176655
C   C103      1.0  0.46710  0.46710  0.95603  1.0000 0.0319502497
C   C104      1.0  0.59430  0.59430  0.00810  1.0000 0.0319502497
C   C105      1.0  0.43290  0.43290  0.91240  1.0000 -0.1508743759
C   C106      1.0  0.68890  0.68890  0.01580  1.0000 -0.1508743759
C   C107      1.0  0.33870  0.33870  0.90470  1.0000 -0.1150391247
C   C108      1.0  0.72260  0.72260  0.05940  1.0000 -0.1101003817
C   C109      1.0  0.18860  0.18860  0.18490  1.0000 0.6342157874
C   C110      1.0  0.25420  0.25420  0.14730  1.0000 -0.0604692675
C   C111      1.0  0.36970  0.36970  0.07280  1.0000 0.0759742462
C   C112      1.0  0.43860  0.43860  0.03560  1.0000 -0.04176655
C   C113      1.0  0.53290  0.53290  0.04397  1.0000 0.0319502497
C   C114      1.0  0.40570  0.40570  0.99190  1.0000 0.0319502497
C   C115      1.0  0.56710  0.56710  0.08760  1.0000 -0.1508743759
C   C116      1.0  0.31110  0.31110  0.98420  1.0000 -0.1508743759
C   C117      1.0  0.66130  0.66130  0.09530  1.0000 -0.1150391247
C   C118      1.0  0.27740  0.27740  0.94060  1.0000 -0.1101003817
C   C119      1.0  0.81140  0.00000  0.18490  1.0000 0.6342157874
C   C120      1.0  0.74580  0.00000  0.14730  1.0000 -0.0604692675
C   C121      1.0  0.63030  0.00000  0.07280  1.0000 0.0759742462
C   C122      1.0  0.56140  0.00000  0.03560  1.0000 -0.04176655
C   C123      1.0  0.46710  0.00000  0.04397  1.0000 0.0319502497
C   C124      1.0  0.59430  0.00000  0.99190  1.0000 0.0319502497
C   C125      1.0  0.43290  0.00000  0.08760  1.0000 -0.1508743759
C   C126      1.0  0.68890  0.00000  0.98420  1.0000 -0.1508743759
C   C127      1.0  0.33870  0.00000  0.09530  1.0000 -0.1101003817
C   C128      1.0  0.72260  0.00000  0.94060  1.0000 -0.1101003817
C   C129      1.0  0.00000  0.81140  0.18490  1.0000 0.6342157874
C   C130      1.0  0.00000  0.74580  0.14730  1.0000 -0.0604692675
C   C131      1.0  0.00000  0.63030  0.07280  1.0000 0.0759742462
C   C132      1.0  0.00000  0.56140  0.03560  1.0000 -0.04176655
C   C133      1.0  0.00000  0.46710  0.04397  1.0000 0.0319502497
C   C134      1.0  0.00000  0.59430  0.99190  1.0000 0.0319502497
C   C135      1.0  0.00000  0.43290  0.08760  1.0000 -0.1508743759
C   C136      1.0  0.00000  0.68890  0.98420  1.0000 -0.1508743759
C   C137      1.0  0.00000  0.33870  0.09530  1.0000 -0.1150391247
C   C138      1.0  0.00000  0.72260  0.94060  1.0000 -0.1101003817
C   C139      1.0  0.81140  0.81140  0.68490  1.0000 0.6342157874
C   C140      1.0  0.74580  0.74580  0.64730  1.0000 -0.0604692675
C   C141      1.0  0.63030  0.63030  0.57280  1.0000 0.0759742462
C   C142      1.0  0.56140  0.56140  0.53560  1.0000 -0.04176655
C   C143      1.0  0.46710  0.46710  0.54397  1.0000 0.0319502497
C   C144      1.0  0.59430  0.59430  0.49190  1.0000 0.0319502497
C   C145      1.0  0.43290  0.43290  0.58760  1.0000 -0.1508743759
C   C146      1.0  0.68890  0.68890  0.48420  1.0000 -0.1508743759
C   C147      1.0  0.33870  0.33870  0.59530  1.0000 -0.1150391247
C   C148      1.0  0.72260  0.72260  0.44060  1.0000 -0.1101003817
C   C149      1.0  0.18860  0.00000  0.68490  1.0000 0.6342157874
C   C150      1.0  0.25420  0.00000  0.64730  1.0000 -0.0604692675
C   C151      1.0  0.36970  0.00000  0.57280  1.0000 0.0759742462
C   C152      1.0  0.43860  0.00000  0.53560  1.0000 -0.04176655
C   C153      1.0  0.53290  0.00000  0.54397  1.0000 0.0319502497
C   C154      1.0  0.40570  0.00000  0.49190  1.0000 0.0319502497
C   C155      1.0  0.56710  0.00000  0.58760  1.0000 -0.1508743759
C   C156      1.0  0.31110  0.00000  0.48420  1.0000 -0.1508743759
C   C157      1.0  0.66130  0.00000  0.59530  1.0000 -0.1150391247
C   C158      1.0  0.27740  0.00000  0.44060  1.0000 -0.1101003817
C   C159      1.0  0.00000  0.18860  0.68490  1.0000 0.6342157874
C   C160      1.0  0.00000  0.25420  0.64730  1.0000 -0.0604692675
C   C161      1.0  0.00000  0.36970  0.57280  1.0000 0.0759742462
C   C162      1.0  0.00000  0.43860  0.53560  1.0000 -0.04176655
C   C163      1.0  0.00000  0.53290  0.54397  1.0000 0.0319502497
C   C164      1.0  0.00000  0.40570  0.49190  1.0000 0.0319502497
C   C165      1.0  0.00000  0.56710  0.58760  1.0000 -0.1508743759
C   C166      1.0  0.00000  0.31110  0.48420  1.0000 -0.1508743759
C   C167      1.0  0.00000  0.66130  0.59530  1.0000 -0.1150391247
C   C168      1.0  0.00000  0.27740  0.44060  1.0000 -0.1101003817
O   O1        1.0  0.91210  0.79280  0.29914  1.0000 -0.6320122973
O   O2        1.0  0.88070  0.08790  0.29914  1.0000 -0.6320122973
O   O3        1.0  0.20720  0.11930  0.29914  1.0000 -0.6320122973
O   O4        1.0  0.08790  0.20720  0.79914  1.0000 -0.6320122973
O   O5        1.0  0.11930  0.91210  0.79914  1.0000 -0.6320122973
O   O6        1.0  0.79280  0.88070  0.79914  1.0000 -0.6320122973
O   O7        1.0  0.11930  0.20720  0.20086  1.0000 -0.6320122973
O   O8        1.0  0.79280  0.91210  0.20086  1.0000 -0.6320122973
O   O9        1.0  0.08790  0.88070  0.20086  1.0000 -0.6320122973
O   O10       1.0  0.88070  0.79280  0.70086  1.0000 -0.6320122973
O   O11       1.0  0.20720  0.08790  0.70086  1.0000 -0.6320122973
O   O12       1.0  0.91210  0.11930  0.70086  1.0000 -0.6320122973
O   O13       1.0  0.08790  0.20720  0.70086  1.0000 -0.6320122973
O   O14       1.0  0.11930  0.91210  0.70086  1.0000 -0.6320122973
O   O15       1.0  0.79280  0.88070  0.70086  1.0000 -0.6320122973
O   O16       1.0  0.91210  0.79280  0.20086  1.0000 -0.6320122973
O   O17       1.0  0.88070  0.08790  0.20086  1.0000 -0.6320122973
O   O18       1.0  0.20720  0.11930  0.20086  1.0000 -0.6320122973
O   O19       1.0  0.88070  0.79280  0.79914  1.0000 -0.6320122973
O   O20       1.0  0.20720  0.08790  0.79914  1.0000 -0.6320122973
O   O21       1.0  0.91210  0.11930  0.79914  1.0000 -0.6320122973
O   O22       1.0  0.11930  0.20720  0.29914  1.0000 -0.6320122973
O   O23       1.0  0.79280  0.91210  0.29914  1.0000 -0.6320122973
O   O24       1.0  0.08790  0.88070  0.29914  1.0000 -0.6320122973
O   O25       1.0  0.00000  0.00000  0.25000  1.0000 -1.2261240329
O   O26       1.0  0.00000  0.00000  0.75000  1.0000 -1.2245840873
