# DDEC6 charges by PACMAN v1.1 (https://github.com/mtap-research/PACMAN-charge/)
data_2021[V][nan]3[ASR]6
_chemical_formula_sum              "V4 H12 C32 O20"
_cell_length_a       12.2364
_cell_length_b       12.2364
_cell_length_c       12.2364
_cell_angle_alpha    103.922
_cell_angle_beta     103.922
_cell_angle_gamma    121.252

_symmetry_space_group_name_H-M    "P 1"
_symmetry_Int_Tables_number       1

loop_
  _symmetry_equiv_pos_as_xyz
  'x, y, z'

loop_
  _atom_site_type_symbol
  _atom_site_label
  _atom_site_symmetry_multiplicity
  _atom_site_fract_x
  _atom_site_fract_y
  _atom_site_fract_z
  _atom_site_occupancy
  _atom_site_charge
V   V1        1.0  0.69619  0.69619  0.39238  1.0000 1.8608468672
V   V2        1.0  0.30381  0.30381  0.60762  1.0000 1.8608468672
V   V3        1.0  0.94619  0.05381  0.50000  1.0000 1.8608468672
V   V4        1.0  0.55381  0.44619  0.50000  1.0000 1.8608468672
H   H1        1.0  0.98280  0.03432  0.18056  1.0000 0.1375619073
H   H2        1.0  0.85376  0.80224  0.81944  1.0000 0.1375619073
H   H3        1.0  0.28432  0.60376  0.55152  1.0000 0.1375619073
H   H4        1.0  0.05224  0.73280  0.44848  1.0000 0.1375619073
H   H5        1.0  0.26720  0.94776  0.55152  1.0000 0.1375619073
H   H6        1.0  0.39624  0.71568  0.44848  1.0000 0.1375619073
H   H7        1.0  0.96568  0.01720  0.81944  1.0000 0.1375619073
H   H8        1.0  0.19776  0.14624  0.18056  1.0000 0.1375619073
H   H9        1.0  0.62640  0.62640  0.00000  1.0000 0.1469655869
H   H10       1.0  0.87640  0.37640  0.50000  1.0000 0.1469655869
H   H11       1.0  0.62360  0.12360  0.50000  1.0000 0.1469655869
H   H12       1.0  0.37360  0.37360  0.00000  1.0000 0.1469655869
C   C1        1.0  0.80350  0.82960  0.10970  1.0000 -0.0196357748
C   C2        1.0  0.79410  0.84250  0.23040  1.0000 0.6276459892
C   C3        1.0  0.91910  0.94850  0.10820  1.0000 -0.1262635577
C   C4        1.0  0.71990  0.69380  0.89030  1.0000 -0.0196357748
C   C5        1.0  0.61210  0.56370  0.76960  1.0000 0.6276459892
C   C6        1.0  0.84030  0.81090  0.89180  1.0000 -0.1262635577
C   C7        1.0  0.07960  0.46990  0.52610  1.0000 -0.0196357748
C   C8        1.0  0.09250  0.36210  0.54840  1.0000 0.6276459892
C   C9        1.0  0.19850  0.59030  0.52940  1.0000 -0.1262635577
C   C10       1.0  0.94380  0.55350  0.47390  1.0000 -0.0196357748
C   C11       1.0  0.81370  0.54410  0.45160  1.0000 0.6276459892
C   C12       1.0  0.06090  0.66910  0.47060  1.0000 -0.1262635577
C   C13       1.0  0.44650  0.05620  0.52610  1.0000 -0.0196357748
C   C14       1.0  0.45590  0.18630  0.54840  1.0000 0.6276459892
C   C15       1.0  0.33090  0.93910  0.52940  1.0000 -0.1262635577
C   C16       1.0  0.53010  0.92040  0.47390  1.0000 -0.0196357748
C   C17       1.0  0.63790  0.90750  0.45160  1.0000 0.6276459892
C   C18       1.0  0.40970  0.80150  0.47060  1.0000 -0.1262635577
C   C19       1.0  0.17040  0.19650  0.89030  1.0000 -0.0196357748
C   C20       1.0  0.15750  0.20590  0.76960  1.0000 0.6276459892
C   C21       1.0  0.05150  0.08090  0.89180  1.0000 -0.1262635577
C   C22       1.0  0.30620  0.28010  0.10970  1.0000 -0.0196357748
C   C23       1.0  0.43630  0.38790  0.23040  1.0000 0.6276459892
C   C24       1.0  0.18910  0.15970  0.10820  1.0000 -0.1262635577
C   C25       1.0  0.93840  0.93840  0.00000  1.0000 0.065819952
C   C26       1.0  0.70390  0.70390  0.00000  1.0000 -0.0918883855
C   C27       1.0  0.18840  0.68840  0.50000  1.0000 0.065819952
C   C28       1.0  0.95390  0.45390  0.50000  1.0000 -0.0918883855
C   C29       1.0  0.31160  0.81160  0.50000  1.0000 0.065819952
C   C30       1.0  0.54610  0.04610  0.50000  1.0000 -0.0918883855
C   C31       1.0  0.06160  0.06160  0.00000  1.0000 0.065819952
C   C32       1.0  0.29610  0.29610  0.00000  1.0000 -0.0918883855
O   O1        1.0  0.85720  0.96780  0.31460  1.0000 -0.5829279895
O   O2        1.0  0.72840  0.72850  0.24230  1.0000 -0.5556729238
O   O3        1.0  0.65320  0.54260  0.68540  1.0000 -0.5829279895
O   O4        1.0  0.48620  0.48610  0.75770  1.0000 -0.5544239084
O   O5        1.0  0.21780  0.40320  0.61060  1.0000 -0.5829279895
O   O6        1.0  0.97850  0.23620  0.50010  1.0000 -0.5556729238
O   O7        1.0  0.79260  0.60720  0.38940  1.0000 -0.5829279895
O   O8        1.0  0.73610  0.47840  0.49990  1.0000 -0.5556729238
O   O9        1.0  0.39280  0.20740  0.61060  1.0000 -0.5829279895
O   O10       1.0  0.52160  0.26390  0.50010  1.0000 -0.5556729238
O   O11       1.0  0.59680  0.78220  0.38940  1.0000 -0.5829279895
O   O12       1.0  0.76380  0.02150  0.49990  1.0000 -0.5556729238
O   O13       1.0  0.03220  0.14280  0.68540  1.0000 -0.5829279895
O   O14       1.0  0.27150  0.27160  0.75770  1.0000 -0.5556729238
O   O15       1.0  0.45740  0.34680  0.31460  1.0000 -0.5829279895
O   O16       1.0  0.51390  0.51380  0.24230  1.0000 -0.5556729238
O   O17       1.0  0.86930  0.87500  0.49430  1.0000 -0.9434715758
O   O18       1.0  0.38070  0.37500  0.50570  1.0000 -0.9434715758
O   O19       1.0  0.12500  0.13070  0.50570  1.0000 -0.9434715758
O   O20       1.0  0.62500  0.61930  0.49430  1.0000 -0.9434715758
