# DDEC6 charges by PACMAN v1.1 (https://github.com/mtap-research/PACMAN-charge/)
data_2021[Zn][bex]2[ASR]1
_chemical_formula_sum              "Zn8 H104 C136 N16 O40"
_cell_length_a       10.6716
_cell_length_b       25.585
_cell_length_c       16.0366
_cell_angle_alpha    90
_cell_angle_beta     90.6379
_cell_angle_gamma    90

_symmetry_space_group_name_H-M    "P 1"
_symmetry_Int_Tables_number       1

loop_
  _symmetry_equiv_pos_as_xyz
  'x, y, z'

loop_
  _atom_site_type_symbol
  _atom_site_label
  _atom_site_symmetry_multiplicity
  _atom_site_fract_x
  _atom_site_fract_y
  _atom_site_fract_z
  _atom_site_occupancy
  _atom_site_charge
Zn  Zn1       1.0  0.64318  0.67264  0.05323  1.0000 0.8201475527
Zn  Zn2       1.0  0.12456  0.68141  0.56287  1.0000 0.8201475527
Zn  Zn3       1.0  0.75885  0.31686  0.14564  1.0000 0.8201475527
Zn  Zn4       1.0  0.24750  0.29813  0.65192  1.0000 0.8201475527
Zn  Zn5       1.0  0.35682  0.17264  0.94677  1.0000 0.8201475527
Zn  Zn6       1.0  0.87544  0.18141  0.43713  1.0000 0.8201475527
Zn  Zn7       1.0  0.24115  0.81686  0.85436  1.0000 0.8149628852
Zn  Zn8       1.0  0.75250  0.79813  0.34808  1.0000 0.8201475527
H   H1        1.0  0.42790  0.65880  0.82420  1.0000 0.1208414298
H   H2        1.0  0.17210  0.54150  0.09320  1.0000 0.2925543477
H   H3        1.0  0.90290  0.41580  0.70390  1.0000 0.2925543477
H   H4        1.0  0.41410  0.42740  0.24740  1.0000 0.2925543477
H   H5        1.0  0.62620  0.53810  0.57190  1.0000 0.2925543477
H   H6        1.0  0.02900  0.70450  0.73520  1.0000 0.1208414298
H   H7        1.0  0.79540  0.25940  0.67110  1.0000 0.1392580782
H   H8        1.0  0.61850  0.19440  0.99780  1.0000 0.1102218753
H   H9        1.0  0.04960  0.31430  0.41300  1.0000 0.1208414298
H   H10       1.0  0.38800  0.37770  0.37050  1.0000 0.1392580782
H   H11       1.0  0.25110  0.59070  0.28910  1.0000 0.1392580782
H   H12       1.0  0.91570  0.65790  0.32690  1.0000 0.1208414298
H   H13       1.0  0.98580  0.58500  0.11030  1.0000 0.1392580782
H   H14       1.0  0.88590  0.38370  0.83620  1.0000 0.1316440765
H   H15       1.0  0.80410  0.22380  0.94470  1.0000 0.1392580782
H   H16       1.0  0.68010  0.75360  0.85350  1.0000 0.1392580782
H   H17       1.0  0.74390  0.58370  0.76200  1.0000 0.1392580782
H   H18       1.0  0.51030  0.46140  0.14530  1.0000 0.1102218753
H   H19       1.0  0.34910  0.79570  0.68440  1.0000 0.1208414298
H   H20       1.0  0.84930  0.73370  0.79740  1.0000 0.1392580782
H   H21       1.0  0.65780  0.20690  0.71570  1.0000 0.1392580782
H   H22       1.0  0.32050  0.50130  0.03570  1.0000 0.1011561517
H   H23       1.0  0.44430  0.42330  0.98410  1.0000 0.1102218753
H   H24       1.0  0.54570  0.39740  0.04240  1.0000 0.1011561517
H   H25       1.0  0.50050  0.78850  0.90580  1.0000 0.1102218753
H   H26       1.0  0.56170  0.32060  0.91160  1.0000 0.1208414298
H   H27       1.0  0.15520  0.27250  0.82530  1.0000 0.1208414298
H   H28       1.0  0.12250  0.37930  0.19030  1.0000 0.1467005265
H   H29       1.0  0.97990  0.23920  0.88730  1.0000 0.1392580782
H   H30       1.0  0.97740  0.28960  0.61390  1.0000 0.1102218753
H   H31       1.0  0.59470  0.37260  0.67630  1.0000 0.1467005265
H   H32       1.0  0.66600  0.70850  0.58190  1.0000 0.1392580782
H   H33       1.0  0.96320  0.46490  0.60390  1.0000 0.1011561517
H   H34       1.0  0.45570  0.59150  0.59890  1.0000 0.1392580782
H   H35       1.0  0.49630  0.51670  0.92290  1.0000 0.1102218753
H   H36       1.0  0.62160  0.54290  0.95350  1.0000 0.1102218753
H   H37       1.0  0.85090  0.68150  0.52530  1.0000 0.1102218753
H   H38       1.0  0.67430  0.47030  0.03160  1.0000 0.1208414298
H   H39       1.0  0.64110  0.45080  0.94130  1.0000 0.1102218753
H   H40       1.0  0.52260  0.75850  0.62570  1.0000 0.1392580782
H   H41       1.0  0.88510  0.41200  0.45650  1.0000 0.1208414298
H   H42       1.0  0.99650  0.39460  0.51480  1.0000 0.1011561517
H   H43       1.0  0.47830  0.17730  0.77440  1.0000 0.1316440765
H   H44       1.0  0.54590  0.55220  0.08670  1.0000 0.1102218753
H   H45       1.0  0.44640  0.57630  0.02520  1.0000 0.1011561517
H   H46       1.0  0.76150  0.49790  0.49790  1.0000 0.1011561517
H   H47       1.0  0.99620  0.55000  0.51570  1.0000 0.1208414298
H   H48       1.0  0.88550  0.56900  0.45800  1.0000 0.1102218753
H   H49       1.0  0.03880  0.52710  0.37840  1.0000 0.1011561517
H   H50       1.0  0.91110  0.49680  0.37130  1.0000 0.1102218753
H   H51       1.0  0.07200  0.43730  0.39500  1.0000 0.1011561517
H   H52       1.0  0.11330  0.46740  0.47610  1.0000 0.1102218753
H   H53       1.0  0.57210  0.15880  0.17580  1.0000 0.1208414298
H   H54       1.0  0.82790  0.04150  0.90680  1.0000 0.2925543477
H   H55       1.0  0.09710  0.91580  0.29610  1.0000 0.2925543477
H   H56       1.0  0.58590  0.92740  0.75260  1.0000 0.2925543477
H   H57       1.0  0.37380  0.03810  0.42810  1.0000 0.2925543477
H   H58       1.0  0.97100  0.20450  0.26480  1.0000 0.1208414298
H   H59       1.0  0.20460  0.75940  0.32890  1.0000 0.1392580782
H   H60       1.0  0.38150  0.69440  0.00220  1.0000 0.1102218753
H   H61       1.0  0.95040  0.81430  0.58700  1.0000 0.1208414298
H   H62       1.0  0.61200  0.87770  0.62950  1.0000 0.1392580782
H   H63       1.0  0.74890  0.09070  0.71090  1.0000 0.1392580782
H   H64       1.0  0.08430  0.15790  0.67310  1.0000 0.1208414298
H   H65       1.0  0.01420  0.08500  0.88970  1.0000 0.1392580782
H   H66       1.0  0.11410  0.88370  0.16380  1.0000 0.1316440765
H   H67       1.0  0.19590  0.72380  0.05530  1.0000 0.1392580782
H   H68       1.0  0.31990  0.25360  0.14650  1.0000 0.1392580782
H   H69       1.0  0.25610  0.08370  0.23800  1.0000 0.1392580782
H   H70       1.0  0.48970  0.96140  0.85470  1.0000 0.1102218753
H   H71       1.0  0.65090  0.29570  0.31560  1.0000 0.1208414298
H   H72       1.0  0.15070  0.23370  0.20260  1.0000 0.1392580782
H   H73       1.0  0.34220  0.70690  0.28430  1.0000 0.1392580782
H   H74       1.0  0.67950  0.00130  0.96430  1.0000 0.1011561517
H   H75       1.0  0.55570  0.92330  0.01590  1.0000 0.1102218753
H   H76       1.0  0.45430  0.89740  0.95760  1.0000 0.1011561517
H   H77       1.0  0.49950  0.28850  0.09420  1.0000 0.1102218753
H   H78       1.0  0.43830  0.82060  0.08840  1.0000 0.1208414298
H   H79       1.0  0.84480  0.77250  0.17470  1.0000 0.1208414298
H   H80       1.0  0.87750  0.87930  0.80970  1.0000 0.1467005265
H   H81       1.0  0.02010  0.73920  0.11270  1.0000 0.1392580782
H   H82       1.0  0.02260  0.78960  0.38610  1.0000 0.1102218753
H   H83       1.0  0.40530  0.87260  0.32370  1.0000 0.1467005265
H   H84       1.0  0.33400  0.20850  0.41810  1.0000 0.1392580782
H   H85       1.0  0.03680  0.96490  0.39610  1.0000 0.1011561517
H   H86       1.0  0.54430  0.09150  0.40110  1.0000 0.1392580782
H   H87       1.0  0.50370  0.01670  0.07710  1.0000 0.1102218753
H   H88       1.0  0.37840  0.04290  0.04650  1.0000 0.1102218753
H   H89       1.0  0.14910  0.18150  0.47470  1.0000 0.1102218753
H   H90       1.0  0.32570  0.97030  0.96840  1.0000 0.1208414298
H   H91       1.0  0.35890  0.95080  0.05870  1.0000 0.1102218753
H   H92       1.0  0.47740  0.25850  0.37430  1.0000 0.1392580782
H   H93       1.0  0.11490  0.91200  0.54350  1.0000 0.1208414298
H   H94       1.0  0.00350  0.89460  0.48520  1.0000 0.1011561517
H   H95       1.0  0.52170  0.67730  0.22560  1.0000 0.1316440765
H   H96       1.0  0.45410  0.05220  0.91330  1.0000 0.1102218753
H   H97       1.0  0.55360  0.07630  0.97480  1.0000 0.1011561517
H   H98       1.0  0.23850  0.99790  0.50210  1.0000 0.1011561517
H   H99       1.0  0.00380  0.05000  0.48430  1.0000 0.1208414298
H   H100      1.0  0.11450  0.06900  0.54200  1.0000 0.1102218753
H   H101      1.0  0.96120  0.02710  0.62160  1.0000 0.1011561517
H   H102      1.0  0.08890  0.99680  0.62870  1.0000 0.1102218753
H   H103      1.0  0.92800  0.93730  0.60500  1.0000 0.1011561517
H   H104      1.0  0.88670  0.96740  0.52390  1.0000 0.1102218753
C   C1        1.0  0.47400  0.64012  0.78540  1.0000 -0.1308912944
C   C2        1.0  0.59430  0.62332  0.80510  1.0000 -0.0200211906
C   C3        1.0  0.55880  0.34322  0.79110  1.0000 -0.0088836133
C   C4        1.0  0.62240  0.75040  0.73250  1.0000 0.1102218753
C   C5        1.0  0.95550  0.70626  0.70360  1.0000 0.1102218753
C   C6        1.0  0.86820  0.26076  0.70340  1.0000 -0.1812233518
C   C7        1.0  0.62620  0.19750  0.94030  1.0000 0.0794606403
C   C8        1.0  0.22530  0.34405  0.40520  1.0000 -0.0088836133
C   C9        1.0  0.10500  0.33123  0.37760  1.0000 -0.1400731544
C   C10       1.0  0.30720  0.36981  0.35220  1.0000 -0.2200990603
C   C11       1.0  0.09060  0.62800  0.31990  1.0000 -0.0200211906
C   C12       1.0  0.75160  0.22110  0.82330  1.0000 0.1102218753
C   C13       1.0  0.93200  0.62508  0.21240  1.0000 -0.0088836133
C   C14       1.0  0.17070  0.59865  0.27010  1.0000 -0.1969931285
C   C15       1.0  0.86640  0.24406  0.78610  1.0000 0.1102218753
C   C16       1.0  0.26920  0.38389  0.27210  1.0000 0.2182069802
C   C17       1.0  0.97040  0.63998  0.29230  1.0000 -0.1400731544
C   C18       1.0  0.01180  0.59549  0.16320  1.0000 -0.2200990603
C   C19       1.0  0.80320  0.37425  0.82510  1.0000 -0.2200990603
C   C20       1.0  0.73800  0.21548  0.90880  1.0000 -0.1812233518
C   C21       1.0  0.13020  0.58145  0.19260  1.0000 0.2182069802
C   C22       1.0  0.61320  0.76099  0.81780  1.0000 -0.1812233518
C   C23       1.0  0.65520  0.63932  0.88660  1.0000 0.5436701325
C   C24       1.0  0.66280  0.59435  0.74860  1.0000 -0.1812233518
C   C25       1.0  0.44570  0.45496  0.10260  1.0000 -0.1400731544
C   C26       1.0  0.41600  0.78623  0.71880  1.0000 0.1011561517
C   C27       1.0  0.13920  0.64816  0.40210  1.0000 0.5436701325
C   C28       1.0  0.60980  0.58126  0.67180  1.0000 0.2182069802
C   C29       1.0  0.94320  0.32747  0.26330  1.0000 0.5493553238
C   C30       1.0  0.42930  0.32427  0.76960  1.0000 0.5493553238
C   C31       1.0  0.84750  0.72384  0.74150  1.0000 -0.1685790604
C   C32       1.0  0.65170  0.20540  0.77350  1.0000 -0.1685790604
C   C33       1.0  0.73140  0.35110  0.88770  1.0000 -0.0200211906
C   C34       1.0  0.34930  0.41790  0.13790  1.0000 0.4724189629
C   C35       1.0  0.38490  0.50747  0.07860  1.0000 -0.1400731544
C   C36       1.0  0.50750  0.43038  0.02660  1.0000 -0.1812233518
C   C37       1.0  0.42250  0.62880  0.70690  1.0000 -0.0088836133
C   C38       1.0  0.50520  0.78231  0.84880  1.0000 0.0794606403
C   C39       1.0  0.60970  0.33587  0.87020  1.0000 -0.1400731544
C   C40       1.0  0.08230  0.26879  0.79350  1.0000 0.1011561517
C   C41       1.0  0.06880  0.34392  0.29700  1.0000 -0.0200211906
C   C42       1.0  0.14880  0.37052  0.24400  1.0000 -0.1946778084
C   C43       1.0  0.79820  0.42344  0.60860  1.0000 0.4724189629
C   C44       1.0  0.80780  0.64361  0.17900  1.0000 0.5436701325
C   C45       1.0  0.97680  0.24907  0.83150  1.0000 -0.1685790604
C   C46       1.0  0.97790  0.27923  0.66950  1.0000 0.0794606403
C   C47       1.0  0.32530  0.53463  0.15270  1.0000 0.4724189629
C   C48       1.0  0.62950  0.36728  0.72900  1.0000 -0.1969931285
C   C49       1.0  0.73650  0.72667  0.69600  1.0000 0.1102218753
C   C50       1.0  0.26860  0.32779  0.49050  1.0000 0.5436701325
C   C51       1.0  0.73910  0.70909  0.61390  1.0000 -0.1812233518
C   C52       1.0  0.89620  0.45594  0.56410  1.0000 -0.1512128468
C   C53       1.0  0.29890  0.65161  0.68110  1.0000 0.5493553238
C   C54       1.0  0.49020  0.59933  0.65090  1.0000 -0.2097685646
C   C55       1.0  0.79000  0.34210  0.97260  1.0000 0.5436701325
C   C56       1.0  0.75150  0.38317  0.74610  1.0000 0.2182069802
C   C57       1.0  0.55380  0.51991  0.96990  1.0000 -0.1512128468
C   C58       1.0  0.85060  0.69259  0.58050  1.0000 0.0794606403
C   C59       1.0  0.60670  0.46640  0.99120  1.0000 -0.1512128468
C   C60       1.0  0.52060  0.76413  0.68300  1.0000 -0.1812233518
C   C61       1.0  0.95210  0.42471  0.49250  1.0000 -0.1812233518
C   C62       1.0  0.54390  0.18759  0.80930  1.0000 0.1102218753
C   C63       1.0  0.48560  0.54391  0.04310  1.0000 -0.1812233518
C   C64       1.0  0.83490  0.50666  0.53240  1.0000 -0.1512128468
C   C65       1.0  0.92750  0.53831  0.48020  1.0000 -0.1812233518
C   C66       1.0  0.79360  0.53946  0.60600  1.0000 0.4724189629
C   C67       1.0  0.97890  0.50632  0.40920  1.0000 -0.1512128468
C   C68       1.0  0.04170  0.45769  0.44160  1.0000 -0.1552303816
C   C69       1.0  0.52600  0.14012  0.21460  1.0000 -0.1308912944
C   C70       1.0  0.40570  0.12332  0.19490  1.0000 -0.0200211906
C   C71       1.0  0.44120  0.84322  0.20890  1.0000 -0.0088836133
C   C72       1.0  0.37760  0.25040  0.26750  1.0000 0.1102218753
C   C73       1.0  0.04450  0.20626  0.29640  1.0000 0.1102218753
C   C74       1.0  0.13180  0.76076  0.29660  1.0000 -0.1812233518
C   C75       1.0  0.37380  0.69750  0.05970  1.0000 0.0794606403
C   C76       1.0  0.77470  0.84405  0.59480  1.0000 -0.0088836133
C   C77       1.0  0.89500  0.83123  0.62240  1.0000 -0.1400731544
C   C78       1.0  0.69280  0.86981  0.64780  1.0000 -0.2200990603
C   C79       1.0  0.90940  0.12800  0.68010  1.0000 -0.0200211906
C   C80       1.0  0.24840  0.72110  0.17670  1.0000 0.1102218753
C   C81       1.0  0.06800  0.12508  0.78760  1.0000 -0.0088836133
C   C82       1.0  0.82930  0.09865  0.72990  1.0000 -0.1969931285
C   C83       1.0  0.13360  0.74406  0.21390  1.0000 0.1102218753
C   C84       1.0  0.73080  0.88389  0.72790  1.0000 0.2182069802
C   C85       1.0  0.02960  0.13998  0.70770  1.0000 -0.1400731544
C   C86       1.0  0.98820  0.09549  0.83680  1.0000 -0.2200990603
C   C87       1.0  0.19680  0.87425  0.17490  1.0000 -0.2200990603
C   C88       1.0  0.26200  0.71548  0.09120  1.0000 -0.1812233518
C   C89       1.0  0.86980  0.08145  0.80740  1.0000 0.2182069802
C   C90       1.0  0.38680  0.26099  0.18220  1.0000 -0.1812233518
C   C91       1.0  0.34480  0.13932  0.11340  1.0000 0.5436701325
C   C92       1.0  0.33720  0.09435  0.25140  1.0000 -0.1812233518
C   C93       1.0  0.55430  0.95496  0.89740  1.0000 -0.1400731544
C   C94       1.0  0.58400  0.28623  0.28120  1.0000 0.1011561517
C   C95       1.0  0.86080  0.14816  0.59790  1.0000 0.5436701325
C   C96       1.0  0.39020  0.08126  0.32820  1.0000 0.2182069802
C   C97       1.0  0.05680  0.82747  0.73670  1.0000 0.5493553238
C   C98       1.0  0.57070  0.82427  0.23040  1.0000 0.5493553238
C   C99       1.0  0.15250  0.22384  0.25850  1.0000 -0.1685790604
C   C100      1.0  0.34830  0.70540  0.22650  1.0000 -0.1685790604
C   C101      1.0  0.26860  0.85110  0.11230  1.0000 -0.0200211906
C   C102      1.0  0.65070  0.91790  0.86210  1.0000 0.4724189629
C   C103      1.0  0.61510  0.00747  0.92140  1.0000 -0.1400731544
C   C104      1.0  0.49250  0.93038  0.97340  1.0000 -0.1812233518
C   C105      1.0  0.57750  0.12880  0.29310  1.0000 -0.0088836133
C   C106      1.0  0.49480  0.28231  0.15120  1.0000 0.0794606403
C   C107      1.0  0.39030  0.83587  0.12980  1.0000 -0.1400731544
C   C108      1.0  0.91770  0.76879  0.20650  1.0000 0.1011561517
C   C109      1.0  0.93120  0.84392  0.70300  1.0000 -0.0200211906
C   C110      1.0  0.85120  0.87052  0.75600  1.0000 -0.1946778084
C   C111      1.0  0.20180  0.92344  0.39140  1.0000 0.4724189629
C   C112      1.0  0.19220  0.14361  0.82100  1.0000 0.5493553238
C   C113      1.0  0.02320  0.74907  0.16850  1.0000 -0.1685790604
C   C114      1.0  0.02210  0.77923  0.33050  1.0000 0.0794606403
C   C115      1.0  0.67470  0.03463  0.84730  1.0000 0.4724189629
C   C116      1.0  0.37050  0.86728  0.27100  1.0000 -0.1969931285
C   C117      1.0  0.26350  0.22667  0.30400  1.0000 0.1102218753
C   C118      1.0  0.73140  0.82779  0.50950  1.0000 0.5436701325
C   C119      1.0  0.26090  0.20909  0.38610  1.0000 -0.1812233518
C   C120      1.0  0.10380  0.95594  0.43590  1.0000 -0.1512128468
C   C121      1.0  0.70110  0.15161  0.31890  1.0000 0.5493553238
C   C122      1.0  0.50980  0.09933  0.34910  1.0000 -0.2097685646
C   C123      1.0  0.21000  0.84210  0.02740  1.0000 0.5436701325
C   C124      1.0  0.24850  0.88317  0.25390  1.0000 0.2182069802
C   C125      1.0  0.44620  0.01991  0.03010  1.0000 -0.1512128468
C   C126      1.0  0.14940  0.19259  0.41950  1.0000 0.0794606403
C   C127      1.0  0.39330  0.96640  0.00880  1.0000 -0.1512128468
C   C128      1.0  0.47940  0.26413  0.31700  1.0000 -0.1812233518
C   C129      1.0  0.04790  0.92471  0.50750  1.0000 -0.1812233518
C   C130      1.0  0.45610  0.68759  0.19070  1.0000 0.1102218753
C   C131      1.0  0.51440  0.04391  0.95690  1.0000 -0.1812233518
C   C132      1.0  0.16510  0.00666  0.46760  1.0000 -0.1512128468
C   C133      1.0  0.07250  0.03831  0.51980  1.0000 -0.1812233518
C   C134      1.0  0.20640  0.03946  0.39400  1.0000 0.4724189629
C   C135      1.0  0.02110  0.00632  0.59080  1.0000 -0.1512128468
C   C136      1.0  0.95830  0.95769  0.55840  1.0000 -0.1552303816
N   N1        1.0  0.20620  0.55095  0.13974  1.0000 -0.3705863044
N   N2        1.0  0.82790  0.40870  0.68742  1.0000 -0.3705863044
N   N3        1.0  0.08470  0.28280  0.71330  1.0000 -0.2401262458
N   N4        1.0  0.95870  0.69172  0.62383  1.0000 -0.2401262458
N   N5        1.0  0.35320  0.41210  0.22176  1.0000 -0.3705863044
N   N6        1.0  0.40700  0.79455  0.80074  1.0000 -0.2401262458
N   N7        1.0  0.67300  0.55084  0.61090  1.0000 -0.3575825478
N   N8        1.0  0.52790  0.18422  0.89174  1.0000 -0.2401262458
N   N9        1.0  0.79380  0.05095  0.86026  1.0000 -0.3705863044
N   N10       1.0  0.17210  0.90870  0.31258  1.0000 -0.3705863044
N   N11       1.0  0.91530  0.78280  0.28670  1.0000 -0.2401262458
N   N12       1.0  0.04130  0.19172  0.37617  1.0000 -0.2401262458
N   N13       1.0  0.64680  0.91210  0.77824  1.0000 -0.3705863044
N   N14       1.0  0.59300  0.29455  0.19926  1.0000 -0.2401262458
N   N15       1.0  0.32700  0.05084  0.38910  1.0000 -0.3575825478
N   N16       1.0  0.47210  0.68422  0.10826  1.0000 -0.2401262458
O   O1        1.0  0.38890  0.33562  0.69702  1.0000 -0.5303480889
O   O2        1.0  0.78470  0.63579  0.10233  1.0000 -0.54126341
O   O3        1.0  0.71460  0.32721  0.02846  1.0000 -0.5783140297
O   O4        1.0  0.57970  0.65277  0.94425  1.0000 -0.5783140297
O   O5        1.0  0.92850  0.32959  0.18522  1.0000 -0.5197927739
O   O6        1.0  0.25990  0.64000  0.60866  1.0000 -0.5303480889
O   O7        1.0  0.38510  0.54221  0.21704  1.0000 -0.4554336156
O   O8        1.0  0.77000  0.63926  0.89421  1.0000 -0.5303480889
O   O9        1.0  0.24020  0.68010  0.72925  1.0000 -0.5532763983
O   O10       1.0  0.36860  0.29880  0.81980  1.0000 -0.5532763983
O   O11       1.0  0.25260  0.65266  0.41433  1.0000 -0.5303480889
O   O12       1.0  0.86100  0.31180  0.31079  1.0000 -0.5600670959
O   O13       1.0  0.73410  0.66667  0.22549  1.0000 -0.5532763983
O   O14       1.0  0.27280  0.39594  0.09293  1.0000 -0.440072232
O   O15       1.0  0.69880  0.41270  0.57430  1.0000 -0.4490774557
O   O16       1.0  0.37960  0.31932  0.50484  1.0000 -0.5197927739
O   O17       1.0  0.90300  0.34976  0.98268  1.0000 -0.5303480889
O   O18       1.0  0.18350  0.32164  0.54477  1.0000 -0.5672485218
O   O19       1.0  0.05620  0.66009  0.45553  1.0000 -0.5600670959
O   O20       1.0  0.86780  0.55590  0.65570  1.0000 -0.4295179929
O   O21       1.0  0.61110  0.83562  0.30298  1.0000 -0.5303480889
O   O22       1.0  0.21530  0.13579  0.89767  1.0000 -0.54126341
O   O23       1.0  0.28540  0.82721  0.97154  1.0000 -0.5783140297
O   O24       1.0  0.42030  0.15277  0.05575  1.0000 -0.5783140297
O   O25       1.0  0.07150  0.82959  0.81478  1.0000 -0.5197927739
O   O26       1.0  0.74010  0.14000  0.39134  1.0000 -0.5303480889
O   O27       1.0  0.61490  0.04221  0.78296  1.0000 -0.4490774557
O   O28       1.0  0.23000  0.13926  0.10579  1.0000 -0.5303480889
O   O29       1.0  0.75980  0.18010  0.27075  1.0000 -0.5600670959
O   O30       1.0  0.63140  0.79880  0.18020  1.0000 -0.5532763983
O   O31       1.0  0.74740  0.15266  0.58567  1.0000 -0.5303480889
O   O32       1.0  0.13900  0.81180  0.68921  1.0000 -0.5600670959
O   O33       1.0  0.26590  0.16667  0.77451  1.0000 -0.5532763983
O   O34       1.0  0.72720  0.89594  0.90707  1.0000 -0.440072232
O   O35       1.0  0.30120  0.91270  0.42570  1.0000 -0.4490774557
O   O36       1.0  0.62040  0.81932  0.49516  1.0000 -0.5197927739
O   O37       1.0  0.09700  0.84976  0.01732  1.0000 -0.5303480889
O   O38       1.0  0.81650  0.82164  0.45523  1.0000 -0.5672485218
O   O39       1.0  0.94380  0.16009  0.54447  1.0000 -0.5672485218
O   O40       1.0  0.13220  0.05590  0.34430  1.0000 -0.4295179929
