# DDEC6 charges by PACMAN v1.1 (https://github.com/mtap-research/PACMAN-charge/)
data_2021[Co][nan]3[ASR]18
_chemical_formula_sum              "Co16 H144 C272 N72 O48"
_cell_length_a       27.84
_cell_length_b       18.2859
_cell_length_c       28.5497
_cell_angle_alpha    90
_cell_angle_beta     116.421
_cell_angle_gamma    90

_symmetry_space_group_name_H-M    "P 1"
_symmetry_Int_Tables_number       1

loop_
  _symmetry_equiv_pos_as_xyz
  'x, y, z'

loop_
  _atom_site_type_symbol
  _atom_site_label
  _atom_site_symmetry_multiplicity
  _atom_site_fract_x
  _atom_site_fract_y
  _atom_site_fract_z
  _atom_site_occupancy
  _atom_site_charge
Co  Co1       1.0  0.33837  0.43215  0.40128  1.0000 0.861232643
Co  Co2       1.0  0.32823  0.55398  0.73842  1.0000 0.8195968465
Co  Co3       1.0  0.19890  0.09229  0.82932  1.0000 0.80991513
Co  Co4       1.0  0.18744  0.56158  0.67841  1.0000 0.8674454586
Co  Co5       1.0  0.66163  0.93215  0.09872  1.0000 0.861232643
Co  Co6       1.0  0.67177  0.05398  0.76158  1.0000 0.8195968465
Co  Co7       1.0  0.80110  0.59229  0.67068  1.0000 0.80991513
Co  Co8       1.0  0.81256  0.06158  0.82159  1.0000 0.8674454586
Co  Co9       1.0  0.66163  0.56785  0.59872  1.0000 0.861232643
Co  Co10      1.0  0.67177  0.44602  0.26158  1.0000 0.8195968465
Co  Co11      1.0  0.80110  0.90771  0.17068  1.0000 0.80991513
Co  Co12      1.0  0.81256  0.43842  0.32159  1.0000 0.8674454586
Co  Co13      1.0  0.33837  0.06785  0.90128  1.0000 0.861232643
Co  Co14      1.0  0.32823  0.94602  0.23842  1.0000 0.8195968465
Co  Co15      1.0  0.19890  0.40771  0.32932  1.0000 0.80991513
Co  Co16      1.0  0.18744  0.93842  0.17841  1.0000 0.8674454586
H   H1        1.0  0.58910  0.94580  0.69150  1.0000 0.1025472916
H   H2        1.0  0.68830  0.06610  0.66060  1.0000 0.1108330167
H   H3        1.0  0.67120  0.99610  0.58660  1.0000 0.1294818134
H   H4        1.0  0.61480  0.89430  0.56790  1.0000 0.1294818134
H   H5        1.0  0.51580  0.63280  0.46160  1.0000 0.1191661753
H   H6        1.0  0.49400  0.55290  0.39100  1.0000 0.1362037556
H   H7        1.0  0.42520  0.47050  0.37130  1.0000 0.1191661753
H   H8        1.0  0.40590  0.53180  0.49400  1.0000 0.1108330167
H   H9        1.0  0.39820  0.60670  0.68720  1.0000 0.1108330167
H   H10       1.0  0.40590  0.64880  0.82520  1.0000 0.1025472916
H   H11       1.0  0.47400  0.73290  0.84260  1.0000 0.1362037556
H   H12       1.0  0.50380  0.75630  0.78020  1.0000 0.1191661753
H   H13       1.0  0.87970  0.80350  0.25730  1.0000 0.1025472916
H   H14       1.0  0.74990  0.90550  0.24490  1.0000 0.1108330167
H   H15       1.0  0.75670  0.85210  0.32090  1.0000 0.1294818134
H   H16       1.0  0.82780  0.77100  0.36720  1.0000 0.1294818134
H   H17       1.0  0.96170  0.60120  0.54620  1.0000 0.1294818134
H   H18       1.0  0.99310  0.58380  0.63580  1.0000 0.1294818134
H   H19       1.0  0.08430  0.56660  0.68850  1.0000 0.1108330167
H   H20       1.0  0.11360  0.57520  0.56550  1.0000 0.1108330167
H   H21       1.0  0.11410  0.47960  0.36120  1.0000 0.1108330167
H   H22       1.0  0.12130  0.46990  0.22650  1.0000 0.1025472916
H   H23       1.0  0.05100  0.55180  0.18910  1.0000 0.1294818134
H   H24       1.0  0.00990  0.59800  0.23810  1.0000 0.1191661753
H   H25       1.0  0.17790  0.77420  0.72590  1.0000 0.1191661753
H   H26       1.0  0.18570  0.89660  0.75140  1.0000 0.1108330167
H   H27       1.0  0.34570  0.87330  0.83280  1.0000 0.1191661753
H   H28       1.0  0.33800  0.75060  0.80830  1.0000 0.1108330167
H   H29       1.0  0.19350  0.37560  0.78690  1.0000 0.1294818134
H   H30       1.0  0.22360  0.26850  0.83560  1.0000 0.1191661753
H   H31       1.0  0.34610  0.25700  0.79600  1.0000 0.1191661753
H   H32       1.0  0.31590  0.36500  0.74760  1.0000 0.1191661753
H   H33       1.0  0.17210  0.55500  0.52860  1.0000 0.1191661753
H   H34       1.0  0.17380  0.51880  0.45130  1.0000 0.1191661753
H   H35       1.0  0.33450  0.54500  0.51840  1.0000 0.1108330167
H   H36       1.0  0.33333  0.58000  0.59620  1.0000 0.1108330167
H   H37       1.0  0.41090  0.44580  0.80850  1.0000 0.1025472916
H   H38       1.0  0.31170  0.56610  0.83940  1.0000 0.1108330167
H   H39       1.0  0.32880  0.49610  0.91340  1.0000 0.1294818134
H   H40       1.0  0.38520  0.39430  0.93210  1.0000 0.1294818134
H   H41       1.0  0.48420  0.13280  0.03840  1.0000 0.1191661753
H   H42       1.0  0.50600  0.05290  0.10900  1.0000 0.1362037556
H   H43       1.0  0.57480  0.97050  0.12870  1.0000 0.1191661753
H   H44       1.0  0.59410  0.03180  0.00600  1.0000 0.1108330167
H   H45       1.0  0.60180  0.10670  0.81280  1.0000 0.1108330167
H   H46       1.0  0.59410  0.14880  0.67480  1.0000 0.1025472916
H   H47       1.0  0.52600  0.23290  0.65740  1.0000 0.1362037556
H   H48       1.0  0.49620  0.25630  0.71980  1.0000 0.1191661753
H   H49       1.0  0.12030  0.30350  0.24270  1.0000 0.1025472916
H   H50       1.0  0.25010  0.40550  0.25510  1.0000 0.1108330167
H   H51       1.0  0.24330  0.35210  0.17910  1.0000 0.1294818134
H   H52       1.0  0.17220  0.27100  0.13280  1.0000 0.1294818134
H   H53       1.0  0.03830  0.10120  0.95380  1.0000 0.1294818134
H   H54       1.0  0.00690  0.08380  0.86420  1.0000 0.1294818134
H   H55       1.0  0.91570  0.06660  0.81150  1.0000 0.1191661753
H   H56       1.0  0.88640  0.07520  0.93450  1.0000 0.1108330167
H   H57       1.0  0.88590  0.97960  0.13880  1.0000 0.1108330167
H   H58       1.0  0.87870  0.96990  0.27350  1.0000 0.1025472916
H   H59       1.0  0.94900  0.05180  0.31090  1.0000 0.1294818134
H   H60       1.0  0.99010  0.09800  0.26190  1.0000 0.1191661753
H   H61       1.0  0.82210  0.27420  0.77410  1.0000 0.1191661753
H   H62       1.0  0.81430  0.39660  0.74860  1.0000 0.1108330167
H   H63       1.0  0.65430  0.37330  0.66720  1.0000 0.1191661753
H   H64       1.0  0.66200  0.25060  0.69170  1.0000 0.1108330167
H   H65       1.0  0.80650  0.87560  0.71310  1.0000 0.1294818134
H   H66       1.0  0.77640  0.76850  0.66440  1.0000 0.1191661753
H   H67       1.0  0.65390  0.75700  0.70400  1.0000 0.1191661753
H   H68       1.0  0.68410  0.86500  0.75240  1.0000 0.1191661753
H   H69       1.0  0.82790  0.05500  0.97140  1.0000 0.1191661753
H   H70       1.0  0.82620  0.01880  0.04870  1.0000 0.1191661753
H   H71       1.0  0.66550  0.04500  0.98160  1.0000 0.1108330167
H   H72       1.0  0.66667  0.08000  0.90380  1.0000 0.1108330167
H   H73       1.0  0.41090  0.05420  0.30850  1.0000 0.1025472916
H   H74       1.0  0.31170  0.93390  0.33940  1.0000 0.1108330167
H   H75       1.0  0.32880  0.00390  0.41340  1.0000 0.1294818134
H   H76       1.0  0.38520  0.10570  0.43210  1.0000 0.1294818134
H   H77       1.0  0.48420  0.36720  0.53840  1.0000 0.1191661753
H   H78       1.0  0.50600  0.44710  0.60900  1.0000 0.1362037556
H   H79       1.0  0.57480  0.52950  0.62870  1.0000 0.1191661753
H   H80       1.0  0.59410  0.46820  0.50600  1.0000 0.1108330167
H   H81       1.0  0.60180  0.39330  0.31280  1.0000 0.1108330167
H   H82       1.0  0.59410  0.35120  0.17480  1.0000 0.1025472916
H   H83       1.0  0.52600  0.26710  0.15740  1.0000 0.1362037556
H   H84       1.0  0.49620  0.24370  0.21980  1.0000 0.1191661753
H   H85       1.0  0.12030  0.19650  0.74270  1.0000 0.1025472916
H   H86       1.0  0.25010  0.09450  0.75510  1.0000 0.1108330167
H   H87       1.0  0.24330  0.14790  0.67910  1.0000 0.1294818134
H   H88       1.0  0.17220  0.22900  0.63280  1.0000 0.1294818134
H   H89       1.0  0.03830  0.39880  0.45380  1.0000 0.1294818134
H   H90       1.0  0.00690  0.41620  0.36420  1.0000 0.1294818134
H   H91       1.0  0.91570  0.43340  0.31150  1.0000 0.1191661753
H   H92       1.0  0.88640  0.42480  0.43450  1.0000 0.1108330167
H   H93       1.0  0.88590  0.52040  0.63880  1.0000 0.1108330167
H   H94       1.0  0.87870  0.53010  0.77350  1.0000 0.1025472916
H   H95       1.0  0.94900  0.44820  0.81090  1.0000 0.1294818134
H   H96       1.0  0.99010  0.40200  0.76190  1.0000 0.1191661753
H   H97       1.0  0.82210  0.22580  0.27410  1.0000 0.1191661753
H   H98       1.0  0.81430  0.10340  0.24860  1.0000 0.1108330167
H   H99       1.0  0.65430  0.12670  0.16720  1.0000 0.1191661753
H   H100      1.0  0.66200  0.24940  0.19170  1.0000 0.1108330167
H   H101      1.0  0.80650  0.62440  0.21310  1.0000 0.1294818134
H   H102      1.0  0.77640  0.73150  0.16440  1.0000 0.1191661753
H   H103      1.0  0.65390  0.74300  0.20400  1.0000 0.1191661753
H   H104      1.0  0.68410  0.63500  0.25240  1.0000 0.1191661753
H   H105      1.0  0.82790  0.44500  0.47140  1.0000 0.1191661753
H   H106      1.0  0.82620  0.48120  0.54870  1.0000 0.1191661753
H   H107      1.0  0.66550  0.45500  0.48160  1.0000 0.1108330167
H   H108      1.0  0.66667  0.42000  0.40380  1.0000 0.1108330167
H   H109      1.0  0.58910  0.55420  0.19150  1.0000 0.1025472916
H   H110      1.0  0.68830  0.43390  0.16060  1.0000 0.1108330167
H   H111      1.0  0.67120  0.50390  0.08660  1.0000 0.1294818134
H   H112      1.0  0.61480  0.60570  0.06790  1.0000 0.1294818134
H   H113      1.0  0.51580  0.86720  0.96160  1.0000 0.1191661753
H   H114      1.0  0.49400  0.94710  0.89100  1.0000 0.1362037556
H   H115      1.0  0.42520  0.02950  0.87130  1.0000 0.1191661753
H   H116      1.0  0.40590  0.96820  0.99400  1.0000 0.1108330167
H   H117      1.0  0.39820  0.89330  0.18720  1.0000 0.1108330167
H   H118      1.0  0.40590  0.85120  0.32520  1.0000 0.1025472916
H   H119      1.0  0.47400  0.76710  0.34260  1.0000 0.1362037556
H   H120      1.0  0.50380  0.74370  0.28020  1.0000 0.1191661753
H   H121      1.0  0.87970  0.69650  0.75730  1.0000 0.1025472916
H   H122      1.0  0.74990  0.59450  0.74490  1.0000 0.1108330167
H   H123      1.0  0.75670  0.64790  0.82090  1.0000 0.1294818134
H   H124      1.0  0.82780  0.72900  0.86720  1.0000 0.1294818134
H   H125      1.0  0.96170  0.89880  0.04620  1.0000 0.1294818134
H   H126      1.0  0.99310  0.91620  0.13580  1.0000 0.1294818134
H   H127      1.0  0.08430  0.93340  0.18850  1.0000 0.1191661753
H   H128      1.0  0.11360  0.92480  0.06550  1.0000 0.1108330167
H   H129      1.0  0.11410  0.02040  0.86120  1.0000 0.1108330167
H   H130      1.0  0.12130  0.03010  0.72650  1.0000 0.1025472916
H   H131      1.0  0.05100  0.94820  0.68910  1.0000 0.1294818134
H   H132      1.0  0.00990  0.90200  0.73810  1.0000 0.1191661753
H   H133      1.0  0.17790  0.72580  0.22590  1.0000 0.1191661753
H   H134      1.0  0.18570  0.60340  0.25140  1.0000 0.1108330167
H   H135      1.0  0.34570  0.62670  0.33280  1.0000 0.1191661753
H   H136      1.0  0.33800  0.74940  0.30830  1.0000 0.1108330167
H   H137      1.0  0.19350  0.12440  0.28690  1.0000 0.1294818134
H   H138      1.0  0.22360  0.23150  0.33560  1.0000 0.1191661753
H   H139      1.0  0.34610  0.24300  0.29600  1.0000 0.1191661753
H   H140      1.0  0.31590  0.13500  0.24760  1.0000 0.1191661753
H   H141      1.0  0.17210  0.94500  0.02860  1.0000 0.1191661753
H   H142      1.0  0.17380  0.98120  0.95130  1.0000 0.1191661753
H   H143      1.0  0.33450  0.95500  0.01840  1.0000 0.1108330167
H   H144      1.0  0.33333  0.92000  0.09620  1.0000 0.1108330167
C   C1        1.0  0.60710  0.95480  0.67050  1.0000 0.0511164533
C   C2        1.0  0.66440  0.02580  0.65230  1.0000 0.0718312578
C   C3        1.0  0.65480  0.98390  0.60840  1.0000 -0.1412338643
C   C4        1.0  0.62110  0.92440  0.59720  1.0000 -0.0587304941
C   C5        1.0  0.59650  0.90870  0.62884  1.0000 -0.0128542226
C   C6        1.0  0.56280  0.84200  0.62250  1.0000 0.3518624252
C   C7        1.0  0.52150  0.74140  0.57493  1.0000 0.3866438713
C   C8        1.0  0.47740  0.63900  0.53210  1.0000 0.3589418205
C   C9        1.0  0.46320  0.58980  0.48540  1.0000 -0.0128542226
C   C10       1.0  0.48900  0.59660  0.45420  1.0000 -0.0716648696
C   C11       1.0  0.47550  0.55050  0.41190  1.0000 -0.1412338643
C   C12       1.0  0.43510  0.50130  0.40090  1.0000 0.0781466188
C   C13       1.0  0.42350  0.53750  0.47240  1.0000 0.0511164533
C   C14       1.0  0.47180  0.66380  0.60780  1.0000 0.3866438713
C   C15       1.0  0.47200  0.69700  0.68460  1.0000 0.3589418205
C   C16       1.0  0.45400  0.68270  0.72600  1.0000 -0.0128542226
C   C17       1.0  0.41390  0.63320  0.71910  1.0000 0.0597691561
C   C18       1.0  0.41820  0.65740  0.79950  1.0000 0.0718312578
C   C19       1.0  0.45870  0.70780  0.81010  1.0000 -0.1565887323
C   C20       1.0  0.47640  0.72110  0.77360  1.0000 -0.0587304941
C   C21       1.0  0.51870  0.77190  0.65620  1.0000 0.3699470805
C   C22       1.0  0.50420  0.72570  0.61313  1.0000 -0.1936022519
C   C23       1.0  0.85430  0.81310  0.27040  1.0000 0.0597691561
C   C24       1.0  0.77870  0.87280  0.26340  1.0000 0.0718312578
C   C25       1.0  0.78240  0.84120  0.30850  1.0000 -0.1412338643
C   C26       1.0  0.82420  0.79320  0.33570  1.0000 -0.0544959409
C   C27       1.0  0.86040  0.77830  0.31610  1.0000 -0.0193544692
C   C28       1.0  0.90540  0.72590  0.34280  1.0000 0.3589418205
C   C29       1.0  0.95950  0.66490  0.41760  1.0000 0.3589418205
C   C30       1.0  0.01810  0.60510  0.48990  1.0000 0.3518624252
C   C31       1.0  0.03520  0.59040  0.54640  1.0000 -0.0128542226
C   C32       1.0  0.99880  0.59290  0.56790  1.0000 -0.0587304941
C   C33       1.0  0.01740  0.58330  0.62070  1.0000 -0.1261443077
C   C34       1.0  0.07170  0.57290  0.65190  1.0000 0.0718312578
C   C35       1.0  0.08880  0.57850  0.57990  1.0000 0.0597691561
C   C36       1.0  0.03040  0.58870  0.41650  1.0000 0.3866438713
C   C37       1.0  0.03490  0.57770  0.33850  1.0000 0.3518624252
C   C38       1.0  0.05890  0.54490  0.30660  1.0000 -0.0193544692
C   C39       1.0  0.10080  0.49480  0.32590  1.0000 0.0597691561
C   C40       1.0  0.10510  0.48860  0.24700  1.0000 0.0718312578
C   C41       1.0  0.06320  0.53750  0.22460  1.0000 -0.1504860027
C   C42       1.0  0.03940  0.56520  0.25350  1.0000 -0.0716648696
C   C43       1.0  0.96910  0.65210  0.33790  1.0000 0.3756703333
C   C44       1.0  0.98630  0.63590  0.39100  1.0000 -0.2018382168
C   C45       1.0  0.25270  0.67250  0.74820  1.0000 0.5833261655
C   C46       1.0  0.25740  0.75090  0.76530  1.0000 -0.0193544692
C   C47       1.0  0.21210  0.79410  0.74800  1.0000 -0.1091516524
C   C48       1.0  0.21680  0.86680  0.76330  1.0000 -0.1091516524
C   C49       1.0  0.26610  0.89650  0.79540  1.0000 -0.0193544692
C   C50       1.0  0.31140  0.85310  0.81150  1.0000 -0.1091516524
C   C51       1.0  0.30680  0.78030  0.79670  1.0000 -0.1167250946
C   C52       1.0  0.26950  0.97430  0.81360  1.0000 0.5833261655
C   C53       1.0  0.23280  0.44920  0.73197  1.0000 0.5555772827
C   C54       1.0  0.25230  0.37990  0.76295  1.0000 -0.0128542226
C   C55       1.0  0.22450  0.35150  0.78890  1.0000 -0.1167250946
C   C56       1.0  0.24230  0.28800  0.81750  1.0000 -0.1167250946
C   C57       1.0  0.28730  0.25270  0.82005  1.0000 -0.0042618424
C   C58       1.0  0.31510  0.28120  0.79410  1.0000 -0.1091516524
C   C59       1.0  0.29720  0.34510  0.76550  1.0000 -0.1167250946
C   C60       1.0  0.30600  0.18260  0.85051  1.0000 0.5525593505
C   C61       1.0  0.25270  0.58020  0.62220  1.0000 0.6003683852
C   C62       1.0  0.25310  0.56870  0.57070  1.0000 -0.0285676787
C   C63       1.0  0.20530  0.55160  0.52690  1.0000 -0.101251172
C   C64       1.0  0.20640  0.52990  0.48110  1.0000 -0.1091516524
C   C65       1.0  0.25450  0.52420  0.47810  1.0000 -0.0128542226
C   C66       1.0  0.30160  0.54530  0.52090  1.0000 -0.1091516524
C   C67       1.0  0.30090  0.56660  0.56690  1.0000 -0.101251172
C   C68       1.0  0.25690  0.49060  0.43110  1.0000 0.5896569451
C   C69       1.0  0.39290  0.45480  0.82950  1.0000 0.0511164533
C   C70       1.0  0.33560  0.52580  0.84770  1.0000 0.0718312578
C   C71       1.0  0.34520  0.48390  0.89160  1.0000 -0.1412338643
C   C72       1.0  0.37890  0.42440  0.90280  1.0000 -0.0587304941
C   C73       1.0  0.40350  0.40870  0.87116  1.0000 -0.0128542226
C   C74       1.0  0.43720  0.34200  0.87750  1.0000 0.3518624252
C   C75       1.0  0.47850  0.24140  0.92507  1.0000 0.3866438713
C   C76       1.0  0.52260  0.13900  0.96790  1.0000 0.3589418205
C   C77       1.0  0.53680  0.08980  0.01460  1.0000 -0.0128542226
C   C78       1.0  0.51100  0.09660  0.04580  1.0000 -0.0716648696
C   C79       1.0  0.52450  0.05050  0.08810  1.0000 -0.1412338643
C   C80       1.0  0.56490  0.00130  0.09910  1.0000 0.0781466188
C   C81       1.0  0.57650  0.03750  0.02760  1.0000 0.0511164533
C   C82       1.0  0.52820  0.16380  0.89220  1.0000 0.3866438713
C   C83       1.0  0.52800  0.19700  0.81540  1.0000 0.3589418205
C   C84       1.0  0.54600  0.18270  0.77400  1.0000 -0.0128542226
C   C85       1.0  0.58610  0.13320  0.78090  1.0000 0.0597691561
C   C86       1.0  0.58180  0.15740  0.70050  1.0000 0.0718312578
C   C87       1.0  0.54130  0.20780  0.68990  1.0000 -0.1565887323
C   C88       1.0  0.52360  0.22110  0.72640  1.0000 -0.0587304941
C   C89       1.0  0.48130  0.27190  0.84380  1.0000 0.3699470805
C   C90       1.0  0.49580  0.22570  0.88687  1.0000 -0.1936022519
C   C91       1.0  0.14570  0.31310  0.22960  1.0000 0.0511164533
C   C92       1.0  0.22130  0.37280  0.23660  1.0000 0.0718312578
C   C93       1.0  0.21760  0.34120  0.19150  1.0000 -0.1412338643
C   C94       1.0  0.17580  0.29320  0.16430  1.0000 -0.0544959409
C   C95       1.0  0.13960  0.27830  0.18390  1.0000 -0.0193544692
C   C96       1.0  0.09460  0.22590  0.15720  1.0000 0.3589418205
C   C97       1.0  0.04050  0.16490  0.08240  1.0000 0.3589418205
C   C98       1.0  0.98190  0.10510  0.01010  1.0000 0.3518624252
C   C99       1.0  0.96480  0.09040  0.95360  1.0000 -0.0128542226
C   C100      1.0  0.00120  0.09290  0.93210  1.0000 -0.0587304941
C   C101      1.0  0.98260  0.08330  0.87930  1.0000 -0.1261443077
C   C102      1.0  0.92830  0.07290  0.84810  1.0000 0.0718312578
C   C103      1.0  0.91120  0.07850  0.92010  1.0000 0.0597691561
C   C104      1.0  0.96960  0.08870  0.08350  1.0000 0.3866438713
C   C105      1.0  0.96510  0.07770  0.16150  1.0000 0.3518624252
C   C106      1.0  0.94110  0.04490  0.19340  1.0000 -0.0193544692
C   C107      1.0  0.89920  0.99480  0.17410  1.0000 0.0597691561
C   C108      1.0  0.89490  0.98860  0.25300  1.0000 0.0718312578
C   C109      1.0  0.93680  0.03750  0.27540  1.0000 -0.1504860027
C   C110      1.0  0.96060  0.06520  0.24650  1.0000 -0.0587304941
C   C111      1.0  0.03090  0.15210  0.16210  1.0000 0.3756703333
C   C112      1.0  0.01370  0.13590  0.10900  1.0000 -0.2018382168
C   C113      1.0  0.74730  0.17250  0.75180  1.0000 0.5896569451
C   C114      1.0  0.74260  0.25090  0.73470  1.0000 -0.0128542226
C   C115      1.0  0.78790  0.29410  0.75200  1.0000 -0.1091516524
C   C116      1.0  0.78320  0.36680  0.73670  1.0000 -0.1091516524
C   C117      1.0  0.73390  0.39650  0.70460  1.0000 -0.0193544692
C   C118      1.0  0.68860  0.35310  0.68850  1.0000 -0.1091516524
C   C119      1.0  0.69320  0.28030  0.70330  1.0000 -0.1167250946
C   C120      1.0  0.73050  0.47430  0.68640  1.0000 0.5833261655
C   C121      1.0  0.76720  0.94920  0.76803  1.0000 0.5555772827
C   C122      1.0  0.74770  0.87990  0.73705  1.0000 -0.0128542226
C   C123      1.0  0.77550  0.85150  0.71110  1.0000 -0.1167250946
C   C124      1.0  0.75770  0.78800  0.68250  1.0000 -0.1167250946
C   C125      1.0  0.71270  0.75270  0.67995  1.0000 -0.0042618424
C   C126      1.0  0.68490  0.78120  0.70590  1.0000 -0.1091516524
C   C127      1.0  0.70280  0.84510  0.73450  1.0000 -0.1167250946
C   C128      1.0  0.69400  0.68260  0.64949  1.0000 0.5525593505
C   C129      1.0  0.74730  0.08020  0.87780  1.0000 0.6003683852
C   C130      1.0  0.74690  0.06870  0.92930  1.0000 -0.0285676787
C   C131      1.0  0.79470  0.05160  0.97310  1.0000 -0.101251172
C   C132      1.0  0.79360  0.02990  0.01890  1.0000 -0.1091516524
C   C133      1.0  0.74550  0.02420  0.02190  1.0000 -0.0128542226
C   C134      1.0  0.69840  0.04530  0.97910  1.0000 -0.1091516524
C   C135      1.0  0.69910  0.06660  0.93310  1.0000 -0.101251172
C   C136      1.0  0.74310  0.99060  0.06890  1.0000 0.5896569451
C   C137      1.0  0.39290  0.04520  0.32950  1.0000 0.0511164533
C   C138      1.0  0.33560  0.97420  0.34770  1.0000 0.0718312578
C   C139      1.0  0.34520  0.01610  0.39160  1.0000 -0.1412338643
C   C140      1.0  0.37890  0.07560  0.40280  1.0000 -0.0587304941
C   C141      1.0  0.40350  0.09130  0.37116  1.0000 -0.0128542226
C   C142      1.0  0.43720  0.15800  0.37750  1.0000 0.3518624252
C   C143      1.0  0.47850  0.25860  0.42507  1.0000 0.3866438713
C   C144      1.0  0.52260  0.36100  0.46790  1.0000 0.3589418205
C   C145      1.0  0.53680  0.41020  0.51460  1.0000 -0.0128542226
C   C146      1.0  0.51100  0.40340  0.54580  1.0000 -0.0716648696
C   C147      1.0  0.52450  0.44950  0.58810  1.0000 -0.1412338643
C   C148      1.0  0.56490  0.49870  0.59910  1.0000 0.0781466188
C   C149      1.0  0.57650  0.46250  0.52760  1.0000 0.0511164533
C   C150      1.0  0.52820  0.33620  0.39220  1.0000 0.3866438713
C   C151      1.0  0.52800  0.30300  0.31540  1.0000 0.3589418205
C   C152      1.0  0.54600  0.31730  0.27400  1.0000 -0.0128542226
C   C153      1.0  0.58610  0.36680  0.28090  1.0000 0.0597691561
C   C154      1.0  0.58180  0.34260  0.20050  1.0000 0.0718312578
C   C155      1.0  0.54130  0.29220  0.18990  1.0000 -0.1565887323
C   C156      1.0  0.52360  0.27890  0.22640  1.0000 -0.0587304941
C   C157      1.0  0.48130  0.22810  0.34380  1.0000 0.3699470805
C   C158      1.0  0.49580  0.27430  0.38687  1.0000 -0.1936022519
C   C159      1.0  0.14570  0.18690  0.72960  1.0000 0.0511164533
C   C160      1.0  0.22130  0.12720  0.73660  1.0000 0.0718312578
C   C161      1.0  0.21760  0.15880  0.69150  1.0000 -0.1412338643
C   C162      1.0  0.17580  0.20680  0.66430  1.0000 -0.0587304941
C   C163      1.0  0.13960  0.22170  0.68390  1.0000 -0.0193544692
C   C164      1.0  0.09460  0.27410  0.65720  1.0000 0.3589418205
C   C165      1.0  0.04050  0.33510  0.58240  1.0000 0.3589418205
C   C166      1.0  0.98190  0.39490  0.51010  1.0000 0.3518624252
C   C167      1.0  0.96480  0.40960  0.45360  1.0000 -0.0128542226
C   C168      1.0  0.00120  0.40710  0.43210  1.0000 -0.0587304941
C   C169      1.0  0.98260  0.41670  0.37930  1.0000 -0.1261443077
C   C170      1.0  0.92830  0.42710  0.34810  1.0000 0.0718312578
C   C171      1.0  0.91120  0.42150  0.42010  1.0000 0.0597691561
C   C172      1.0  0.96960  0.41130  0.58350  1.0000 0.3866438713
C   C173      1.0  0.96510  0.42230  0.66150  1.0000 0.3518624252
C   C174      1.0  0.94110  0.45510  0.69340  1.0000 -0.0285676787
C   C175      1.0  0.89920  0.50520  0.67410  1.0000 0.0597691561
C   C176      1.0  0.89490  0.51140  0.75300  1.0000 0.0718312578
C   C177      1.0  0.93680  0.46250  0.77540  1.0000 -0.1504860027
C   C178      1.0  0.96060  0.43480  0.74650  1.0000 -0.0587304941
C   C179      1.0  0.03090  0.34790  0.66210  1.0000 0.3756703333
C   C180      1.0  0.01370  0.36410  0.60900  1.0000 -0.2018382168
C   C181      1.0  0.74730  0.32750  0.25180  1.0000 0.5896569451
C   C182      1.0  0.74260  0.24910  0.23470  1.0000 -0.0128542226
C   C183      1.0  0.78790  0.20590  0.25200  1.0000 -0.1091516524
C   C184      1.0  0.78320  0.13320  0.23670  1.0000 -0.1091516524
C   C185      1.0  0.73390  0.10350  0.20460  1.0000 -0.0193544692
C   C186      1.0  0.68860  0.14690  0.18850  1.0000 -0.1091516524
C   C187      1.0  0.69320  0.21970  0.20330  1.0000 -0.1167250946
C   C188      1.0  0.73050  0.02570  0.18640  1.0000 0.5833261655
C   C189      1.0  0.76720  0.55080  0.26803  1.0000 0.5555772827
C   C190      1.0  0.74770  0.62010  0.23705  1.0000 -0.0128542226
C   C191      1.0  0.77550  0.64850  0.21110  1.0000 -0.1167250946
C   C192      1.0  0.75770  0.71200  0.18250  1.0000 -0.1167250946
C   C193      1.0  0.71270  0.74730  0.17995  1.0000 -0.0042618424
C   C194      1.0  0.68490  0.71880  0.20590  1.0000 -0.1091516524
C   C195      1.0  0.70280  0.65490  0.23450  1.0000 -0.1167250946
C   C196      1.0  0.69400  0.81740  0.14949  1.0000 0.5525593505
C   C197      1.0  0.74730  0.41980  0.37780  1.0000 0.6003683852
C   C198      1.0  0.74690  0.43130  0.42930  1.0000 -0.0285676787
C   C199      1.0  0.79470  0.44840  0.47310  1.0000 -0.101251172
C   C200      1.0  0.79360  0.47010  0.51890  1.0000 -0.1091516524
C   C201      1.0  0.74550  0.47580  0.52190  1.0000 -0.0128542226
C   C202      1.0  0.69840  0.45470  0.47910  1.0000 -0.1091516524
C   C203      1.0  0.69910  0.43340  0.43310  1.0000 -0.101251172
C   C204      1.0  0.74310  0.50940  0.56890  1.0000 0.5896569451
C   C205      1.0  0.60710  0.54520  0.17050  1.0000 0.0511164533
C   C206      1.0  0.66440  0.47420  0.15230  1.0000 0.0718312578
C   C207      1.0  0.65480  0.51610  0.10840  1.0000 -0.1412338643
C   C208      1.0  0.62110  0.57560  0.09720  1.0000 -0.0587304941
C   C209      1.0  0.59650  0.59130  0.12884  1.0000 -0.0128542226
C   C210      1.0  0.56280  0.65800  0.12250  1.0000 0.3518624252
C   C211      1.0  0.52150  0.75860  0.07493  1.0000 0.3866438713
C   C212      1.0  0.47740  0.86100  0.03210  1.0000 0.3589418205
C   C213      1.0  0.46320  0.91020  0.98540  1.0000 -0.0128542226
C   C214      1.0  0.48900  0.90340  0.95420  1.0000 -0.0762595488
C   C215      1.0  0.47550  0.94950  0.91190  1.0000 -0.1412338643
C   C216      1.0  0.43510  0.99870  0.90090  1.0000 0.0781466188
C   C217      1.0  0.42350  0.96250  0.97240  1.0000 0.0511164533
C   C218      1.0  0.47180  0.83620  0.10780  1.0000 0.3866438713
C   C219      1.0  0.47200  0.80300  0.18460  1.0000 0.3589418205
C   C220      1.0  0.45400  0.81730  0.22600  1.0000 -0.0128542226
C   C221      1.0  0.41390  0.86680  0.21910  1.0000 0.0597691561
C   C222      1.0  0.41820  0.84260  0.29950  1.0000 0.0718312578
C   C223      1.0  0.45870  0.79220  0.31010  1.0000 -0.1565887323
C   C224      1.0  0.47640  0.77890  0.27360  1.0000 -0.0587304941
C   C225      1.0  0.51870  0.72810  0.15620  1.0000 0.3699470805
C   C226      1.0  0.50420  0.77430  0.11313  1.0000 -0.1936022519
C   C227      1.0  0.85430  0.68690  0.77040  1.0000 0.0597691561
C   C228      1.0  0.77870  0.62720  0.76340  1.0000 0.0718312578
C   C229      1.0  0.78240  0.65880  0.80850  1.0000 -0.1412338643
C   C230      1.0  0.82420  0.70680  0.83570  1.0000 -0.0544959409
C   C231      1.0  0.86040  0.72170  0.81610  1.0000 -0.0193544692
C   C232      1.0  0.90540  0.77410  0.84280  1.0000 0.3589418205
C   C233      1.0  0.95950  0.83510  0.91760  1.0000 0.3589418205
C   C234      1.0  0.01810  0.89490  0.98990  1.0000 0.3518624252
C   C235      1.0  0.03520  0.90960  0.04640  1.0000 -0.0128542226
C   C236      1.0  0.99880  0.90710  0.06790  1.0000 -0.0587304941
C   C237      1.0  0.01740  0.91670  0.12070  1.0000 -0.1261443077
C   C238      1.0  0.07170  0.92710  0.15190  1.0000 0.0718312578
C   C239      1.0  0.08880  0.92150  0.07990  1.0000 0.0597691561
C   C240      1.0  0.03040  0.91130  0.91650  1.0000 0.3866438713
C   C241      1.0  0.03490  0.92230  0.83850  1.0000 0.3518624252
C   C242      1.0  0.05890  0.95510  0.80660  1.0000 -0.0193544692
C   C243      1.0  0.10080  0.00520  0.82590  1.0000 0.0597691561
C   C244      1.0  0.10510  0.01140  0.74700  1.0000 0.0718312578
C   C245      1.0  0.06320  0.96250  0.72460  1.0000 -0.1504860027
C   C246      1.0  0.03940  0.93480  0.75350  1.0000 -0.0716648696
C   C247      1.0  0.96910  0.84790  0.83790  1.0000 0.3756703333
C   C248      1.0  0.98630  0.86410  0.89100  1.0000 -0.2018382168
C   C249      1.0  0.25270  0.82750  0.24820  1.0000 0.5896569451
C   C250      1.0  0.25740  0.74910  0.26530  1.0000 -0.0193544692
C   C251      1.0  0.21210  0.70590  0.24800  1.0000 -0.1091516524
C   C252      1.0  0.21680  0.63320  0.26330  1.0000 -0.1091516524
C   C253      1.0  0.26610  0.60350  0.29540  1.0000 -0.0193544692
C   C254      1.0  0.31140  0.64690  0.31150  1.0000 -0.1091516524
C   C255      1.0  0.30680  0.71970  0.29670  1.0000 -0.1167250946
C   C256      1.0  0.26950  0.52570  0.31360  1.0000 0.5833261655
C   C257      1.0  0.23280  0.05080  0.23197  1.0000 0.5555772827
C   C258      1.0  0.25230  0.12010  0.26295  1.0000 -0.0128542226
C   C259      1.0  0.22450  0.14850  0.28890  1.0000 -0.1167250946
C   C260      1.0  0.24230  0.21200  0.31750  1.0000 -0.1167250946
C   C261      1.0  0.28730  0.24730  0.32005  1.0000 -0.0042618424
C   C262      1.0  0.31510  0.21880  0.29410  1.0000 -0.1091516524
C   C263      1.0  0.29720  0.15490  0.26550  1.0000 -0.1167250946
C   C264      1.0  0.30600  0.31740  0.35051  1.0000 0.5525593505
C   C265      1.0  0.25270  0.91980  0.12220  1.0000 0.6003683852
C   C266      1.0  0.25310  0.93130  0.07070  1.0000 -0.0285676787
C   C267      1.0  0.20530  0.94840  0.02690  1.0000 -0.101251172
C   C268      1.0  0.20640  0.97010  0.98110  1.0000 -0.1091516524
C   C269      1.0  0.25450  0.97580  0.97810  1.0000 -0.0128542226
C   C270      1.0  0.30160  0.95470  0.02090  1.0000 -0.1091516524
C   C271      1.0  0.30090  0.93340  0.06690  1.0000 -0.101251172
C   C272      1.0  0.25690  0.00940  0.93110  1.0000 0.5896569451
N   N1        1.0  0.64113  0.01140  0.68348  1.0000 -0.269293814
N   N2        1.0  0.55150  0.80170  0.57945  1.0000 -0.4087527807
N   N3        1.0  0.50834  0.69650  0.53333  1.0000 -0.4284417341
N   N4        1.0  0.40898  0.49460  0.43005  1.0000 -0.2414867732
N   N5        1.0  0.45804  0.61950  0.56560  1.0000 -0.4284417341
N   N6        1.0  0.45486  0.64950  0.64436  1.0000 -0.4284417341
N   N7        1.0  0.39574  0.62020  0.75452  1.0000 -0.2453860408
N   N8        1.0  0.50208  0.75670  0.69304  1.0000 -0.4192022511
N   N9        1.0  0.54887  0.83130  0.66108  1.0000 -0.4192022511
N   N10       1.0  0.81409  0.85970  0.24414  1.0000 -0.269293814
N   N11       1.0  0.91722  0.71190  0.39256  1.0000 -0.4021222503
N   N12       1.0  0.97461  0.64850  0.46806  1.0000 -0.4087527807
N   N13       1.0  0.10722  0.57140  0.63190  1.0000 -0.2414867732
N   N14       1.0  0.04775  0.57410  0.46829  1.0000 -0.4192022511
N   N15       1.0  0.05560  0.55920  0.38978  1.0000 -0.4284417341
N   N16       1.0  0.12350  0.46660  0.29669  1.0000 -0.2414867732
N   N17       1.0  0.99330  0.62230  0.31129  1.0000 -0.4087527807
N   N18       1.0  0.92753  0.69910  0.31339  1.0000 -0.4087527807
N   N19       1.0  0.35887  0.51140  0.81652  1.0000 -0.269293814
N   N20       1.0  0.44850  0.30170  0.92055  1.0000 -0.4087527807
N   N21       1.0  0.49166  0.19650  0.96667  1.0000 -0.4284417341
N   N22       1.0  0.59102  0.99460  0.06995  1.0000 -0.2414867732
N   N23       1.0  0.54196  0.11950  0.93440  1.0000 -0.4284417341
N   N24       1.0  0.54514  0.14950  0.85564  1.0000 -0.4284417341
N   N25       1.0  0.60426  0.12020  0.74548  1.0000 -0.2453860408
N   N26       1.0  0.49792  0.25670  0.80696  1.0000 -0.4192022511
N   N27       1.0  0.45113  0.33130  0.83892  1.0000 -0.4192022511
N   N28       1.0  0.18591  0.35970  0.25586  1.0000 -0.269293814
N   N29       1.0  0.08278  0.21190  0.10744  1.0000 -0.4021222503
N   N30       1.0  0.02539  0.14850  0.03194  1.0000 -0.4021222503
N   N31       1.0  0.89278  0.07140  0.86810  1.0000 -0.2414867732
N   N32       1.0  0.95225  0.07410  0.03171  1.0000 -0.4192022511
N   N33       1.0  0.94440  0.05920  0.11022  1.0000 -0.4284417341
N   N34       1.0  0.87650  0.96660  0.20331  1.0000 -0.2414867732
N   N35       1.0  0.00670  0.12230  0.18871  1.0000 -0.4087527807
N   N36       1.0  0.07247  0.19910  0.18661  1.0000 -0.4087527807
N   N37       1.0  0.35887  0.98860  0.31652  1.0000 -0.269293814
N   N38       1.0  0.44850  0.19830  0.42055  1.0000 -0.4087527807
N   N39       1.0  0.49166  0.30350  0.46667  1.0000 -0.4284417341
N   N40       1.0  0.59102  0.50540  0.56995  1.0000 -0.2414867732
N   N41       1.0  0.54196  0.38050  0.43440  1.0000 -0.4284417341
N   N42       1.0  0.54514  0.35050  0.35564  1.0000 -0.4284417341
N   N43       1.0  0.60426  0.37980  0.24548  1.0000 -0.2453860408
N   N44       1.0  0.49792  0.24330  0.30696  1.0000 -0.4192022511
N   N45       1.0  0.45113  0.16870  0.33892  1.0000 -0.4192022511
N   N46       1.0  0.18591  0.14030  0.75586  1.0000 -0.269293814
N   N47       1.0  0.08278  0.28810  0.60744  1.0000 -0.4021222503
N   N48       1.0  0.02539  0.35150  0.53194  1.0000 -0.4021222503
N   N49       1.0  0.89278  0.42860  0.36810  1.0000 -0.2414867732
N   N50       1.0  0.95225  0.42590  0.53171  1.0000 -0.4192022511
N   N51       1.0  0.94440  0.44080  0.61022  1.0000 -0.4284417341
N   N52       1.0  0.87650  0.53340  0.70331  1.0000 -0.2414867732
N   N53       1.0  0.00670  0.37770  0.68871  1.0000 -0.4087527807
N   N54       1.0  0.07247  0.30090  0.68661  1.0000 -0.4021222503
N   N55       1.0  0.64113  0.48860  0.18348  1.0000 -0.269293814
N   N56       1.0  0.55150  0.69830  0.07945  1.0000 -0.4087527807
N   N57       1.0  0.50834  0.80350  0.03333  1.0000 -0.4284417341
N   N58       1.0  0.40898  0.00540  0.93005  1.0000 -0.2414867732
N   N59       1.0  0.45804  0.88050  0.06560  1.0000 -0.4284417341
N   N60       1.0  0.45486  0.85050  0.14436  1.0000 -0.4284417341
N   N61       1.0  0.39574  0.87980  0.25452  1.0000 -0.2453860408
N   N62       1.0  0.50208  0.74330  0.19304  1.0000 -0.4192022511
N   N63       1.0  0.54887  0.66870  0.16108  1.0000 -0.4192022511
N   N64       1.0  0.81409  0.64030  0.74414  1.0000 -0.269293814
N   N65       1.0  0.91722  0.78810  0.89256  1.0000 -0.4021222503
N   N66       1.0  0.97461  0.85150  0.96806  1.0000 -0.4087527807
N   N67       1.0  0.10722  0.92860  0.13190  1.0000 -0.2414867732
N   N68       1.0  0.04775  0.92590  0.96829  1.0000 -0.4192022511
N   N69       1.0  0.05560  0.94080  0.88978  1.0000 -0.4284417341
N   N70       1.0  0.12350  0.03340  0.79669  1.0000 -0.2414867732
N   N71       1.0  0.99330  0.87770  0.81129  1.0000 -0.4087527807
N   N72       1.0  0.92753  0.80090  0.81339  1.0000 -0.4087527807
O   O1        1.0  0.29461  0.63724  0.76127  1.0000 -0.5589772417
O   O2        1.0  0.20538  0.64856  0.72196  1.0000 -0.5390060796
O   O3        1.0  0.31520  0.00444  0.83384  1.0000 -0.5520049064
O   O4        1.0  0.22619  0.00283  0.80698  1.0000 -0.5589772417
O   O5        1.0  0.26242  0.48328  0.71644  1.0000 -0.5702481075
O   O6        1.0  0.18654  0.47240  0.71978  1.0000 -0.5022989018
O   O7        1.0  0.35213  0.15897  0.86164  1.0000 -0.5238073422
O   O8        1.0  0.27508  0.14855  0.86483  1.0000 -0.5772265596
O   O9        1.0  0.29679  0.58780  0.66158  1.0000 -0.5520049064
O   O10       1.0  0.20708  0.57920  0.62222  1.0000 -0.5520049064
O   O11       1.0  0.29943  0.50160  0.42668  1.0000 -0.5702481075
O   O12       1.0  0.21731  0.45371  0.40103  1.0000 -0.5520049064
O   O13       1.0  0.70539  0.13724  0.73873  1.0000 -0.5589772417
O   O14       1.0  0.79462  0.14856  0.77804  1.0000 -0.5390060796
O   O15       1.0  0.68480  0.50444  0.66616  1.0000 -0.5520049064
O   O16       1.0  0.77381  0.50283  0.69302  1.0000 -0.5589772417
O   O17       1.0  0.73758  0.98328  0.78356  1.0000 -0.5702481075
O   O18       1.0  0.81346  0.97240  0.78022  1.0000 -0.5022989018
O   O19       1.0  0.64787  0.65897  0.63836  1.0000 -0.5238073422
O   O20       1.0  0.72492  0.64855  0.63517  1.0000 -0.5772265596
O   O21       1.0  0.70321  0.08780  0.83842  1.0000 -0.5520049064
O   O22       1.0  0.79292  0.07920  0.87778  1.0000 -0.5520049064
O   O23       1.0  0.70057  0.00160  0.07332  1.0000 -0.5702481075
O   O24       1.0  0.78269  0.95371  0.09897  1.0000 -0.5520049064
O   O25       1.0  0.70539  0.36276  0.23873  1.0000 -0.5589772417
O   O26       1.0  0.79462  0.35144  0.27804  1.0000 -0.5390060796
O   O27       1.0  0.68480  0.99556  0.16616  1.0000 -0.5520049064
O   O28       1.0  0.77381  0.99717  0.19302  1.0000 -0.5589772417
O   O29       1.0  0.73758  0.51672  0.28356  1.0000 -0.5702481075
O   O30       1.0  0.81346  0.52760  0.28022  1.0000 -0.5022989018
O   O31       1.0  0.64787  0.84103  0.13836  1.0000 -0.5238073422
O   O32       1.0  0.72492  0.85145  0.13517  1.0000 -0.5772265596
O   O33       1.0  0.70321  0.41220  0.33842  1.0000 -0.5520049064
O   O34       1.0  0.79292  0.42080  0.37778  1.0000 -0.5520049064
O   O35       1.0  0.70057  0.49840  0.57332  1.0000 -0.5702481075
O   O36       1.0  0.78269  0.54629  0.59897  1.0000 -0.5520049064
O   O37       1.0  0.29461  0.86276  0.26127  1.0000 -0.5589772417
O   O38       1.0  0.20538  0.85144  0.22196  1.0000 -0.5390060796
O   O39       1.0  0.31520  0.49556  0.33384  1.0000 -0.5520049064
O   O40       1.0  0.22619  0.49717  0.30698  1.0000 -0.5589772417
O   O41       1.0  0.26242  0.01672  0.21644  1.0000 -0.5702481075
O   O42       1.0  0.18654  0.02760  0.21978  1.0000 -0.5022989018
O   O43       1.0  0.35213  0.34103  0.36164  1.0000 -0.5238073422
O   O44       1.0  0.27508  0.35145  0.36483  1.0000 -0.5772265596
O   O45       1.0  0.29679  0.91220  0.16158  1.0000 -0.5520049064
O   O46       1.0  0.20708  0.92080  0.12222  1.0000 -0.5520049064
O   O47       1.0  0.29943  0.99840  0.92668  1.0000 -0.5702481075
O   O48       1.0  0.21731  0.04629  0.90103  1.0000 -0.5520049064
