# DDEC6 charges by PACMAN v1.1 (https://github.com/mtap-research/PACMAN-charge/)
data_2021[U][nan]2[ASR]1
_chemical_formula_sum              "U5 H4 C18 N2 O20"
_cell_length_a       8.2317
_cell_length_b       10.795
_cell_length_c       12.6002
_cell_angle_alpha    107.875
_cell_angle_beta     105.417
_cell_angle_gamma    96.752

_symmetry_space_group_name_H-M    "P 1"
_symmetry_Int_Tables_number       1

loop_
  _symmetry_equiv_pos_as_xyz
  'x, y, z'

loop_
  _atom_site_type_symbol
  _atom_site_label
  _atom_site_symmetry_multiplicity
  _atom_site_fract_x
  _atom_site_fract_y
  _atom_site_fract_z
  _atom_site_occupancy
  _atom_site_charge
U   U1        1.0  0.41433  0.82153  0.42390  1.0000 2.292473799
U   U2        1.0  0.72195  0.87793  0.71428  1.0000 2.2972853244
U   U3        1.0  0.58567  0.17847  0.57610  1.0000 2.2972853244
U   U4        1.0  0.27805  0.12207  0.28572  1.0000 2.292473799
U   U5        1.0  0.50000  0.50000  0.50000  1.0000 2.0841218294
H   H1        1.0  0.59520  0.39100  0.85150  1.0000 0.0807862566
H   H2        1.0  0.89590  0.59210  0.18850  1.0000 0.0949999154
H   H3        1.0  0.40480  0.60900  0.14850  1.0000 0.0807862566
H   H4        1.0  0.10410  0.40790  0.81150  1.0000 0.0949999154
C   C1        1.0  0.09230  0.78720  0.16610  1.0000 0.6250958503
C   C2        1.0  0.96560  0.77440  0.91380  1.0000 0.5709058107
C   C3        1.0  0.88630  0.67320  0.95680  1.0000 -0.0672552553
C   C4        1.0  0.68060  0.46610  0.90780  1.0000 -0.2007929474
C   C5        1.0  0.94410  0.68030  0.07300  1.0000 -0.0781029775
C   C6        1.0  0.73040  0.48350  0.02610  1.0000 0.0040384331
C   C7        1.0  0.75980  0.56260  0.87330  1.0000 -0.1070007025
C   C8        1.0  0.86120  0.58540  0.10840  1.0000 -0.1915263623
C   C9        1.0  0.70130  0.54300  0.74740  1.0000 0.6017386676
C   C10       1.0  0.90770  0.21280  0.83390  1.0000 0.6250958503
C   C11       1.0  0.03440  0.22560  0.08620  1.0000 0.5709058107
C   C12       1.0  0.11370  0.32680  0.04320  1.0000 -0.0672552553
C   C13       1.0  0.31940  0.53390  0.09220  1.0000 -0.2007929474
C   C14       1.0  0.05590  0.31970  0.92700  1.0000 -0.0781029775
C   C15       1.0  0.26960  0.51650  0.97390  1.0000 0.0040384331
C   C16       1.0  0.24020  0.43740  0.12670  1.0000 -0.1070007025
C   C17       1.0  0.13880  0.41460  0.89160  1.0000 -0.1915263623
C   C18       1.0  0.29870  0.45700  0.25260  1.0000 0.6017386676
N   N1        1.0  0.64010  0.38800  0.06400  1.0000 0.4513304741
N   N2        1.0  0.35990  0.61200  0.93600  1.0000 0.4513304741
O   O1        1.0  0.12330  0.89780  0.15580  1.0000 -0.6348240315
O   O2        1.0  0.17420  0.75530  0.24870  1.0000 -0.6619518935
O   O3        1.0  0.87910  0.86260  0.90020  1.0000 -0.6817146181
O   O4        1.0  0.44980  0.27900  0.45480  1.0000 -1.3856451451
O   O5        1.0  0.61070  0.97890  0.58960  1.0000 -1.3976285397
O   O6        1.0  0.09930  0.75980  0.89110  1.0000 -0.5340331434
O   O7        1.0  0.64240  0.42820  0.67150  1.0000 -0.6891910075
O   O8        1.0  0.70600  0.63950  0.71020  1.0000 -0.7014515042
O   O9        1.0  0.65930  0.41760  0.16860  1.0000 -0.3643663167
O   O10       1.0  0.54270  0.28640  0.98930  1.0000 -0.3740113615
O   O11       1.0  0.87670  0.10220  0.84420  1.0000 -0.6348240315
O   O12       1.0  0.82580  0.24470  0.75130  1.0000 -0.6619518935
O   O13       1.0  0.12090  0.13740  0.09980  1.0000 -0.6817146181
O   O14       1.0  0.55020  0.72100  0.54520  1.0000 -1.3856451451
O   O15       1.0  0.38930  0.02110  0.41040  1.0000 -1.3786252677
O   O16       1.0  0.90070  0.24020  0.10890  1.0000 -0.5340331434
O   O17       1.0  0.35760  0.57180  0.32850  1.0000 -0.6891910075
O   O18       1.0  0.29400  0.36050  0.28980  1.0000 -0.7014515042
O   O19       1.0  0.34070  0.58240  0.83140  1.0000 -0.3643663167
O   O20       1.0  0.45730  0.71360  0.01070  1.0000 -0.3754539131
