# DDEC6 charges by PACMAN v1.1 (https://github.com/mtap-research/PACMAN-charge/)
data_2021[U][ths]3[ASR]3
_chemical_formula_sum              "U4 H48 C108 O24 F12"
_cell_length_a       11.5845
_cell_length_b       12.9023
_cell_length_c       30.0008
_cell_angle_alpha    90
_cell_angle_beta     90
_cell_angle_gamma    90

_symmetry_space_group_name_H-M    "P 1"
_symmetry_Int_Tables_number       1

loop_
  _symmetry_equiv_pos_as_xyz
  'x, y, z'

loop_
  _atom_site_type_symbol
  _atom_site_label
  _atom_site_symmetry_multiplicity
  _atom_site_fract_x
  _atom_site_fract_y
  _atom_site_fract_z
  _atom_site_occupancy
  _atom_site_charge
U   U1        1.0  0.00000  0.25000  0.61928  1.0000 1.8930035595
U   U2        1.0  0.50000  0.75000  0.11928  1.0000 1.8930035595
U   U3        1.0  0.50000  0.25000  0.88072  1.0000 1.8930035595
U   U4        1.0  0.00000  0.75000  0.38072  1.0000 1.8930035595
H   H1        1.0  0.64141  0.04769  0.58838  1.0000 0.1210022352
H   H2        1.0  0.52607  0.93414  0.54951  1.0000 0.1124690614
H   H3        1.0  0.78203  0.88859  0.46171  1.0000 0.1210022352
H   H4        1.0  0.88859  0.01718  0.49640  1.0000 0.1210022352
H   H5        1.0  0.33150  0.78612  0.34867  1.0000 0.1291160125
H   H6        1.0  0.33333  0.79078  0.27162  1.0000 0.1210022352
H   H7        1.0  0.35859  0.45231  0.58838  1.0000 0.1210022352
H   H8        1.0  0.47393  0.56586  0.54951  1.0000 0.1124690614
H   H9        1.0  0.21797  0.61141  0.46171  1.0000 0.1210022352
H   H10       1.0  0.11141  0.48282  0.49640  1.0000 0.1210022352
H   H11       1.0  0.66850  0.71388  0.34867  1.0000 0.1291160125
H   H12       1.0  0.66667  0.70922  0.27162  1.0000 0.1210022352
H   H13       1.0  0.85859  0.54769  0.08838  1.0000 0.1210022352
H   H14       1.0  0.97393  0.43414  0.04951  1.0000 0.1124690614
H   H15       1.0  0.71797  0.38859  0.96171  1.0000 0.1210022352
H   H16       1.0  0.61141  0.51718  0.99640  1.0000 0.1210022352
H   H17       1.0  0.16850  0.28612  0.84867  1.0000 0.1291160125
H   H18       1.0  0.16667  0.29078  0.77162  1.0000 0.1210022352
H   H19       1.0  0.14141  0.95231  0.08838  1.0000 0.1210022352
H   H20       1.0  0.02607  0.06586  0.04951  1.0000 0.1124690614
H   H21       1.0  0.28203  0.11141  0.96171  1.0000 0.1210022352
H   H22       1.0  0.38859  0.98282  0.99640  1.0000 0.1210022352
H   H23       1.0  0.83150  0.21388  0.84867  1.0000 0.1291160125
H   H24       1.0  0.83333  0.20922  0.77162  1.0000 0.1210022352
H   H25       1.0  0.14141  0.45231  0.91162  1.0000 0.1210022352
H   H26       1.0  0.02607  0.56586  0.95049  1.0000 0.1124690614
H   H27       1.0  0.28203  0.61141  0.03829  1.0000 0.1210022352
H   H28       1.0  0.38859  0.48282  0.00360  1.0000 0.1210022352
H   H29       1.0  0.83150  0.71388  0.15133  1.0000 0.1291160125
H   H30       1.0  0.83333  0.70922  0.22838  1.0000 0.1210022352
H   H31       1.0  0.85859  0.04769  0.91162  1.0000 0.1210022352
H   H32       1.0  0.97393  0.93414  0.95049  1.0000 0.1124690614
H   H33       1.0  0.71797  0.88859  0.03829  1.0000 0.1210022352
H   H34       1.0  0.61141  0.01718  0.00360  1.0000 0.1210022352
H   H35       1.0  0.16850  0.78612  0.15133  1.0000 0.1291160125
H   H36       1.0  0.16667  0.79078  0.22838  1.0000 0.1210022352
H   H37       1.0  0.35859  0.95231  0.41162  1.0000 0.1210022352
H   H38       1.0  0.47393  0.06586  0.45049  1.0000 0.1124690614
H   H39       1.0  0.21797  0.11141  0.53829  1.0000 0.1210022352
H   H40       1.0  0.11141  0.98282  0.50360  1.0000 0.1210022352
H   H41       1.0  0.66850  0.21388  0.65133  1.0000 0.1291160125
H   H42       1.0  0.66667  0.20922  0.72838  1.0000 0.1210022352
H   H43       1.0  0.64141  0.54769  0.41162  1.0000 0.1210022352
H   H44       1.0  0.52607  0.43414  0.45049  1.0000 0.1124690614
H   H45       1.0  0.78203  0.38859  0.53829  1.0000 0.1210022352
H   H46       1.0  0.88859  0.51718  0.50360  1.0000 0.1210022352
H   H47       1.0  0.33150  0.28612  0.65133  1.0000 0.1291160125
H   H48       1.0  0.33333  0.29078  0.72838  1.0000 0.1210022352
C   C1        1.0  0.84810  0.11980  0.57100  1.0000 0.5238865677
C   C2        1.0  0.77610  0.04360  0.54708  1.0000 -0.0328195493
C   C3        1.0  0.66890  0.01790  0.56223  1.0000 -0.0994117141
C   C4        1.0  0.60030  0.94820  0.53932  1.0000 -0.1601997924
C   C5        1.0  0.64080  0.89890  0.50130  1.0000 0.1124690614
C   C6        1.0  0.75180  0.92290  0.48630  1.0000 -0.1601997924
C   C7        1.0  0.81730  0.99760  0.50790  1.0000 -0.0882101843
C   C8        1.0  0.56970  0.82240  0.47686  1.0000 -0.1728000668
C   C9        1.0  0.56500  0.81870  0.43036  1.0000 0.2319533143
C   C10       1.0  0.39930  0.77220  0.33319  1.0000 -0.153687266
C   C11       1.0  0.40030  0.77370  0.28707  1.0000 -0.0882101843
C   C12       1.0  0.15190  0.38020  0.57100  1.0000 0.5238865677
C   C13       1.0  0.22390  0.45640  0.54708  1.0000 -0.0328195493
C   C14       1.0  0.33110  0.48210  0.56223  1.0000 -0.0994117141
C   C15       1.0  0.39970  0.55180  0.53932  1.0000 -0.1601997924
C   C16       1.0  0.35920  0.60110  0.50130  1.0000 0.1124690614
C   C17       1.0  0.24820  0.57710  0.48630  1.0000 -0.1601997924
C   C18       1.0  0.18270  0.50240  0.50790  1.0000 -0.0882101843
C   C19       1.0  0.43030  0.67760  0.47686  1.0000 -0.1728000668
C   C20       1.0  0.43500  0.68130  0.43036  1.0000 0.2319533143
C   C21       1.0  0.60070  0.72780  0.33319  1.0000 -0.153687266
C   C22       1.0  0.59970  0.72630  0.28707  1.0000 -0.0882101843
C   C23       1.0  0.65190  0.61980  0.07100  1.0000 0.5238865677
C   C24       1.0  0.72390  0.54360  0.04708  1.0000 -0.0328195493
C   C25       1.0  0.83110  0.51790  0.06223  1.0000 -0.0994117141
C   C26       1.0  0.89970  0.44820  0.03932  1.0000 -0.1601997924
C   C27       1.0  0.85920  0.39890  0.00130  1.0000 0.1124690614
C   C28       1.0  0.74820  0.42290  0.98630  1.0000 -0.1601997924
C   C29       1.0  0.68270  0.49760  0.00790  1.0000 -0.0882101843
C   C30       1.0  0.93030  0.32240  0.97686  1.0000 -0.1728000668
C   C31       1.0  0.93500  0.31870  0.93036  1.0000 0.2319533143
C   C32       1.0  0.10070  0.27220  0.83319  1.0000 -0.153687266
C   C33       1.0  0.09970  0.27370  0.78707  1.0000 -0.0882101843
C   C34       1.0  0.34810  0.88020  0.07100  1.0000 0.5238865677
C   C35       1.0  0.27610  0.95640  0.04708  1.0000 -0.0328195493
C   C36       1.0  0.16890  0.98210  0.06223  1.0000 -0.0994117141
C   C37       1.0  0.10030  0.05180  0.03932  1.0000 -0.1601997924
C   C38       1.0  0.14080  0.10110  0.00130  1.0000 0.1124690614
C   C39       1.0  0.25180  0.07710  0.98630  1.0000 -0.1601997924
C   C40       1.0  0.31730  0.00240  0.00790  1.0000 -0.0882101843
C   C41       1.0  0.06970  0.17760  0.97686  1.0000 -0.1728000668
C   C42       1.0  0.06500  0.18130  0.93036  1.0000 0.2319533143
C   C43       1.0  0.89930  0.22780  0.83319  1.0000 -0.153687266
C   C44       1.0  0.90030  0.22630  0.78707  1.0000 -0.0882101843
C   C45       1.0  0.50000  0.75000  0.49800  1.0000 0.2378907937
C   C46       1.0  0.50000  0.75000  0.40590  1.0000 -0.1728000668
C   C47       1.0  0.50000  0.75000  0.35610  1.0000 0.1124690614
C   C48       1.0  0.50000  0.75000  0.26360  1.0000 -0.0328195493
C   C49       1.0  0.50000  0.75000  0.21420  1.0000 0.5432587924
C   C50       1.0  0.00000  0.25000  0.99800  1.0000 0.2378907937
C   C51       1.0  0.00000  0.25000  0.90590  1.0000 -0.1728000668
C   C52       1.0  0.00000  0.25000  0.85610  1.0000 0.1124690614
C   C53       1.0  0.00000  0.25000  0.76360  1.0000 -0.0328195493
C   C54       1.0  0.00000  0.25000  0.71420  1.0000 0.5432587924
C   C55       1.0  0.34810  0.38020  0.92900  1.0000 0.5238865677
C   C56       1.0  0.27610  0.45640  0.95292  1.0000 -0.0328195493
C   C57       1.0  0.16890  0.48210  0.93777  1.0000 -0.0994117141
C   C58       1.0  0.10030  0.55180  0.96068  1.0000 -0.1601997924
C   C59       1.0  0.14080  0.60110  0.99870  1.0000 0.1124690614
C   C60       1.0  0.25180  0.57710  0.01370  1.0000 -0.1601997924
C   C61       1.0  0.31730  0.50240  0.99210  1.0000 -0.0882101843
C   C62       1.0  0.06970  0.67760  0.02314  1.0000 -0.1728000668
C   C63       1.0  0.06500  0.68130  0.06964  1.0000 0.2319533143
C   C64       1.0  0.89930  0.72780  0.16681  1.0000 -0.153687266
C   C65       1.0  0.90030  0.72630  0.21293  1.0000 -0.0882101843
C   C66       1.0  0.65190  0.11980  0.92900  1.0000 0.5238865677
C   C67       1.0  0.72390  0.04360  0.95292  1.0000 -0.0328195493
C   C68       1.0  0.83110  0.01790  0.93777  1.0000 -0.0994117141
C   C69       1.0  0.89970  0.94820  0.96068  1.0000 -0.1601997924
C   C70       1.0  0.85920  0.89890  0.99870  1.0000 0.1124690614
C   C71       1.0  0.74820  0.92290  0.01370  1.0000 -0.1601997924
C   C72       1.0  0.68270  0.99760  0.99210  1.0000 -0.0882101843
C   C73       1.0  0.93030  0.82240  0.02314  1.0000 -0.1728000668
C   C74       1.0  0.93500  0.81870  0.06964  1.0000 0.2319533143
C   C75       1.0  0.10070  0.77220  0.16681  1.0000 -0.153687266
C   C76       1.0  0.09970  0.77370  0.21293  1.0000 -0.0882101843
C   C77       1.0  0.15190  0.88020  0.42900  1.0000 0.5238865677
C   C78       1.0  0.22390  0.95640  0.45292  1.0000 -0.0328195493
C   C79       1.0  0.33110  0.98210  0.43777  1.0000 -0.0994117141
C   C80       1.0  0.39970  0.05180  0.46068  1.0000 -0.1601997924
C   C81       1.0  0.35920  0.10110  0.49870  1.0000 0.1124690614
C   C82       1.0  0.24820  0.07710  0.51370  1.0000 -0.1601997924
C   C83       1.0  0.18270  0.00240  0.49210  1.0000 -0.0882101843
C   C84       1.0  0.43030  0.17760  0.52314  1.0000 -0.1728000668
C   C85       1.0  0.43500  0.18130  0.56964  1.0000 0.2319533143
C   C86       1.0  0.60070  0.22780  0.66681  1.0000 -0.153687266
C   C87       1.0  0.59970  0.22630  0.71293  1.0000 -0.0882101843
C   C88       1.0  0.84810  0.61980  0.42900  1.0000 0.5238865677
C   C89       1.0  0.77610  0.54360  0.45292  1.0000 -0.0328195493
C   C90       1.0  0.66890  0.51790  0.43777  1.0000 -0.0994117141
C   C91       1.0  0.60030  0.44820  0.46068  1.0000 -0.1601997924
C   C92       1.0  0.64080  0.39890  0.49870  1.0000 0.1124690614
C   C93       1.0  0.75180  0.42290  0.51370  1.0000 -0.1601997924
C   C94       1.0  0.81730  0.49760  0.49210  1.0000 -0.0882101843
C   C95       1.0  0.56970  0.32240  0.52314  1.0000 -0.1728000668
C   C96       1.0  0.56500  0.31870  0.56964  1.0000 0.2319533143
C   C97       1.0  0.39930  0.27220  0.66681  1.0000 -0.153687266
C   C98       1.0  0.40030  0.27370  0.71293  1.0000 -0.0882101843
C   C99       1.0  0.00000  0.75000  0.00200  1.0000 0.2378907937
C   C100      1.0  0.00000  0.75000  0.09410  1.0000 -0.1752217945
C   C101      1.0  0.00000  0.75000  0.14390  1.0000 0.1124690614
C   C102      1.0  0.00000  0.75000  0.23640  1.0000 -0.0328195493
C   C103      1.0  0.00000  0.75000  0.28580  1.0000 0.5432587924
C   C104      1.0  0.50000  0.25000  0.50200  1.0000 0.2378907937
C   C105      1.0  0.50000  0.25000  0.59410  1.0000 -0.1752217945
C   C106      1.0  0.50000  0.25000  0.64390  1.0000 0.1124690614
C   C107      1.0  0.50000  0.25000  0.73640  1.0000 -0.0328195493
C   C108      1.0  0.50000  0.25000  0.78580  1.0000 0.5432587924
O   O1        1.0  0.92380  0.17010  0.55088  1.0000 -0.5604175267
O   O2        1.0  0.83440  0.13080  0.61273  1.0000 -0.5820046686
O   O3        1.0  0.42230  0.79790  0.19291  1.0000 -0.5820046686
O   O4        1.0  0.07620  0.32990  0.55088  1.0000 -0.5604175267
O   O5        1.0  0.16560  0.36920  0.61273  1.0000 -0.5820046686
O   O6        1.0  0.57770  0.70210  0.19291  1.0000 -0.5820046686
O   O7        1.0  0.57620  0.67010  0.05088  1.0000 -0.5604175267
O   O8        1.0  0.66560  0.63080  0.11273  1.0000 -0.5820046686
O   O9        1.0  0.07770  0.29790  0.69291  1.0000 -0.5820046686
O   O10       1.0  0.42380  0.82990  0.05088  1.0000 -0.5604175267
O   O11       1.0  0.33440  0.86920  0.11273  1.0000 -0.5820046686
O   O12       1.0  0.92230  0.20210  0.69291  1.0000 -0.5820046686
O   O13       1.0  0.42380  0.32990  0.94912  1.0000 -0.5604175267
O   O14       1.0  0.33440  0.36920  0.88727  1.0000 -0.5820046686
O   O15       1.0  0.92230  0.70210  0.30709  1.0000 -0.5850615439
O   O16       1.0  0.57620  0.17010  0.94912  1.0000 -0.5604175267
O   O17       1.0  0.66560  0.13080  0.88727  1.0000 -0.5820046686
O   O18       1.0  0.07770  0.79790  0.30709  1.0000 -0.5850615439
O   O19       1.0  0.07620  0.82990  0.44912  1.0000 -0.5604175267
O   O20       1.0  0.16560  0.86920  0.38727  1.0000 -0.5820046686
O   O21       1.0  0.57770  0.20210  0.80709  1.0000 -0.5820046686
O   O22       1.0  0.92380  0.67010  0.44912  1.0000 -0.5604175267
O   O23       1.0  0.83440  0.63080  0.38727  1.0000 -0.5820046686
O   O24       1.0  0.42230  0.29790  0.80709  1.0000 -0.5820046686
F   F1        1.0  0.62440  0.89140  0.40738  1.0000 -0.1348929529
F   F2        1.0  0.37560  0.60860  0.40738  1.0000 -0.1348929529
F   F3        1.0  0.87560  0.39140  0.90738  1.0000 -0.1348929529
F   F4        1.0  0.12440  0.10860  0.90738  1.0000 -0.1348929529
F   F5        1.0  0.50000  0.75000  0.54303  1.0000 -0.1363524732
F   F6        1.0  0.00000  0.25000  0.04303  1.0000 -0.1363524732
F   F7        1.0  0.12440  0.60860  0.09262  1.0000 -0.1348929529
F   F8        1.0  0.87560  0.89140  0.09262  1.0000 -0.1348929529
F   F9        1.0  0.37560  0.10860  0.59262  1.0000 -0.1348929529
F   F10       1.0  0.62440  0.39140  0.59262  1.0000 -0.1348929529
F   F11       1.0  0.00000  0.75000  0.95697  1.0000 -0.1363524732
F   F12       1.0  0.50000  0.25000  0.45697  1.0000 -0.1363524732
