# DDEC6 charges by PACMAN v1.1 (https://github.com/mtap-research/PACMAN-charge/)
data_2021[Nd][rtl]3[ASR]1
_chemical_formula_sum              "Nd4 H24 C56 N4 O24"
_cell_length_a       10.7643
_cell_length_b       16.793
_cell_length_c       17.1589
_cell_angle_alpha    90
_cell_angle_beta     118.009
_cell_angle_gamma    90

_symmetry_space_group_name_H-M    "P 1"
_symmetry_Int_Tables_number       1

loop_
  _symmetry_equiv_pos_as_xyz
  'x, y, z'

loop_
  _atom_site_type_symbol
  _atom_site_label
  _atom_site_symmetry_multiplicity
  _atom_site_fract_x
  _atom_site_fract_y
  _atom_site_fract_z
  _atom_site_occupancy
  _atom_site_charge
Nd  Nd1       1.0  0.42670  0.09548  0.54037  1.0000 2.0907261576
Nd  Nd2       1.0  0.57330  0.59548  0.95963  1.0000 2.0907261576
Nd  Nd3       1.0  0.57330  0.90452  0.45963  1.0000 2.0907261576
Nd  Nd4       1.0  0.42670  0.40452  0.04037  1.0000 2.0907261576
H   H1        1.0  0.39379  0.48139  0.68711  1.0000 0.1198346223
H   H2        1.0  0.16758  0.32992  0.74776  1.0000 0.1257907059
H   H3        1.0  0.15597  0.32738  0.51173  1.0000 0.1132914414
H   H4        1.0  0.96891  0.07868  0.49535  1.0000 0.1369757559
H   H5        1.0  0.73735  0.20203  0.58043  1.0000 0.1132914414
H   H6        1.0  0.90192  0.30146  0.62688  1.0000 0.1198346223
H   H7        1.0  0.60621  0.98139  0.81289  1.0000 0.1198346223
H   H8        1.0  0.83242  0.82992  0.75224  1.0000 0.1257907059
H   H9        1.0  0.84403  0.82738  0.98827  1.0000 0.1132914414
H   H10       1.0  0.03109  0.57868  0.00465  1.0000 0.1369757559
H   H11       1.0  0.26265  0.70203  0.91957  1.0000 0.1132914414
H   H12       1.0  0.09808  0.80146  0.87312  1.0000 0.1198346223
H   H13       1.0  0.60621  0.51861  0.31289  1.0000 0.1198346223
H   H14       1.0  0.83242  0.67008  0.25224  1.0000 0.1257907059
H   H15       1.0  0.84403  0.67262  0.48827  1.0000 0.1132914414
H   H16       1.0  0.03109  0.92132  0.50465  1.0000 0.1369757559
H   H17       1.0  0.26265  0.79797  0.41957  1.0000 0.1132914414
H   H18       1.0  0.09808  0.69854  0.37312  1.0000 0.1198346223
H   H19       1.0  0.39379  0.01861  0.18711  1.0000 0.1198346223
H   H20       1.0  0.16758  0.17008  0.24776  1.0000 0.1257907059
H   H21       1.0  0.15597  0.17262  0.01173  1.0000 0.1132914414
H   H22       1.0  0.96891  0.42132  0.99535  1.0000 0.1369757559
H   H23       1.0  0.73735  0.29797  0.08043  1.0000 0.1132914414
H   H24       1.0  0.90192  0.19854  0.12688  1.0000 0.1198346223
C   C1        1.0  0.32990  0.43950  0.67070  1.0000 0.0709687676
C   C2        1.0  0.29300  0.41120  0.73320  1.0000 -0.0826962162
C   C3        1.0  0.19600  0.34980  0.70810  1.0000 -0.1017177646
C   C4        1.0  0.14040  0.31750  0.62280  1.0000 0.015651179
C   C5        1.0  0.18920  0.34980  0.56750  1.0000 0.057870673
C   C6        1.0  0.03800  0.25170  0.59210  1.0000 0.0489783426
C   C7        1.0  0.05750  0.18300  0.55370  1.0000 -0.0538401595
C   C8        1.0  0.95680  0.12300  0.52360  1.0000 -0.0941266734
C   C9        1.0  0.83770  0.12910  0.53550  1.0000 -0.0298698117
C   C10       1.0  0.81760  0.19670  0.57350  1.0000 -0.1108480562
C   C11       1.0  0.91680  0.25620  0.60110  1.0000 -0.1473876928
C   C12       1.0  0.36120  0.44420  0.82510  1.0000 0.6487743165
C   C13       1.0  0.18870  0.16800  0.54680  1.0000 0.5670830663
C   C14       1.0  0.73520  0.06150  0.50740  1.0000 0.6246377434
C   C15       1.0  0.67010  0.93950  0.82930  1.0000 0.0709687676
C   C16       1.0  0.70700  0.91120  0.76680  1.0000 -0.0826962162
C   C17       1.0  0.80400  0.84980  0.79190  1.0000 -0.1017177646
C   C18       1.0  0.85960  0.81750  0.87720  1.0000 0.015651179
C   C19       1.0  0.81080  0.84980  0.93250  1.0000 0.057870673
C   C20       1.0  0.96200  0.75170  0.90790  1.0000 0.0489783426
C   C21       1.0  0.94250  0.68300  0.94630  1.0000 -0.0538401595
C   C22       1.0  0.04320  0.62300  0.97640  1.0000 -0.0941266734
C   C23       1.0  0.16230  0.62910  0.96450  1.0000 -0.0298698117
C   C24       1.0  0.18240  0.69670  0.92650  1.0000 -0.1108480562
C   C25       1.0  0.08320  0.75620  0.89890  1.0000 -0.1473876928
C   C26       1.0  0.63880  0.94420  0.67490  1.0000 0.6487743165
C   C27       1.0  0.81130  0.66800  0.95320  1.0000 0.5670830663
C   C28       1.0  0.26480  0.56150  0.99260  1.0000 0.6246377434
C   C29       1.0  0.67010  0.56050  0.32930  1.0000 0.0709687676
C   C30       1.0  0.70700  0.58880  0.26680  1.0000 -0.0826962162
C   C31       1.0  0.80400  0.65020  0.29190  1.0000 -0.1017177646
C   C32       1.0  0.85960  0.68250  0.37720  1.0000 0.015651179
C   C33       1.0  0.81080  0.65020  0.43250  1.0000 0.057870673
C   C34       1.0  0.96200  0.74830  0.40790  1.0000 0.0489783426
C   C35       1.0  0.94250  0.81700  0.44630  1.0000 -0.0538401595
C   C36       1.0  0.04320  0.87700  0.47640  1.0000 -0.0941266734
C   C37       1.0  0.16230  0.87090  0.46450  1.0000 -0.0298698117
C   C38       1.0  0.18240  0.80330  0.42650  1.0000 -0.1108480562
C   C39       1.0  0.08320  0.74380  0.39890  1.0000 -0.1473876928
C   C40       1.0  0.63880  0.55580  0.17490  1.0000 0.6487743165
C   C41       1.0  0.81130  0.83200  0.45320  1.0000 0.5670830663
C   C42       1.0  0.26480  0.93850  0.49260  1.0000 0.6246377434
C   C43       1.0  0.32990  0.06050  0.17070  1.0000 0.0709687676
C   C44       1.0  0.29300  0.08880  0.23320  1.0000 -0.0826962162
C   C45       1.0  0.19600  0.15020  0.20810  1.0000 -0.1017177646
C   C46       1.0  0.14040  0.18250  0.12280  1.0000 0.015651179
C   C47       1.0  0.18920  0.15020  0.06750  1.0000 0.057870673
C   C48       1.0  0.03800  0.24830  0.09210  1.0000 0.0489783426
C   C49       1.0  0.05750  0.31700  0.05370  1.0000 -0.0538401595
C   C50       1.0  0.95680  0.37700  0.02360  1.0000 -0.0941266734
C   C51       1.0  0.83770  0.37090  0.03550  1.0000 -0.0298698117
C   C52       1.0  0.81760  0.30330  0.07350  1.0000 -0.1108480562
C   C53       1.0  0.91680  0.24380  0.10110  1.0000 -0.1473876928
C   C54       1.0  0.36120  0.05580  0.32510  1.0000 0.6487743165
C   C55       1.0  0.18870  0.33200  0.04680  1.0000 0.5670830663
C   C56       1.0  0.73520  0.43850  0.00740  1.0000 0.6246377434
N   N1        1.0  0.27970  0.41040  0.58780  1.0000 -0.261438543
N   N2        1.0  0.72030  0.91040  0.91220  1.0000 -0.261438543
N   N3        1.0  0.72030  0.58960  0.41220  1.0000 -0.261438543
N   N4        1.0  0.27970  0.08960  0.08780  1.0000 -0.261438543
O   O1        1.0  0.33110  0.41110  0.87980  1.0000 -0.6619861964
O   O2        1.0  0.44510  0.50180  0.84060  1.0000 -0.6805450712
O   O3        1.0  0.30370  0.16070  0.61580  1.0000 -0.638295183
O   O4        1.0  0.18130  0.15900  0.47150  1.0000 -0.628270546
O   O5        1.0  0.62880  0.06470  0.52050  1.0000 -0.7713462804
O   O6        1.0  0.75640  0.00250  0.47070  1.0000 -0.5913406406
O   O7        1.0  0.66890  0.91110  0.62020  1.0000 -0.6619861964
O   O8        1.0  0.55490  0.00180  0.65940  1.0000 -0.6805450712
O   O9        1.0  0.69630  0.66070  0.88420  1.0000 -0.638295183
O   O10       1.0  0.81870  0.65900  0.02850  1.0000 -0.628270546
O   O11       1.0  0.37120  0.56470  0.97950  1.0000 -0.7713462804
O   O12       1.0  0.24360  0.50250  0.02930  1.0000 -0.5913406406
O   O13       1.0  0.66890  0.58890  0.12020  1.0000 -0.6619861964
O   O14       1.0  0.55490  0.49820  0.15940  1.0000 -0.6805450712
O   O15       1.0  0.69630  0.83930  0.38420  1.0000 -0.638295183
O   O16       1.0  0.81870  0.84100  0.52850  1.0000 -0.628270546
O   O17       1.0  0.37120  0.93530  0.47950  1.0000 -0.7713462804
O   O18       1.0  0.24360  0.99750  0.52930  1.0000 -0.5913406406
O   O19       1.0  0.33110  0.08890  0.37980  1.0000 -0.6619861964
O   O20       1.0  0.44510  0.99820  0.34060  1.0000 -0.6805450712
O   O21       1.0  0.30370  0.33930  0.11580  1.0000 -0.638295183
O   O22       1.0  0.18130  0.34100  0.97150  1.0000 -0.628270546
O   O23       1.0  0.62880  0.43530  0.02050  1.0000 -0.7713462804
O   O24       1.0  0.75640  0.49750  0.97070  1.0000 -0.5913406406
