# DDEC6 charges by PACMAN v1.1 (https://github.com/mtap-research/PACMAN-charge/)
data_2021[Cd][nan]3[ASR]3
_chemical_formula_sum              "Cd6 H60 C96 N4 O32"
_cell_length_a       14.887
_cell_length_b       15.966
_cell_length_c       16.171
_cell_angle_alpha    100.906
_cell_angle_beta     108.511
_cell_angle_gamma    110.885

_symmetry_space_group_name_H-M    "P 1"
_symmetry_Int_Tables_number       1

loop_
  _symmetry_equiv_pos_as_xyz
  'x, y, z'

loop_
  _atom_site_type_symbol
  _atom_site_label
  _atom_site_symmetry_multiplicity
  _atom_site_fract_x
  _atom_site_fract_y
  _atom_site_fract_z
  _atom_site_occupancy
  _atom_site_charge
Cd  Cd1       1.0  0.12874  0.30597  0.76490  1.0000 1.0106528698
Cd  Cd2       1.0  0.28980  0.56399  0.76404  1.0000 1.018042594
Cd  Cd3       1.0  0.20337  0.32539  0.58151  1.0000 1.0352083145
Cd  Cd4       1.0  0.87126  0.69403  0.23510  1.0000 1.0106528698
Cd  Cd5       1.0  0.71020  0.43601  0.23596  1.0000 1.018042594
Cd  Cd6       1.0  0.79663  0.67461  0.41849  1.0000 1.0352083145
H   H1        1.0  0.96309  0.52749  0.57813  1.0000 0.1384976445
H   H2        1.0  0.67299  0.31767  0.40824  1.0000 0.1305596467
H   H3        1.0  0.89826  0.25562  0.55816  1.0000 0.1384976445
H   H4        1.0  0.65406  0.06830  0.49623  1.0000 0.1207876437
H   H5        1.0  0.76904  0.14825  0.55977  1.0000 0.1207876437
H   H6        1.0  0.82583  0.02233  0.56723  1.0000 0.1384976445
H   H7        1.0  0.88318  0.91924  0.50241  1.0000 0.1305596467
H   H8        1.0  0.77152  0.95711  0.26134  1.0000 0.1207876437
H   H9        1.0  0.72340  0.06358  0.32735  1.0000 0.1207876437
H   H10       1.0  0.56123  0.07118  0.35447  1.0000 0.1207876437
H   H11       1.0  0.59574  0.16435  0.32973  1.0000 0.1207876437
H   H12       1.0  0.39893  0.11786  0.28721  1.0000 0.1305596467
H   H13       1.0  0.28908  0.16560  0.33684  1.0000 0.1305596467
H   H14       1.0  0.49099  0.26109  0.59493  1.0000 0.1207876437
H   H15       1.0  0.60867  0.21721  0.55144  1.0000 0.1207876437
H   H16       1.0  0.57367  0.54443  0.94784  1.0000 0.1384976445
H   H17       1.0  0.66934  0.34752  0.00168  1.0000 0.1305596467
H   H18       1.0  0.40334  0.27283  0.77608  1.0000 0.1384976445
H   H19       1.0  0.58293  0.19970  0.98290  1.0000 0.1207876437
H   H20       1.0  0.65060  0.19058  0.92774  1.0000 0.1207876437
H   H21       1.0  0.37966  0.04503  0.88256  1.0000 0.1305596467
H   H22       1.0  0.30648  0.88327  0.84873  1.0000 0.1305596467
H   H23       1.0  0.57551  0.87837  0.87445  1.0000 0.1305596467
H   H24       1.0  0.65723  0.04339  0.90883  1.0000 0.1305596467
H   H25       1.0  0.47258  0.18306  0.71890  1.0000 0.1207876437
H   H26       1.0  0.47355  0.09092  0.73851  1.0000 0.1096991224
H   H27       1.0  0.66622  0.32796  0.78352  1.0000 0.1305596467
H   H28       1.0  0.83097  0.36850  0.78408  1.0000 0.1305596467
H   H29       1.0  0.77727  0.09658  0.72995  1.0000 0.1305596467
H   H30       1.0  0.61100  0.05651  0.72768  1.0000 0.1207876437
H   H31       1.0  0.03691  0.47251  0.42187  1.0000 0.1384976445
H   H32       1.0  0.32701  0.68233  0.59176  1.0000 0.1305596467
H   H33       1.0  0.10174  0.74438  0.44184  1.0000 0.1384976445
H   H34       1.0  0.34594  0.93170  0.50377  1.0000 0.1207876437
H   H35       1.0  0.23096  0.85175  0.44023  1.0000 0.1207876437
H   H36       1.0  0.17417  0.97767  0.43277  1.0000 0.1384976445
H   H37       1.0  0.11682  0.08076  0.49759  1.0000 0.1305596467
H   H38       1.0  0.22848  0.04289  0.73866  1.0000 0.1207876437
H   H39       1.0  0.27660  0.93642  0.67265  1.0000 0.1207876437
H   H40       1.0  0.43877  0.92882  0.64553  1.0000 0.1207876437
H   H41       1.0  0.40426  0.83565  0.67027  1.0000 0.1207876437
H   H42       1.0  0.60107  0.88214  0.71279  1.0000 0.1305596467
H   H43       1.0  0.71092  0.83440  0.66316  1.0000 0.1305596467
H   H44       1.0  0.50901  0.73891  0.40507  1.0000 0.1207876437
H   H45       1.0  0.39133  0.78279  0.44856  1.0000 0.1207876437
H   H46       1.0  0.42633  0.45557  0.05216  1.0000 0.1384976445
H   H47       1.0  0.33066  0.65248  0.99832  1.0000 0.1305596467
H   H48       1.0  0.59666  0.72717  0.22392  1.0000 0.1384976445
H   H49       1.0  0.41707  0.80030  0.01710  1.0000 0.1207876437
H   H50       1.0  0.34940  0.80942  0.07226  1.0000 0.1207876437
H   H51       1.0  0.62034  0.95497  0.11744  1.0000 0.1305596467
H   H52       1.0  0.69352  0.11673  0.15127  1.0000 0.1305596467
H   H53       1.0  0.42449  0.12163  0.12555  1.0000 0.1305596467
H   H54       1.0  0.34277  0.95661  0.09117  1.0000 0.1305596467
H   H55       1.0  0.52742  0.81694  0.28110  1.0000 0.1207876437
H   H56       1.0  0.52645  0.90908  0.26149  1.0000 0.1096991224
H   H57       1.0  0.33378  0.67204  0.21648  1.0000 0.1305596467
H   H58       1.0  0.16903  0.63150  0.21592  1.0000 0.1305596467
H   H59       1.0  0.22273  0.90342  0.27005  1.0000 0.1305596467
H   H60       1.0  0.38900  0.94349  0.27232  1.0000 0.1207876437
C   C1        1.0  0.06030  0.42860  0.63980  1.0000 0.6053272782
C   C2        1.0  0.94820  0.39670  0.57720  1.0000 -0.011717661
C   C3        1.0  0.91620  0.46290  0.55200  1.0000 -0.1115626578
C   C4        1.0  0.81420  0.43240  0.48770  1.0000 0.0010054433
C   C5        1.0  0.78580  0.50620  0.45690  1.0000 0.5818005739
C   C6        1.0  0.74140  0.33710  0.45160  1.0000 -0.1884889344
C   C7        1.0  0.87630  0.30000  0.54140  1.0000 -0.1884889344
C   C8        1.0  0.77120  0.27010  0.48050  1.0000 0.187702447
C   C9        1.0  0.71920  0.11090  0.49570  1.0000 -0.1792926839
C   C10       1.0  0.76420  0.05020  0.45340  1.0000 0.1096991224
C   C11       1.0  0.81370  0.00870  0.50510  1.0000 -0.1413910242
C   C12       1.0  0.84710  0.94530  0.46570  1.0000 -0.089781128
C   C13       1.0  0.82620  0.92230  0.37360  1.0000 -0.0182715097
C   C14       1.0  0.85180  0.84650  0.32980  1.0000 0.5749726592
C   C15       1.0  0.78160  0.96880  0.32300  1.0000 -0.089781128
C   C16       1.0  0.75220  0.03210  0.36240  1.0000 -0.1611187459
C   C17       1.0  0.59170  0.14010  0.37980  1.0000 -0.1720043656
C   C18       1.0  0.51670  0.16660  0.41340  1.0000 0.1096991224
C   C19       1.0  0.42050  0.14850  0.34990  1.0000 -0.1494156161
C   C20       1.0  0.35410  0.17680  0.38070  1.0000 -0.089781128
C   C21       1.0  0.37970  0.21800  0.46800  1.0000 0.0058050061
C   C22       1.0  0.31350  0.25800  0.50570  1.0000 0.5438171326
C   C23       1.0  0.47320  0.23310  0.53250  1.0000 -0.1009986216
C   C24       1.0  0.54470  0.20720  0.50680  1.0000 -0.1494156161
C   C25       1.0  0.39300  0.43660  0.79770  1.0000 0.6011377472
C   C26       1.0  0.47580  0.41170  0.85370  1.0000 0.0058050061
C   C27       1.0  0.56330  0.48150  0.93260  1.0000 -0.1180352123
C   C28       1.0  0.63410  0.45750  0.98740  1.0000 -0.003248484
C   C29       1.0  0.72460  0.53130  0.07570  1.0000 0.5818005739
C   C30       1.0  0.62130  0.36330  0.96340  1.0000 -0.2087105812
C   C31       1.0  0.53670  0.29360  0.88240  1.0000 0.1791335343
C   C32       1.0  0.46220  0.31900  0.82880  1.0000 -0.1792926839
C   C33       1.0  0.57890  0.16900  0.92310  1.0000 -0.1720043656
C   C34       1.0  0.52930  0.06270  0.90120  1.0000 0.1096991224
C   C35       1.0  0.42070  0.01280  0.88140  1.0000 -0.1494156161
C   C36       1.0  0.37750  0.91540  0.86060  1.0000 -0.1115626578
C   C37       1.0  0.43010  0.86480  0.85630  1.0000 -0.033122834
C   C38       1.0  0.37950  0.75870  0.82820  1.0000 0.5090567766
C   C39       1.0  0.53650  0.91250  0.87570  1.0000 -0.1115626578
C   C40       1.0  0.58620  0.01220  0.89730  1.0000 -0.1611187459
C   C41       1.0  0.51250  0.15990  0.76050  1.0000 -0.1611187459
C   C42       1.0  0.61950  0.18670  0.75640  1.0000 0.1002806722
C   C43       1.0  0.68800  0.28070  0.77290  1.0000 -0.1494156161
C   C44       1.0  0.78720  0.30550  0.77380  1.0000 -0.089781128
C   C45       1.0  0.82120  0.23660  0.75930  1.0000 -0.011717661
C   C46       1.0  0.75540  0.14370  0.74130  1.0000 -0.1115626578
C   C47       1.0  0.65520  0.12000  0.74010  1.0000 -0.1720043656
C   C48       1.0  0.93200  0.26290  0.76410  1.0000 0.5335899292
C   C49       1.0  0.93970  0.57140  0.36020  1.0000 0.6011377472
C   C50       1.0  0.05180  0.60330  0.42280  1.0000 -0.011717661
C   C51       1.0  0.08380  0.53710  0.44800  1.0000 -0.1115626578
C   C52       1.0  0.18580  0.56760  0.51230  1.0000 0.0010054433
C   C53       1.0  0.21420  0.49380  0.54310  1.0000 0.5818005739
C   C54       1.0  0.25860  0.66290  0.54840  1.0000 -0.1884889344
C   C55       1.0  0.12370  0.70000  0.45860  1.0000 -0.1884889344
C   C56       1.0  0.22880  0.72990  0.51950  1.0000 0.187702447
C   C57       1.0  0.28080  0.88910  0.50430  1.0000 -0.1720043656
C   C58       1.0  0.23580  0.94980  0.54660  1.0000 0.1096991224
C   C59       1.0  0.18630  0.99130  0.49490  1.0000 -0.1413910242
C   C60       1.0  0.15290  0.05470  0.53430  1.0000 -0.089781128
C   C61       1.0  0.17380  0.07770  0.62640  1.0000 -0.0182715097
C   C62       1.0  0.14820  0.15350  0.67020  1.0000 0.5818005739
C   C63       1.0  0.21840  0.03120  0.67700  1.0000 -0.089781128
C   C64       1.0  0.24780  0.96790  0.63760  1.0000 -0.1611187459
C   C65       1.0  0.40830  0.85990  0.62020  1.0000 -0.1720043656
C   C66       1.0  0.48330  0.83340  0.58660  1.0000 0.1096991224
C   C67       1.0  0.57950  0.85150  0.65010  1.0000 -0.1494156161
C   C68       1.0  0.64590  0.82320  0.61930  1.0000 -0.089781128
C   C69       1.0  0.62030  0.78200  0.53200  1.0000 0.0058050061
C   C70       1.0  0.68650  0.74200  0.49430  1.0000 0.5438171326
C   C71       1.0  0.52680  0.76690  0.46750  1.0000 -0.1009986216
C   C72       1.0  0.45530  0.79280  0.49320  1.0000 -0.1494156161
C   C73       1.0  0.60700  0.56340  0.20230  1.0000 0.6011377472
C   C74       1.0  0.52420  0.58830  0.14630  1.0000 0.0058050061
C   C75       1.0  0.43670  0.51850  0.06740  1.0000 -0.1180352123
C   C76       1.0  0.36590  0.54250  0.01260  1.0000 -0.003248484
C   C77       1.0  0.27540  0.46870  0.92430  1.0000 0.5818005739
C   C78       1.0  0.37870  0.63670  0.03660  1.0000 -0.2087105812
C   C79       1.0  0.46330  0.70640  0.11760  1.0000 0.1791335343
C   C80       1.0  0.53780  0.68100  0.17120  1.0000 -0.1792926839
C   C81       1.0  0.42110  0.83100  0.07690  1.0000 -0.1720043656
C   C82       1.0  0.47070  0.93730  0.09880  1.0000 0.1096991224
C   C83       1.0  0.57930  0.98720  0.11860  1.0000 -0.1494156161
C   C84       1.0  0.62250  0.08460  0.13940  1.0000 -0.1115626578
C   C85       1.0  0.56990  0.13520  0.14370  1.0000 -0.033122834
C   C86       1.0  0.62050  0.24130  0.17180  1.0000 0.5090567766
C   C87       1.0  0.46350  0.08750  0.12430  1.0000 -0.1115626578
C   C88       1.0  0.41380  0.98780  0.10270  1.0000 -0.1611187459
C   C89       1.0  0.48750  0.84010  0.23950  1.0000 -0.1611187459
C   C90       1.0  0.38050  0.81330  0.24360  1.0000 0.1002806722
C   C91       1.0  0.31200  0.71930  0.22710  1.0000 -0.1494156161
C   C92       1.0  0.21280  0.69450  0.22620  1.0000 -0.089781128
C   C93       1.0  0.17880  0.76340  0.24070  1.0000 -0.011717661
C   C94       1.0  0.24460  0.85630  0.25870  1.0000 -0.1115626578
C   C95       1.0  0.34480  0.88000  0.25990  1.0000 -0.1720043656
C   C96       1.0  0.06800  0.73710  0.23590  1.0000 0.5335899292
N   N1        1.0  0.52010  0.19820  0.85360  1.0000 -0.1180352123
N   N2        1.0  0.69730  0.17540  0.44940  1.0000 -0.0759789722
N   N3        1.0  0.47990  0.80180  0.14640  1.0000 -0.1115626578
N   N4        1.0  0.30270  0.82460  0.55060  1.0000 -0.0759789722
O   O1        1.0  0.11880  0.51620  0.68170  1.0000 -0.498300934
O   O2        1.0  0.09540  0.36720  0.64760  1.0000 -0.6190889181
O   O3        1.0  0.84280  0.59230  0.50770  1.0000 -0.5156066717
O   O4        1.0  0.70820  0.48100  0.38100  1.0000 -0.5711149873
O   O5        1.0  0.22490  0.23460  0.44590  1.0000 -0.498300934
O   O6        1.0  0.34580  0.30280  0.58500  1.0000 -0.4755502643
O   O7        1.0  0.30450  0.37200  0.74260  1.0000 -0.5892265143
O   O8        1.0  0.41970  0.52370  0.81470  1.0000 -0.498300934
O   O9        1.0  0.75240  0.61800  0.08510  1.0000 -0.5109073969
O   O10       1.0  0.77140  0.50530  0.13880  1.0000 -0.5711149873
O   O11       1.0  0.29080  0.71530  0.81980  1.0000 -0.4323020281
O   O12       1.0  0.42490  0.71440  0.80950  1.0000 -0.4323020281
O   O13       1.0  0.95640  0.20030  0.73990  1.0000 -0.5109073969
O   O14       1.0  0.99500  0.34840  0.79160  1.0000 -0.498300934
O   O15       1.0  0.88370  0.80220  0.37620  1.0000 -0.5319665672
O   O16       1.0  0.83590  0.82900  0.24560  1.0000 -0.498300934
O   O17       1.0  0.88120  0.48380  0.31830  1.0000 -0.498300934
O   O18       1.0  0.90460  0.63280  0.35240  1.0000 -0.6190889181
O   O19       1.0  0.15720  0.40770  0.49230  1.0000 -0.5156066717
O   O20       1.0  0.29180  0.51900  0.61900  1.0000 -0.5711149873
O   O21       1.0  0.77510  0.76540  0.55410  1.0000 -0.498300934
O   O22       1.0  0.65420  0.69720  0.41500  1.0000 -0.4755502643
O   O23       1.0  0.69550  0.62800  0.25740  1.0000 -0.5892265143
O   O24       1.0  0.58030  0.47630  0.18530  1.0000 -0.498300934
O   O25       1.0  0.24760  0.38200  0.91490  1.0000 -0.5109073969
O   O26       1.0  0.22860  0.49470  0.86120  1.0000 -0.5711149873
O   O27       1.0  0.70920  0.28470  0.18020  1.0000 -0.4323020281
O   O28       1.0  0.57510  0.28560  0.19050  1.0000 -0.4323020281
O   O29       1.0  0.04360  0.79970  0.26010  1.0000 -0.5109073969
O   O30       1.0  0.00500  0.65160  0.20840  1.0000 -0.498300934
O   O31       1.0  0.11630  0.19780  0.62380  1.0000 -0.5319665672
O   O32       1.0  0.16410  0.17100  0.75440  1.0000 -0.498300934
