# DDEC6 charges by PACMAN v1.1 (https://github.com/mtap-research/PACMAN-charge/)
data_2021[Cu][sql]2[ASR]3
_chemical_formula_sum              "Cu4 H128 C208 N32 O32"
_cell_length_a       16.107
_cell_length_b       13.56
_cell_length_c       28.475
_cell_angle_alpha    90
_cell_angle_beta     101.93
_cell_angle_gamma    90

_symmetry_space_group_name_H-M    "P 1"
_symmetry_Int_Tables_number       1

loop_
  _symmetry_equiv_pos_as_xyz
  'x, y, z'

loop_
  _atom_site_type_symbol
  _atom_site_label
  _atom_site_symmetry_multiplicity
  _atom_site_fract_x
  _atom_site_fract_y
  _atom_site_fract_z
  _atom_site_occupancy
  _atom_site_charge
Cu  Cu1       1.0  0.01014  0.00268  0.25202  1.0000 0.2286354744
Cu  Cu2       1.0  0.48986  0.50268  0.74798  1.0000 0.2286354744
Cu  Cu3       1.0  0.98986  0.99732  0.74798  1.0000 0.2286354744
Cu  Cu4       1.0  0.51014  0.49732  0.25202  1.0000 0.2286354744
H   H1        1.0  0.53360  0.07370  0.47820  1.0000 0.1279042523
H   H2        1.0  0.56640  0.11430  0.40560  1.0000 0.1279042523
H   H3        1.0  0.18250  0.62660  0.15760  1.0000 0.1279042523
H   H4        1.0  0.27060  0.67080  0.18240  1.0000 0.1082512742
H   H5        1.0  0.59950  0.08550  0.65020  1.0000 0.1279042523
H   H6        1.0  0.69110  0.11770  0.67580  1.0000 0.1082512742
H   H7        1.0  0.04520  0.95010  0.15710  1.0000 0.1033972886
H   H8        1.0  0.89830  0.34860  0.51460  1.0000 0.122917915
H   H9        1.0  0.86630  0.30490  0.58800  1.0000 0.1279042523
H   H10       1.0  0.51450  0.43840  0.65180  1.0000 0.1033972886
H   H11       1.0  0.28110  0.88510  0.81980  1.0000 0.1082512742
H   H12       1.0  0.37300  0.91870  0.84450  1.0000 0.122917915
H   H13       1.0  0.82660  0.03180  0.25630  1.0000 0.1033972886
H   H14       1.0  0.72900  0.31290  0.31590  1.0000 0.1033972886
H   H15       1.0  0.81120  0.36700  0.34280  1.0000 0.122917915
H   H16       1.0  0.13780  0.84270  0.28420  1.0000 0.1033972886
H   H17       1.0  0.21240  0.72710  0.25200  1.0000 0.1386633159
H   H18       1.0  0.08570  0.65270  0.98550  1.0000 0.122917915
H   H19       1.0  0.11670  0.83690  0.12180  1.0000 0.1386633159
H   H20       1.0  0.49370  0.81470  0.83950  1.0000 0.14782224
H   H21       1.0  0.43230  0.86380  0.08980  1.0000 0.1386633159
H   H22       1.0  0.45920  0.90750  0.01590  1.0000 0.1279042523
H   H23       1.0  0.11010  0.70240  0.91240  1.0000 0.122917915
H   H24       1.0  0.26060  0.70860  0.78810  1.0000 0.1386633159
H   H25       1.0  0.62430  0.17500  0.74320  1.0000 0.1386633159
H   H26       1.0  0.54770  0.68280  0.80650  1.0000 0.1082512742
H   H27       1.0  0.95000  0.29130  0.34600  1.0000 0.14782224
H   H28       1.0  0.02910  0.18390  0.31230  1.0000 0.1033972886
H   H29       1.0  0.56750  0.30920  0.61590  1.0000 0.1386633159
H   H30       1.0  0.74270  0.13850  0.28660  1.0000 0.1386633159
H   H31       1.0  0.32070  0.57920  0.75670  1.0000 0.1033972886
H   H32       1.0  0.56810  0.30670  0.77570  1.0000 0.1033972886
H   H33       1.0  0.96640  0.57370  0.52180  1.0000 0.1279042523
H   H34       1.0  0.93360  0.61430  0.59440  1.0000 0.1279042523
H   H35       1.0  0.31750  0.12660  0.84240  1.0000 0.1279042523
H   H36       1.0  0.22940  0.17080  0.81760  1.0000 0.1082512742
H   H37       1.0  0.90050  0.58550  0.34980  1.0000 0.1279042523
H   H38       1.0  0.80890  0.61770  0.32420  1.0000 0.1082512742
H   H39       1.0  0.45480  0.45010  0.84290  1.0000 0.1033972886
H   H40       1.0  0.60170  0.84860  0.48540  1.0000 0.1279042523
H   H41       1.0  0.63370  0.80490  0.41200  1.0000 0.1279042523
H   H42       1.0  0.98550  0.93840  0.34820  1.0000 0.1033972886
H   H43       1.0  0.21890  0.38510  0.18020  1.0000 0.1082512742
H   H44       1.0  0.12700  0.41870  0.15550  1.0000 0.122917915
H   H45       1.0  0.67340  0.53180  0.74370  1.0000 0.1033972886
H   H46       1.0  0.77100  0.81290  0.68410  1.0000 0.1033972886
H   H47       1.0  0.68880  0.86700  0.65720  1.0000 0.122917915
H   H48       1.0  0.36220  0.34270  0.71580  1.0000 0.1033972886
H   H49       1.0  0.28760  0.22710  0.74800  1.0000 0.1386633159
H   H50       1.0  0.41430  0.15270  0.01450  1.0000 0.122917915
H   H51       1.0  0.38330  0.33690  0.87820  1.0000 0.1386633159
H   H52       1.0  0.00630  0.31470  0.16050  1.0000 0.14782224
H   H53       1.0  0.06770  0.36380  0.91020  1.0000 0.1386633159
H   H54       1.0  0.04080  0.40750  0.98410  1.0000 0.1279042523
H   H55       1.0  0.38990  0.20240  0.08760  1.0000 0.122917915
H   H56       1.0  0.23940  0.20860  0.21190  1.0000 0.1386633159
H   H57       1.0  0.87570  0.67500  0.25680  1.0000 0.1386633159
H   H58       1.0  0.95230  0.18280  0.19350  1.0000 0.1033972886
H   H59       1.0  0.55000  0.79130  0.65400  1.0000 0.14782224
H   H60       1.0  0.47090  0.68390  0.68770  1.0000 0.1033972886
H   H61       1.0  0.93250  0.80920  0.38410  1.0000 0.1386633159
H   H62       1.0  0.75730  0.63850  0.71340  1.0000 0.1386633159
H   H63       1.0  0.17930  0.07920  0.24330  1.0000 0.1033972886
H   H64       1.0  0.93190  0.80670  0.22430  1.0000 0.1033972886
H   H65       1.0  0.46640  0.92630  0.52180  1.0000 0.1279042523
H   H66       1.0  0.43360  0.88570  0.59440  1.0000 0.1279042523
H   H67       1.0  0.81750  0.37340  0.84240  1.0000 0.1279042523
H   H68       1.0  0.72940  0.32920  0.81760  1.0000 0.1082512742
H   H69       1.0  0.40050  0.91450  0.34980  1.0000 0.1279042523
H   H70       1.0  0.30890  0.88230  0.32420  1.0000 0.1082512742
H   H71       1.0  0.95480  0.04990  0.84290  1.0000 0.1033972886
H   H72       1.0  0.10170  0.65140  0.48540  1.0000 0.1279042523
H   H73       1.0  0.13370  0.69510  0.41200  1.0000 0.1279042523
H   H74       1.0  0.48550  0.56160  0.34820  1.0000 0.1033972886
H   H75       1.0  0.71890  0.11490  0.18020  1.0000 0.1082512742
H   H76       1.0  0.62700  0.08130  0.15550  1.0000 0.122917915
H   H77       1.0  0.17340  0.96820  0.74370  1.0000 0.1033972886
H   H78       1.0  0.27100  0.68710  0.68410  1.0000 0.1033972886
H   H79       1.0  0.18880  0.63300  0.65720  1.0000 0.122917915
H   H80       1.0  0.86220  0.15730  0.71580  1.0000 0.1033972886
H   H81       1.0  0.78760  0.27290  0.74800  1.0000 0.1386633159
H   H82       1.0  0.91430  0.34730  0.01450  1.0000 0.122917915
H   H83       1.0  0.88330  0.16310  0.87820  1.0000 0.1386633159
H   H84       1.0  0.50630  0.18530  0.16050  1.0000 0.14782224
H   H85       1.0  0.56770  0.13620  0.91020  1.0000 0.1386633159
H   H86       1.0  0.54080  0.09250  0.98410  1.0000 0.1279042523
H   H87       1.0  0.88990  0.29760  0.08760  1.0000 0.122917915
H   H88       1.0  0.73940  0.29140  0.21190  1.0000 0.1386633159
H   H89       1.0  0.37570  0.82500  0.25680  1.0000 0.1386633159
H   H90       1.0  0.45230  0.31720  0.19350  1.0000 0.1082512742
H   H91       1.0  0.05000  0.70870  0.65400  1.0000 0.14782224
H   H92       1.0  0.97090  0.81610  0.68770  1.0000 0.1033972886
H   H93       1.0  0.43250  0.69080  0.38410  1.0000 0.1386633159
H   H94       1.0  0.25730  0.86150  0.71340  1.0000 0.1386633159
H   H95       1.0  0.67930  0.42080  0.24330  1.0000 0.1033972886
H   H96       1.0  0.43190  0.69330  0.22430  1.0000 0.1033972886
H   H97       1.0  0.03360  0.42630  0.47820  1.0000 0.1279042523
H   H98       1.0  0.06640  0.38570  0.40560  1.0000 0.1279042523
H   H99       1.0  0.68250  0.87340  0.15760  1.0000 0.1279042523
H   H100      1.0  0.77060  0.82920  0.18240  1.0000 0.1082512742
H   H101      1.0  0.09950  0.41450  0.65020  1.0000 0.1279042523
H   H102      1.0  0.19110  0.38230  0.67580  1.0000 0.1082512742
H   H103      1.0  0.54520  0.54990  0.15710  1.0000 0.1033972886
H   H104      1.0  0.39830  0.15140  0.51460  1.0000 0.1279042523
H   H105      1.0  0.36630  0.19510  0.58800  1.0000 0.1279042523
H   H106      1.0  0.01450  0.06160  0.65180  1.0000 0.1033972886
H   H107      1.0  0.78110  0.61490  0.81980  1.0000 0.1082512742
H   H108      1.0  0.87300  0.58130  0.84450  1.0000 0.122917915
H   H109      1.0  0.32660  0.46820  0.25630  1.0000 0.1033972886
H   H110      1.0  0.22900  0.18710  0.31590  1.0000 0.1033972886
H   H111      1.0  0.31120  0.13300  0.34280  1.0000 0.122917915
H   H112      1.0  0.63780  0.65730  0.28420  1.0000 0.1033972886
H   H113      1.0  0.71240  0.77290  0.25200  1.0000 0.1386633159
H   H114      1.0  0.58570  0.84730  0.98550  1.0000 0.122917915
H   H115      1.0  0.61670  0.66310  0.12180  1.0000 0.1386633159
H   H116      1.0  0.99370  0.68530  0.83950  1.0000 0.14782224
H   H117      1.0  0.93230  0.63620  0.08980  1.0000 0.1386633159
H   H118      1.0  0.95920  0.59250  0.01590  1.0000 0.1279042523
H   H119      1.0  0.61010  0.79760  0.91240  1.0000 0.122917915
H   H120      1.0  0.76060  0.79140  0.78810  1.0000 0.1386633159
H   H121      1.0  0.12430  0.32500  0.74320  1.0000 0.1386633159
H   H122      1.0  0.04770  0.81720  0.80650  1.0000 0.1082512742
H   H123      1.0  0.45000  0.20870  0.34600  1.0000 0.14782224
H   H124      1.0  0.52910  0.31610  0.31230  1.0000 0.1033972886
H   H125      1.0  0.06750  0.19080  0.61590  1.0000 0.1386633159
H   H126      1.0  0.24270  0.36150  0.28660  1.0000 0.1386633159
H   H127      1.0  0.82070  0.92080  0.75670  1.0000 0.1033972886
H   H128      1.0  0.06810  0.19330  0.77570  1.0000 0.1033972886
C   C1        1.0  0.70470  0.20100  0.51881  1.0000 0.0245451011
C   C2        1.0  0.67060  0.19330  0.43140  1.0000 -0.0795580482
C   C3        1.0  0.28090  0.79240  0.97852  1.0000 0.0257264629
C   C4        1.0  0.26440  0.76540  0.02372  1.0000 0.0245451011
C   C5        1.0  0.60620  0.12490  0.56586  1.0000 0.4123119888
C   C6        1.0  0.32320  0.79310  0.06578  1.0000 -0.0634334756
C   C7        1.0  0.37710  0.86450  0.92864  1.0000 0.4276860237
C   C8        1.0  0.17280  0.76560  0.18283  1.0000 0.14782224
C   C9        1.0  0.72410  0.22600  0.47451  1.0000 0.0245451011
C   C10       1.0  0.73660  0.21130  0.60806  1.0000 0.4123119888
C   C11       1.0  0.83610  0.22970  0.31925  1.0000 0.1386633159
C   C12       1.0  0.60350  0.22690  0.67558  1.0000 0.14782224
C   C13       1.0  0.58120  0.11210  0.47752  1.0000 -0.0658752383
C   C14       1.0  0.17410  0.68270  0.07319  1.0000 0.4123119888
C   C15       1.0  0.35570  0.84420  0.97599  1.0000 -0.0634334756
C   C16       1.0  0.22190  0.76650  0.93634  1.0000 -0.0658752383
C   C17       1.0  0.60100  0.13670  0.43388  1.0000 -0.0795580482
C   C18       1.0  0.79780  0.28160  0.47338  1.0000 -0.0634334756
C   C19       1.0  0.21700  0.68580  0.16094  1.0000 -0.1563803337
C   C20       1.0  0.69030  0.21930  0.38473  1.0000 0.4123119888
C   C21       1.0  0.64000  0.13930  0.65386  1.0000 -0.1563803337
C   C22       1.0  0.23900  0.79210  0.88886  1.0000 0.4123119888
C   C23       1.0  0.19160  0.71250  0.02633  1.0000 -0.0634334756
C   C24       1.0  0.36980  0.77840  0.81825  1.0000 0.14782224
C   C25       1.0  0.07880  0.90400  0.17644  1.0000 0.0700253814
C   C26       1.0  0.63130  0.14410  0.51981  1.0000 -0.0634334756
C   C27       1.0  0.85000  0.31150  0.51537  1.0000 -0.0883317718
C   C28       1.0  0.83020  0.28570  0.55963  1.0000 -0.0958548009
C   C29       1.0  0.30680  0.76460  0.11341  1.0000 0.4123119888
C   C30       1.0  0.75890  0.23280  0.56157  1.0000 -0.0634334756
C   C31       1.0  0.53720  0.38480  0.67050  1.0000 0.0700253814
C   C32       1.0  0.33340  0.86400  0.84082  1.0000 -0.1563803337
C   C33       1.0  0.85160  0.08540  0.27423  1.0000 0.0434706912
C   C34       1.0  0.78200  0.30410  0.33890  1.0000 -0.150486511
C   C35       1.0  0.81980  0.30620  0.42724  1.0000 0.4167867557
C   C36       1.0  0.13320  0.84120  0.25109  1.0000 0.0596714385
C   C37       1.0  0.17800  0.77130  0.23179  1.0000 -0.1962673622
C   C38       1.0  0.13440  0.68830  0.98411  1.0000 -0.0958548009
C   C39       1.0  0.12160  0.83610  0.15489  1.0000 -0.1889290908
C   C40       1.0  0.45710  0.76780  0.82277  1.0000 -0.1889290908
C   C41       1.0  0.39420  0.84530  0.06202  1.0000 -0.0795580482
C   C42       1.0  0.41080  0.87150  0.01747  1.0000 -0.0795580482
C   C43       1.0  0.14990  0.71710  0.94013  1.0000 -0.0883317718
C   C44       1.0  0.31930  0.70490  0.79237  1.0000 -0.1889290908
C   C45       1.0  0.60240  0.22800  0.72385  1.0000 -0.1962673622
C   C46       1.0  0.48910  0.68830  0.80260  1.0000 0.0759964392
C   C47       1.0  0.92340  0.23980  0.32716  1.0000 -0.1835182912
C   C48       1.0  0.97080  0.17410  0.30733  1.0000 0.0700253814
C   C49       1.0  0.56910  0.30740  0.64873  1.0000 -0.1889290908
C   C50       1.0  0.80100  0.14900  0.29230  1.0000 -0.1889290908
C   C51       1.0  0.35580  0.62770  0.77334  1.0000 0.0453534045
C   C52       1.0  0.56890  0.30770  0.74318  1.0000 0.0700253814
C   C53       1.0  0.79530  0.70100  0.48119  1.0000 0.0245451011
C   C54       1.0  0.82940  0.69330  0.56860  1.0000 -0.0795580482
C   C55       1.0  0.21910  0.29240  0.02148  1.0000 0.0257264629
C   C56       1.0  0.23560  0.26540  0.97628  1.0000 0.0245451011
C   C57       1.0  0.89380  0.62490  0.43414  1.0000 0.4123119888
C   C58       1.0  0.17680  0.29310  0.93422  1.0000 -0.0634334756
C   C59       1.0  0.12290  0.36450  0.07136  1.0000 0.4276860237
C   C60       1.0  0.32720  0.26560  0.81717  1.0000 0.14782224
C   C61       1.0  0.77590  0.72600  0.52549  1.0000 0.0245451011
C   C62       1.0  0.76340  0.71130  0.39194  1.0000 0.4123119888
C   C63       1.0  0.66390  0.72970  0.68075  1.0000 0.1386633159
C   C64       1.0  0.89650  0.72690  0.32442  1.0000 0.14782224
C   C65       1.0  0.91880  0.61210  0.52248  1.0000 -0.0658752383
C   C66       1.0  0.32590  0.18270  0.92681  1.0000 0.4123119888
C   C67       1.0  0.14430  0.34420  0.02401  1.0000 -0.0634334756
C   C68       1.0  0.27810  0.26650  0.06366  1.0000 -0.0658752383
C   C69       1.0  0.89900  0.63670  0.56612  1.0000 -0.0795580482
C   C70       1.0  0.70220  0.78160  0.52662  1.0000 -0.0634334756
C   C71       1.0  0.28300  0.18580  0.83906  1.0000 -0.1563803337
C   C72       1.0  0.80970  0.71930  0.61527  1.0000 0.4123119888
C   C73       1.0  0.86000  0.63930  0.34614  1.0000 -0.1563803337
C   C74       1.0  0.26100  0.29210  0.11114  1.0000 0.4123119888
C   C75       1.0  0.30840  0.21250  0.97367  1.0000 -0.0634334756
C   C76       1.0  0.13020  0.27840  0.18175  1.0000 0.14782224
C   C77       1.0  0.42120  0.40400  0.82356  1.0000 0.0700253814
C   C78       1.0  0.86870  0.64410  0.48019  1.0000 -0.0658752383
C   C79       1.0  0.65000  0.81150  0.48463  1.0000 -0.0883317718
C   C80       1.0  0.66980  0.78570  0.44037  1.0000 -0.0958548009
C   C81       1.0  0.19320  0.26460  0.88659  1.0000 0.4123119888
C   C82       1.0  0.74110  0.73280  0.43843  1.0000 -0.0634334756
C   C83       1.0  0.96280  0.88480  0.32950  1.0000 0.0700253814
C   C84       1.0  0.16660  0.36400  0.15918  1.0000 -0.1563803337
C   C85       1.0  0.64840  0.58540  0.72577  1.0000 0.0434706912
C   C86       1.0  0.71800  0.80410  0.66110  1.0000 -0.150486511
C   C87       1.0  0.68020  0.80620  0.57276  1.0000 0.4167867557
C   C88       1.0  0.36680  0.34120  0.74891  1.0000 0.0596714385
C   C89       1.0  0.32200  0.27130  0.76821  1.0000 -0.1962673622
C   C90       1.0  0.36560  0.18830  0.01589  1.0000 -0.0958548009
C   C91       1.0  0.37840  0.33610  0.84511  1.0000 -0.1889290908
C   C92       1.0  0.04290  0.26780  0.17723  1.0000 -0.1889290908
C   C93       1.0  0.10580  0.34530  0.93798  1.0000 -0.0795580482
C   C94       1.0  0.08920  0.37150  0.98253  1.0000 -0.0795580482
C   C95       1.0  0.35010  0.21710  0.05987  1.0000 -0.0883317718
C   C96       1.0  0.18070  0.20490  0.20763  1.0000 -0.1889290908
C   C97       1.0  0.89760  0.72800  0.27615  1.0000 -0.1962673622
C   C98       1.0  0.01090  0.18830  0.19740  1.0000 0.0759964392
C   C99       1.0  0.57660  0.73980  0.67284  1.0000 -0.1835182912
C   C100      1.0  0.52920  0.67410  0.69267  1.0000 0.0700253814
C   C101      1.0  0.93090  0.80740  0.35127  1.0000 -0.1889290908
C   C102      1.0  0.69900  0.64900  0.70770  1.0000 -0.1889290908
C   C103      1.0  0.14420  0.12770  0.22666  1.0000 0.0453534045
C   C104      1.0  0.93110  0.80770  0.25682  1.0000 0.0700253814
C   C105      1.0  0.29530  0.79900  0.48119  1.0000 0.0245451011
C   C106      1.0  0.32940  0.80670  0.56860  1.0000 -0.0795580482
C   C107      1.0  0.71910  0.20760  0.02148  1.0000 0.0257264629
C   C108      1.0  0.73560  0.23460  0.97628  1.0000 0.0245451011
C   C109      1.0  0.39380  0.87510  0.43414  1.0000 0.4123119888
C   C110      1.0  0.67680  0.20690  0.93422  1.0000 -0.0634334756
C   C111      1.0  0.62290  0.13550  0.07136  1.0000 0.4276860237
C   C112      1.0  0.82720  0.23440  0.81717  1.0000 0.14782224
C   C113      1.0  0.27590  0.77400  0.52549  1.0000 0.0245451011
C   C114      1.0  0.26340  0.78870  0.39194  1.0000 0.4123119888
C   C115      1.0  0.16390  0.77030  0.68075  1.0000 0.1386633159
C   C116      1.0  0.39650  0.77310  0.32442  1.0000 0.14782224
C   C117      1.0  0.41880  0.88790  0.52248  1.0000 -0.0658752383
C   C118      1.0  0.82590  0.31730  0.92681  1.0000 0.4123119888
C   C119      1.0  0.64430  0.15580  0.02401  1.0000 -0.0634334756
C   C120      1.0  0.77810  0.23350  0.06366  1.0000 -0.0634334756
C   C121      1.0  0.39900  0.86330  0.56612  1.0000 -0.0795580482
C   C122      1.0  0.20220  0.71840  0.52662  1.0000 -0.0634334756
C   C123      1.0  0.78300  0.31420  0.83906  1.0000 -0.1563803337
C   C124      1.0  0.30970  0.78070  0.61527  1.0000 0.4123119888
C   C125      1.0  0.36000  0.86070  0.34614  1.0000 -0.1563803337
C   C126      1.0  0.76100  0.20790  0.11114  1.0000 0.4123119888
C   C127      1.0  0.80840  0.28750  0.97367  1.0000 -0.0634334756
C   C128      1.0  0.63020  0.22160  0.18175  1.0000 0.14782224
C   C129      1.0  0.92120  0.09600  0.82356  1.0000 0.0700253814
C   C130      1.0  0.36870  0.85590  0.48019  1.0000 -0.0634334756
C   C131      1.0  0.15000  0.68850  0.48463  1.0000 -0.0883317718
C   C132      1.0  0.16980  0.71430  0.44037  1.0000 -0.0958548009
C   C133      1.0  0.69320  0.23540  0.88659  1.0000 0.4123119888
C   C134      1.0  0.24110  0.76720  0.43843  1.0000 -0.0634334756
C   C135      1.0  0.46280  0.61520  0.32950  1.0000 0.0700253814
C   C136      1.0  0.66667  0.13600  0.15918  1.0000 -0.1563803337
C   C137      1.0  0.14840  0.91460  0.72577  1.0000 0.0434706912
C   C138      1.0  0.21800  0.69590  0.66110  1.0000 -0.150486511
C   C139      1.0  0.18020  0.69380  0.57276  1.0000 0.4167867557
C   C140      1.0  0.86680  0.15880  0.74891  1.0000 0.0596714385
C   C141      1.0  0.82200  0.22870  0.76821  1.0000 -0.1962673622
C   C142      1.0  0.86560  0.31170  0.01589  1.0000 -0.0958548009
C   C143      1.0  0.87840  0.16390  0.84511  1.0000 -0.1889290908
C   C144      1.0  0.54290  0.23220  0.17723  1.0000 -0.1889290908
C   C145      1.0  0.60580  0.15470  0.93798  1.0000 -0.0795580482
C   C146      1.0  0.58920  0.12850  0.98253  1.0000 -0.0795580482
C   C147      1.0  0.85010  0.28290  0.05987  1.0000 -0.0883317718
C   C148      1.0  0.68070  0.29510  0.20763  1.0000 -0.1889290908
C   C149      1.0  0.39760  0.77200  0.27615  1.0000 -0.1962673622
C   C150      1.0  0.51090  0.31170  0.19740  1.0000 0.0759964392
C   C151      1.0  0.07660  0.76020  0.67284  1.0000 -0.1835182912
C   C152      1.0  0.02920  0.82590  0.69267  1.0000 0.0700253814
C   C153      1.0  0.43090  0.69260  0.35127  1.0000 -0.1889290908
C   C154      1.0  0.19900  0.85100  0.70770  1.0000 -0.1889290908
C   C155      1.0  0.64420  0.37230  0.22666  1.0000 0.0453534045
C   C156      1.0  0.43110  0.69230  0.25682  1.0000 0.0700253814
C   C157      1.0  0.20470  0.29900  0.51881  1.0000 0.0245451011
C   C158      1.0  0.17060  0.30670  0.43140  1.0000 -0.0795580482
C   C159      1.0  0.78090  0.70760  0.97852  1.0000 0.0245451011
C   C160      1.0  0.76440  0.73460  0.02372  1.0000 0.0245451011
C   C161      1.0  0.10620  0.37510  0.56586  1.0000 0.4123119888
C   C162      1.0  0.82320  0.70690  0.06578  1.0000 -0.0634334756
C   C163      1.0  0.87710  0.63550  0.92864  1.0000 0.4276860237
C   C164      1.0  0.67280  0.73440  0.18283  1.0000 0.14782224
C   C165      1.0  0.22410  0.27400  0.47451  1.0000 0.0245451011
C   C166      1.0  0.23660  0.28870  0.60806  1.0000 0.4045683399
C   C167      1.0  0.33610  0.27030  0.31925  1.0000 0.1386633159
C   C168      1.0  0.10350  0.27310  0.67558  1.0000 0.14782224
C   C169      1.0  0.08120  0.38790  0.47752  1.0000 -0.0634334756
C   C170      1.0  0.67410  0.81730  0.07319  1.0000 0.4123119888
C   C171      1.0  0.85570  0.65580  0.97599  1.0000 -0.0634334756
C   C172      1.0  0.72190  0.73350  0.93634  1.0000 -0.0634334756
C   C173      1.0  0.10100  0.36330  0.43388  1.0000 -0.0795580482
C   C174      1.0  0.29780  0.21840  0.47338  1.0000 -0.0634334756
C   C175      1.0  0.71700  0.81420  0.16094  1.0000 -0.1563803337
C   C176      1.0  0.19030  0.28070  0.38473  1.0000 0.4123119888
C   C177      1.0  0.14000  0.36070  0.65386  1.0000 -0.1563803337
C   C178      1.0  0.73900  0.70790  0.88886  1.0000 0.4123119888
C   C179      1.0  0.69160  0.78750  0.02633  1.0000 -0.0634334756
C   C180      1.0  0.86980  0.72160  0.81825  1.0000 0.14782224
C   C181      1.0  0.57880  0.59600  0.17644  1.0000 0.0700253814
C   C182      1.0  0.13130  0.35590  0.51981  1.0000 -0.0658752383
C   C183      1.0  0.35000  0.18850  0.51537  1.0000 -0.0883317718
C   C184      1.0  0.33020  0.21430  0.55963  1.0000 -0.0958548009
C   C185      1.0  0.80680  0.73540  0.11341  1.0000 0.4123119888
C   C186      1.0  0.25890  0.26720  0.56157  1.0000 -0.0634334756
C   C187      1.0  0.03720  0.11520  0.67050  1.0000 0.0700253814
C   C188      1.0  0.83340  0.63600  0.84082  1.0000 -0.1563803337
C   C189      1.0  0.35160  0.41460  0.27423  1.0000 0.0434706912
C   C190      1.0  0.28200  0.19590  0.33890  1.0000 -0.150486511
C   C191      1.0  0.31980  0.19380  0.42724  1.0000 0.4167867557
C   C192      1.0  0.63320  0.65880  0.25109  1.0000 0.0596714385
C   C193      1.0  0.67800  0.72870  0.23179  1.0000 -0.1962673622
C   C194      1.0  0.63440  0.81170  0.98411  1.0000 -0.0958548009
C   C195      1.0  0.62160  0.66390  0.15489  1.0000 -0.1889290908
C   C196      1.0  0.95710  0.73220  0.82277  1.0000 -0.1889290908
C   C197      1.0  0.89420  0.65470  0.06202  1.0000 -0.0795580482
C   C198      1.0  0.91080  0.62850  0.01747  1.0000 -0.0795580482
C   C199      1.0  0.64990  0.78290  0.94013  1.0000 -0.0883317718
C   C200      1.0  0.81930  0.79510  0.79237  1.0000 -0.1889290908
C   C201      1.0  0.10240  0.27200  0.72385  1.0000 -0.1962673622
C   C202      1.0  0.98910  0.81170  0.80260  1.0000 0.0759964392
C   C203      1.0  0.42340  0.26020  0.32716  1.0000 -0.1835182912
C   C204      1.0  0.47080  0.32590  0.30733  1.0000 0.0700253814
C   C205      1.0  0.06910  0.19260  0.64873  1.0000 -0.1889290908
C   C206      1.0  0.30100  0.35100  0.29230  1.0000 -0.1889290908
C   C207      1.0  0.85580  0.87230  0.77334  1.0000 0.0453534045
C   C208      1.0  0.06890  0.19230  0.74318  1.0000 0.0700253814
N   N1        1.0  0.53732  0.38670  0.71746  1.0000 -0.2131403655
N   N2        1.0  0.93725  0.09640  0.28111  1.0000 -0.2198372925
N   N3        1.0  0.08273  0.90790  0.22382  1.0000 -0.2198372925
N   N4        1.0  0.44067  0.61870  0.77764  1.0000 -0.2198372925
N   N5        1.0  0.76320  0.27420  0.38534  1.0000 -0.1835182912
N   N6        1.0  0.66024  0.16030  0.60753  1.0000 -0.1962673622
N   N7        1.0  0.23325  0.71300  0.11397  1.0000 -0.1889290908
N   N8        1.0  0.31610  0.83770  0.88789  1.0000 -0.1835182912
N   N9        1.0  0.96268  0.88670  0.28254  1.0000 -0.2131403655
N   N10       1.0  0.56275  0.59640  0.71889  1.0000 -0.2198372925
N   N11       1.0  0.41727  0.40790  0.77618  1.0000 -0.2198372925
N   N12       1.0  0.05933  0.11870  0.22236  1.0000 -0.2198372925
N   N13       1.0  0.73680  0.77420  0.61466  1.0000 -0.1835182912
N   N14       1.0  0.83976  0.66030  0.39247  1.0000 -0.1962673622
N   N15       1.0  0.26675  0.21300  0.88603  1.0000 -0.1889290908
N   N16       1.0  0.18390  0.33770  0.11211  1.0000 -0.1835182912
N   N17       1.0  0.46268  0.61330  0.28254  1.0000 -0.2131403655
N   N18       1.0  0.06275  0.90360  0.71889  1.0000 -0.2198372925
N   N19       1.0  0.91727  0.09210  0.77618  1.0000 -0.2198372925
N   N20       1.0  0.55933  0.38130  0.22236  1.0000 -0.2198372925
N   N21       1.0  0.23680  0.72580  0.61466  1.0000 -0.1889290908
N   N22       1.0  0.33976  0.83970  0.39247  1.0000 -0.1962673622
N   N23       1.0  0.76675  0.28700  0.88603  1.0000 -0.1889290908
N   N24       1.0  0.68390  0.16230  0.11211  1.0000 -0.1889290908
N   N25       1.0  0.03732  0.11330  0.71746  1.0000 -0.2131403655
N   N26       1.0  0.43725  0.40360  0.28111  1.0000 -0.2198372925
N   N27       1.0  0.58273  0.59210  0.22382  1.0000 -0.2198372925
N   N28       1.0  0.94067  0.88130  0.77764  1.0000 -0.2198372925
N   N29       1.0  0.26320  0.22580  0.38534  1.0000 -0.1889290908
N   N30       1.0  0.16024  0.33970  0.60753  1.0000 -0.1962673622
N   N31       1.0  0.73325  0.78700  0.11397  1.0000 -0.1889290908
N   N32       1.0  0.81610  0.66230  0.88789  1.0000 -0.1889290908
O   O1        1.0  0.88417  0.35020  0.42359  1.0000 -0.4485275939
O   O2        1.0  0.11075  0.63750  0.07763  1.0000 -0.4485275939
O   O3        1.0  0.54037  0.08320  0.56919  1.0000 -0.441545476
O   O4        1.0  0.44502  0.89970  0.92438  1.0000 -0.441545476
O   O5        1.0  0.64523  0.19390  0.34678  1.0000 -0.4788423039
O   O6        1.0  0.19015  0.77170  0.85178  1.0000 -0.4675238214
O   O7        1.0  0.35451  0.78750  0.15067  1.0000 -0.4788423039
O   O8        1.0  0.77852  0.23970  0.64624  1.0000 -0.4675238214
O   O9        1.0  0.61583  0.85020  0.57641  1.0000 -0.4485275939
O   O10       1.0  0.38925  0.13750  0.92237  1.0000 -0.4485275939
O   O11       1.0  0.95963  0.58320  0.43081  1.0000 -0.441545476
O   O12       1.0  0.05498  0.39970  0.07562  1.0000 -0.441545476
O   O13       1.0  0.85477  0.69390  0.65322  1.0000 -0.4788423039
O   O14       1.0  0.30985  0.27170  0.14822  1.0000 -0.4675238214
O   O15       1.0  0.14549  0.28750  0.84933  1.0000 -0.4788423039
O   O16       1.0  0.72148  0.73970  0.35376  1.0000 -0.4675238214
O   O17       1.0  0.11583  0.64980  0.57641  1.0000 -0.4485275939
O   O18       1.0  0.88925  0.36250  0.92237  1.0000 -0.4485275939
O   O19       1.0  0.45963  0.91680  0.43081  1.0000 -0.441545476
O   O20       1.0  0.55498  0.10030  0.07562  1.0000 -0.441545476
O   O21       1.0  0.35477  0.80610  0.65322  1.0000 -0.4788423039
O   O22       1.0  0.80985  0.22830  0.14822  1.0000 -0.4675238214
O   O23       1.0  0.64549  0.21250  0.84933  1.0000 -0.4788423039
O   O24       1.0  0.22148  0.76030  0.35376  1.0000 -0.4675238214
O   O25       1.0  0.38417  0.14980  0.42359  1.0000 -0.4485275939
O   O26       1.0  0.61075  0.86250  0.07763  1.0000 -0.4485275939
O   O27       1.0  0.04037  0.41680  0.56919  1.0000 -0.441545476
O   O28       1.0  0.94502  0.60030  0.92438  1.0000 -0.441545476
O   O29       1.0  0.14523  0.30610  0.34678  1.0000 -0.4788423039
O   O30       1.0  0.69015  0.72830  0.85178  1.0000 -0.4675238214
O   O31       1.0  0.85451  0.71250  0.15067  1.0000 -0.4788423039
O   O32       1.0  0.27852  0.26030  0.64624  1.0000 -0.4675238214
