# DDEC6 charges by PACMAN v1.1 (https://github.com/mtap-research/PACMAN-charge/)
data_2021[Co][nan]3[ASR]11
_chemical_formula_sum              "Co18 H168 C300 N60 O24"
_cell_length_a       25.6875
_cell_length_b       25.6875
_cell_length_c       25.6875
_cell_angle_alpha    109.471
_cell_angle_beta     109.471
_cell_angle_gamma    109.471

_symmetry_space_group_name_H-M    "P 1"
_symmetry_Int_Tables_number       1

loop_
  _symmetry_equiv_pos_as_xyz
  'x, y, z'

loop_
  _atom_site_type_symbol
  _atom_site_label
  _atom_site_symmetry_multiplicity
  _atom_site_fract_x
  _atom_site_fract_y
  _atom_site_fract_z
  _atom_site_occupancy
  _atom_site_charge
Co  Co1       1.0  0.37264  0.36528  0.49906  1.0000 0.6216347972
Co  Co2       1.0  0.36622  0.87358  0.00094  1.0000 0.6267504637
Co  Co3       1.0  0.12736  0.62642  0.99264  1.0000 0.6267504637
Co  Co4       1.0  0.13378  0.13472  0.50736  1.0000 0.6216347972
Co  Co5       1.0  0.13472  0.50736  0.13378  1.0000 0.6267504637
Co  Co6       1.0  0.62642  0.99264  0.12736  1.0000 0.6216347972
Co  Co7       1.0  0.87358  0.00094  0.36622  1.0000 0.6216347972
Co  Co8       1.0  0.36528  0.49906  0.37264  1.0000 0.6216347972
Co  Co9       1.0  0.99264  0.12736  0.62642  1.0000 0.6216347972
Co  Co10      1.0  0.50736  0.13378  0.13472  1.0000 0.6267504637
Co  Co11      1.0  0.49906  0.37264  0.36528  1.0000 0.6216347972
Co  Co12      1.0  0.00094  0.36622  0.87358  1.0000 0.6216347972
Co  Co13      1.0  0.24535  0.25000  0.49535  1.0000 0.6216347972
Co  Co14      1.0  0.25465  0.75000  0.00465  1.0000 0.6216347972
Co  Co15      1.0  0.25000  0.49535  0.24535  1.0000 0.6216347972
Co  Co16      1.0  0.75000  0.00465  0.25465  1.0000 0.6216347972
Co  Co17      1.0  0.00465  0.25465  0.75000  1.0000 0.6216347972
Co  Co18      1.0  0.49535  0.24535  0.25000  1.0000 0.6216347972
H   H1        1.0  0.53068  0.76891  0.07921  1.0000 0.1299678584
H   H2        1.0  0.44727  0.66296  0.00513  1.0000 0.1299678584
H   H3        1.0  0.42007  0.70389  0.86800  1.0000 0.1299678584
H   H4        1.0  0.48969  0.81491  0.94394  1.0000 0.1181233413
H   H5        1.0  0.33971  0.62726  0.96539  1.0000 0.1181233413
H   H6        1.0  0.24125  0.55293  0.94446  1.0000 0.1109991228
H   H7        1.0  0.22162  0.42265  0.78833  1.0000 0.1181233413
H   H8        1.0  0.46343  0.62511  0.82910  1.0000 0.1299678584
H   H9        1.0  0.44259  0.54423  0.73480  1.0000 0.1109991228
H   H10       1.0  0.28498  0.42062  0.71806  1.0000 0.1181233413
H   H11       1.0  0.41646  0.47528  0.63526  1.0000 0.1181233413
H   H12       1.0  0.27410  0.34328  0.63158  1.0000 0.1299678584
H   H13       1.0  0.13810  0.48279  0.91551  1.0000 0.1181233413
H   H14       1.0  0.14508  0.34606  0.79300  1.0000 0.1109991228
H   H15       1.0  0.18970  0.45147  0.42079  1.0000 0.1299678584
H   H16       1.0  0.15783  0.44214  0.49487  1.0000 0.1299678584
H   H17       1.0  0.33589  0.55207  0.63200  1.0000 0.1299678584
H   H18       1.0  0.37097  0.54575  0.55606  1.0000 0.1181233413
H   H19       1.0  0.16187  0.37432  0.53461  1.0000 0.1181233413
H   H20       1.0  0.10847  0.29679  0.55554  1.0000 0.1109991228
H   H21       1.0  0.13432  0.43329  0.71167  1.0000 0.1181233413
H   H22       1.0  0.29601  0.63433  0.67090  1.0000 0.1299678584
H   H23       1.0  0.30943  0.70779  0.76520  1.0000 0.1109991228
H   H24       1.0  0.20256  0.56692  0.78194  1.0000 0.1181233413
H   H25       1.0  0.34002  0.78120  0.86474  1.0000 0.1181233413
H   H26       1.0  0.21170  0.64252  0.86842  1.0000 0.1299678584
H   H27       1.0  0.06728  0.22259  0.58449  1.0000 0.1181233413
H   H28       1.0  0.05306  0.35208  0.70700  1.0000 0.1109991228
H   H29       1.0  0.96932  0.04853  0.23823  1.0000 0.1299678584
H   H30       1.0  0.05273  0.05786  0.21569  1.0000 0.1299678584
H   H31       1.0  0.07993  0.94793  0.28382  1.0000 0.1299678584
H   H32       1.0  0.01031  0.95425  0.32522  1.0000 0.1181233413
H   H33       1.0  0.16029  0.12568  0.28755  1.0000 0.1181233413
H   H34       1.0  0.25875  0.20321  0.31168  1.0000 0.1109991228
H   H35       1.0  0.27838  0.06671  0.20103  1.0000 0.1181233413
H   H36       1.0  0.03657  0.86567  0.16168  1.0000 0.1299678584
H   H37       1.0  0.05741  0.79221  0.10164  1.0000 0.1109991228
H   H38       1.0  0.21502  0.93308  0.13564  1.0000 0.1181233413
H   H39       1.0  0.08354  0.71880  0.05882  1.0000 0.1181233413
H   H40       1.0  0.22590  0.85748  0.06918  1.0000 0.1299678584
H   H41       1.0  0.36190  0.27741  0.34469  1.0000 0.1181233413
H   H42       1.0  0.35492  0.14792  0.20098  1.0000 0.1109991228
H   H43       1.0  0.31030  0.73109  0.26177  1.0000 0.1299678584
H   H44       1.0  0.34217  0.83704  0.28431  1.0000 0.1299678584
H   H45       1.0  0.16411  0.79611  0.21618  1.0000 0.1299678584
H   H46       1.0  0.12903  0.68509  0.17478  1.0000 0.1181233413
H   H47       1.0  0.33813  0.87274  0.21245  1.0000 0.1181233413
H   H48       1.0  0.39153  0.94707  0.18832  1.0000 0.1109991228
H   H49       1.0  0.36568  0.07735  0.29897  1.0000 0.1181233413
H   H50       1.0  0.20399  0.87489  0.33832  1.0000 0.1299678584
H   H51       1.0  0.19057  0.95577  0.39836  1.0000 0.1109991228
H   H52       1.0  0.29744  0.07938  0.36436  1.0000 0.1181233413
H   H53       1.0  0.15998  0.02472  0.44118  1.0000 0.1181233413
H   H54       1.0  0.28830  0.15672  0.43082  1.0000 0.1299678584
H   H55       1.0  0.43272  0.01721  0.15531  1.0000 0.1181233413
H   H56       1.0  0.44694  0.15394  0.29902  1.0000 0.1109991228
H   H57       1.0  0.73109  0.26177  0.31030  1.0000 0.1299678584
H   H58       1.0  0.83704  0.28431  0.34217  1.0000 0.1299678584
H   H59       1.0  0.79611  0.21618  0.16411  1.0000 0.1299678584
H   H60       1.0  0.68509  0.17478  0.12903  1.0000 0.1181233413
H   H61       1.0  0.87274  0.21245  0.33813  1.0000 0.1181233413
H   H62       1.0  0.94707  0.18832  0.39153  1.0000 0.1109991228
H   H63       1.0  0.07735  0.29897  0.36568  1.0000 0.1181233413
H   H64       1.0  0.87489  0.33832  0.20399  1.0000 0.1299678584
H   H65       1.0  0.95577  0.39836  0.19057  1.0000 0.1109991228
H   H66       1.0  0.07938  0.36436  0.29744  1.0000 0.1181233413
H   H67       1.0  0.02472  0.44118  0.15998  1.0000 0.1181233413
H   H68       1.0  0.15672  0.43082  0.28830  1.0000 0.1299678584
H   H69       1.0  0.01721  0.15531  0.43272  1.0000 0.1181233413
H   H70       1.0  0.15394  0.29902  0.44694  1.0000 0.1109991228
H   H71       1.0  0.04853  0.23823  0.96932  1.0000 0.1299678584
H   H72       1.0  0.05786  0.21569  0.05273  1.0000 0.1299678584
H   H73       1.0  0.94793  0.28382  0.07993  1.0000 0.1299678584
H   H74       1.0  0.95425  0.32522  0.01031  1.0000 0.1181233413
H   H75       1.0  0.12568  0.28755  0.16029  1.0000 0.1181233413
H   H76       1.0  0.20321  0.31168  0.25875  1.0000 0.1109991228
H   H77       1.0  0.06671  0.20103  0.27838  1.0000 0.1181233413
H   H78       1.0  0.86567  0.16168  0.03657  1.0000 0.1299678584
H   H79       1.0  0.79221  0.10164  0.05741  1.0000 0.1109991228
H   H80       1.0  0.93308  0.13564  0.21502  1.0000 0.1181233413
H   H81       1.0  0.71880  0.05882  0.08354  1.0000 0.1181233413
H   H82       1.0  0.85748  0.06918  0.22590  1.0000 0.1299678584
H   H83       1.0  0.27741  0.34469  0.36190  1.0000 0.1181233413
H   H84       1.0  0.14792  0.20098  0.35492  1.0000 0.1109991228
H   H85       1.0  0.45147  0.42079  0.18970  1.0000 0.1299678584
H   H86       1.0  0.44214  0.49487  0.15783  1.0000 0.1299678584
H   H87       1.0  0.55207  0.63200  0.33589  1.0000 0.1299678584
H   H88       1.0  0.54575  0.55606  0.37097  1.0000 0.1181233413
H   H89       1.0  0.37432  0.53461  0.16187  1.0000 0.1181233413
H   H90       1.0  0.29679  0.55554  0.10847  1.0000 0.1109991228
H   H91       1.0  0.43329  0.71167  0.13432  1.0000 0.1181233413
H   H92       1.0  0.63433  0.67090  0.29601  1.0000 0.1299678584
H   H93       1.0  0.70779  0.76520  0.30943  1.0000 0.1109991228
H   H94       1.0  0.56692  0.78194  0.20256  1.0000 0.1181233413
H   H95       1.0  0.78120  0.86474  0.34002  1.0000 0.1181233413
H   H96       1.0  0.64252  0.86842  0.21170  1.0000 0.1299678584
H   H97       1.0  0.22259  0.58449  0.06728  1.0000 0.1181233413
H   H98       1.0  0.35208  0.70700  0.05306  1.0000 0.1109991228
H   H99       1.0  0.76891  0.07921  0.53068  1.0000 0.1299678584
H   H100      1.0  0.66296  0.00513  0.44727  1.0000 0.1299678584
H   H101      1.0  0.70389  0.86800  0.42007  1.0000 0.1299678584
H   H102      1.0  0.81491  0.94394  0.48969  1.0000 0.1181233413
H   H103      1.0  0.62726  0.96539  0.33971  1.0000 0.1181233413
H   H104      1.0  0.55293  0.94446  0.24125  1.0000 0.1109991228
H   H105      1.0  0.42265  0.78833  0.22162  1.0000 0.1181233413
H   H106      1.0  0.62511  0.82910  0.46343  1.0000 0.1299678584
H   H107      1.0  0.54423  0.73480  0.44259  1.0000 0.1109991228
H   H108      1.0  0.42062  0.71806  0.28498  1.0000 0.1181233413
H   H109      1.0  0.47528  0.63526  0.41646  1.0000 0.1181233413
H   H110      1.0  0.34328  0.63158  0.27410  1.0000 0.1299678584
H   H111      1.0  0.48279  0.91551  0.13810  1.0000 0.1181233413
H   H112      1.0  0.34606  0.79300  0.14508  1.0000 0.1109991228
H   H113      1.0  0.23823  0.96932  0.04853  1.0000 0.1299678584
H   H114      1.0  0.21569  0.05273  0.05786  1.0000 0.1299678584
H   H115      1.0  0.28382  0.07993  0.94793  1.0000 0.1299678584
H   H116      1.0  0.32522  0.01031  0.95425  1.0000 0.1181233413
H   H117      1.0  0.28755  0.16029  0.12568  1.0000 0.1181233413
H   H118      1.0  0.31168  0.25875  0.20321  1.0000 0.1109991228
H   H119      1.0  0.20103  0.27838  0.06671  1.0000 0.1181233413
H   H120      1.0  0.16168  0.03657  0.86567  1.0000 0.1299678584
H   H121      1.0  0.10164  0.05741  0.79221  1.0000 0.1109991228
H   H122      1.0  0.13564  0.21502  0.93308  1.0000 0.1181233413
H   H123      1.0  0.05882  0.08354  0.71880  1.0000 0.1181233413
H   H124      1.0  0.06918  0.22590  0.85748  1.0000 0.1299678584
H   H125      1.0  0.34469  0.36190  0.27741  1.0000 0.1181233413
H   H126      1.0  0.20098  0.35492  0.14792  1.0000 0.1109991228
H   H127      1.0  0.26177  0.31030  0.73109  1.0000 0.1299678584
H   H128      1.0  0.28431  0.34217  0.83704  1.0000 0.1299678584
H   H129      1.0  0.21618  0.16411  0.79611  1.0000 0.1299678584
H   H130      1.0  0.17478  0.12903  0.68509  1.0000 0.1181233413
H   H131      1.0  0.21245  0.33813  0.87274  1.0000 0.1181233413
H   H132      1.0  0.18832  0.39153  0.94707  1.0000 0.1109991228
H   H133      1.0  0.29897  0.36568  0.07735  1.0000 0.1181233413
H   H134      1.0  0.33832  0.20399  0.87489  1.0000 0.1299678584
H   H135      1.0  0.39836  0.19057  0.95577  1.0000 0.1109991228
H   H136      1.0  0.36436  0.29744  0.07938  1.0000 0.1181233413
H   H137      1.0  0.44118  0.15998  0.02472  1.0000 0.1181233413
H   H138      1.0  0.43082  0.28830  0.15672  1.0000 0.1299678584
H   H139      1.0  0.15531  0.43272  0.01721  1.0000 0.1181233413
H   H140      1.0  0.29902  0.44694  0.15394  1.0000 0.1109991228
H   H141      1.0  0.07921  0.53068  0.76891  1.0000 0.1299678584
H   H142      1.0  0.00513  0.44727  0.66296  1.0000 0.1299678584
H   H143      1.0  0.86800  0.42007  0.70389  1.0000 0.1299678584
H   H144      1.0  0.94394  0.48969  0.81491  1.0000 0.1181233413
H   H145      1.0  0.96539  0.33971  0.62726  1.0000 0.1181233413
H   H146      1.0  0.94446  0.24125  0.55293  1.0000 0.1109991228
H   H147      1.0  0.78833  0.22162  0.42265  1.0000 0.1181233413
H   H148      1.0  0.82910  0.46343  0.62511  1.0000 0.1299678584
H   H149      1.0  0.73480  0.44259  0.54423  1.0000 0.1109991228
H   H150      1.0  0.71806  0.28498  0.42062  1.0000 0.1181233413
H   H151      1.0  0.63526  0.41646  0.47528  1.0000 0.1181233413
H   H152      1.0  0.63158  0.27410  0.34328  1.0000 0.1299678584
H   H153      1.0  0.91551  0.13810  0.48279  1.0000 0.1181233413
H   H154      1.0  0.79300  0.14508  0.34606  1.0000 0.1109991228
H   H155      1.0  0.42079  0.18970  0.45147  1.0000 0.1299678584
H   H156      1.0  0.49487  0.15783  0.44214  1.0000 0.1299678584
H   H157      1.0  0.63200  0.33589  0.55207  1.0000 0.1299678584
H   H158      1.0  0.55606  0.37097  0.54575  1.0000 0.1181233413
H   H159      1.0  0.53461  0.16187  0.37432  1.0000 0.1181233413
H   H160      1.0  0.55554  0.10847  0.29679  1.0000 0.1109991228
H   H161      1.0  0.71167  0.13432  0.43329  1.0000 0.1181233413
H   H162      1.0  0.67090  0.29601  0.63433  1.0000 0.1299678584
H   H163      1.0  0.76520  0.30943  0.70779  1.0000 0.1109991228
H   H164      1.0  0.78194  0.20256  0.56692  1.0000 0.1181233413
H   H165      1.0  0.86474  0.34002  0.78120  1.0000 0.1181233413
H   H166      1.0  0.86842  0.21170  0.64252  1.0000 0.1299678584
H   H167      1.0  0.58449  0.06728  0.22259  1.0000 0.1181233413
H   H168      1.0  0.70700  0.05306  0.35208  1.0000 0.1109991228
C   C1        1.0  0.56460  0.86860  0.06720  1.0000 0.5396724686
C   C2        1.0  0.51960  0.79830  0.02010  1.0000 -0.0212329031
C   C3        1.0  0.50780  0.75700  0.03660  1.0000 -0.0811887432
C   C4        1.0  0.45960  0.69150  0.99110  1.0000 -0.1902189442
C   C5        1.0  0.43300  0.67180  0.92980  1.0000 0.1733767037
C   C6        1.0  0.44230  0.71720  0.91110  1.0000 -0.1986222123
C   C7        1.0  0.48490  0.78380  0.95570  1.0000 -0.0887577322
C   C8        1.0  0.33390  0.57210  0.88480  1.0000 0.1181233413
C   C9        1.0  0.31490  0.58730  0.92860  1.0000 -0.1804850566
C   C10       1.0  0.25700  0.54150  0.91730  1.0000 -0.1304932714
C   C11       1.0  0.22380  0.48020  0.86680  1.0000 0.0837405766
C   C12       1.0  0.24450  0.46370  0.82320  1.0000 -0.1986222123
C   C13       1.0  0.30130  0.51060  0.83290  1.0000 -0.0118295843
C   C14       1.0  0.33260  0.51030  0.79670  1.0000 -0.0118295843
C   C15       1.0  0.38530  0.57090  0.82860  1.0000 0.0985542499
C   C16       1.0  0.42740  0.58490  0.80690  1.0000 -0.1902189442
C   C17       1.0  0.41400  0.53600  0.74960  1.0000 -0.1452731172
C   C18       1.0  0.36110  0.47780  0.71590  1.0000 0.0667263476
C   C19       1.0  0.31950  0.46160  0.73930  1.0000 -0.1804850566
C   C20       1.0  0.35070  0.42890  0.65840  1.0000 0.0059185908
C   C21       1.0  0.38210  0.43730  0.62300  1.0000 -0.0887577322
C   C22       1.0  0.30310  0.36390  0.62140  1.0000 -0.072319677
C   C23       1.0  0.16520  0.43320  0.85740  1.0000 -0.0212329031
C   C24       1.0  0.12770  0.44340  0.88490  1.0000 -0.072319677
C   C25       1.0  0.13210  0.36820  0.81770  1.0000 -0.072319677
C   C26       1.0  0.30140  0.49740  0.43280  1.0000 0.5396724686
C   C27       1.0  0.27820  0.49950  0.47990  1.0000 -0.0212329031
C   C28       1.0  0.22040  0.47120  0.46340  1.0000 -0.0811887432
C   C29       1.0  0.20040  0.46850  0.50890  1.0000 -0.1902189442
C   C30       1.0  0.24200  0.50320  0.57020  1.0000 0.1733767037
C   C31       1.0  0.30610  0.53120  0.58890  1.0000 -0.1986222123
C   C32       1.0  0.32810  0.52920  0.54430  1.0000 -0.0887577322
C   C33       1.0  0.18730  0.44910  0.61520  1.0000 0.1181233413
C   C34       1.0  0.15870  0.38630  0.57140  1.0000 -0.1804850566
C   C35       1.0  0.12420  0.33970  0.58270  1.0000 -0.1304932714
C   C36       1.0  0.11340  0.35700  0.63320  1.0000 0.0837405766
C   C37       1.0  0.14050  0.42130  0.67680  1.0000 -0.1986222123
C   C38       1.0  0.17770  0.46840  0.66710  1.0000 -0.0118295843
C   C39       1.0  0.21360  0.53590  0.70330  1.0000 -0.0118295843
C   C40       1.0  0.24230  0.55670  0.67140  1.0000 0.0985542499
C   C41       1.0  0.27800  0.62050  0.69310  1.0000 -0.1902189442
C   C42       1.0  0.28640  0.66440  0.75040  1.0000 -0.1452731172
C   C43       1.0  0.26190  0.64520  0.78410  1.0000 0.0667263476
C   C44       1.0  0.22230  0.58020  0.76070  1.0000 -0.1804850566
C   C45       1.0  0.27050  0.69230  0.84160  1.0000 0.0059185908
C   C46       1.0  0.31430  0.75910  0.87700  1.0000 -0.0887577322
C   C47       1.0  0.24250  0.68170  0.87860  1.0000 -0.072319677
C   C48       1.0  0.07580  0.30780  0.64260  1.0000 -0.0212329031
C   C49       1.0  0.05850  0.24280  0.61510  1.0000 -0.072319677
C   C50       1.0  0.05050  0.31440  0.68230  1.0000 -0.072319677
C   C51       1.0  0.93540  0.00260  0.30400  1.0000 0.5396724686
C   C52       1.0  0.98040  0.00050  0.27870  1.0000 -0.0212329031
C   C53       1.0  0.99220  0.02880  0.24920  1.0000 -0.0811887432
C   C54       1.0  0.04040  0.03150  0.23190  1.0000 -0.1902189442
C   C55       1.0  0.06700  0.99680  0.23880  1.0000 0.1733767037
C   C56       1.0  0.05770  0.96880  0.27490  1.0000 -0.1986222123
C   C57       1.0  0.01510  0.97080  0.29890  1.0000 -0.0887577322
C   C58       1.0  0.16610  0.05090  0.23820  1.0000 0.1181233413
C   C59       1.0  0.18510  0.11370  0.27240  1.0000 -0.1804850566
C   C60       1.0  0.24300  0.16030  0.28450  1.0000 -0.1304932714
C   C61       1.0  0.27620  0.14300  0.25640  1.0000 0.0837405766
C   C62       1.0  0.25550  0.07870  0.21920  1.0000 -0.1986222123
C   C63       1.0  0.19870  0.03160  0.20930  1.0000 -0.0118295843
C   C64       1.0  0.16740  0.96410  0.17770  1.0000 -0.0118295843
C   C65       1.0  0.11470  0.94330  0.18560  1.0000 0.0985542499
C   C66       1.0  0.07260  0.87950  0.15750  1.0000 -0.1902189442
C   C67       1.0  0.08600  0.83560  0.12200  1.0000 -0.1452731172
C   C68       1.0  0.13890  0.85480  0.11670  1.0000 0.0667263476
C   C69       1.0  0.18050  0.91980  0.14210  1.0000 -0.1804850566
C   C70       1.0  0.14930  0.80770  0.07820  1.0000 0.0059185908
C   C71       1.0  0.11790  0.74090  0.05520  1.0000 -0.0887577322
C   C72       1.0  0.19690  0.81830  0.06080  1.0000 -0.072319677
C   C73       1.0  0.33480  0.19220  0.26800  1.0000 -0.0212329031
C   C74       1.0  0.37230  0.25720  0.31570  1.0000 -0.072319677
C   C75       1.0  0.36790  0.18560  0.23610  1.0000 -0.072319677
C   C76       1.0  0.19860  0.63140  0.19600  1.0000 0.5396724686
C   C77       1.0  0.22180  0.70170  0.22130  1.0000 -0.0212329031
C   C78       1.0  0.27960  0.74300  0.25080  1.0000 -0.0811887432
C   C79       1.0  0.29960  0.80850  0.26810  1.0000 -0.1902189442
C   C80       1.0  0.25800  0.82820  0.26120  1.0000 0.1733767037
C   C81       1.0  0.19390  0.78280  0.22510  1.0000 -0.1986222123
C   C82       1.0  0.17190  0.71620  0.20110  1.0000 -0.0887577322
C   C83       1.0  0.31270  0.92790  0.26180  1.0000 0.1181233413
C   C84       1.0  0.34130  0.91270  0.22760  1.0000 -0.1804850566
C   C85       1.0  0.37580  0.95850  0.21550  1.0000 -0.1304932714
C   C86       1.0  0.38660  0.01980  0.24360  1.0000 0.0837405766
C   C87       1.0  0.35950  0.03630  0.28080  1.0000 -0.1986222123
C   C88       1.0  0.32230  0.98940  0.29070  1.0000 -0.0118295843
C   C89       1.0  0.28640  0.98970  0.32230  1.0000 -0.0118295843
C   C90       1.0  0.25770  0.92910  0.31440  1.0000 0.0985542499
C   C91       1.0  0.22200  0.91510  0.34250  1.0000 -0.1902189442
C   C92       1.0  0.21360  0.96400  0.37800  1.0000 -0.1452731172
C   C93       1.0  0.23810  0.02220  0.38330  1.0000 0.0667263476
C   C94       1.0  0.27770  0.03840  0.35790  1.0000 -0.1804850566
C   C95       1.0  0.22950  0.07110  0.42180  1.0000 0.0059185908
C   C96       1.0  0.18570  0.06270  0.44480  1.0000 -0.0887577322
C   C97       1.0  0.25750  0.13610  0.43920  1.0000 -0.072319677
C   C98       1.0  0.42420  0.06680  0.23200  1.0000 -0.0212329031
C   C99       1.0  0.44150  0.05660  0.18430  1.0000 -0.072319677
C   C100      1.0  0.44950  0.13180  0.26390  1.0000 -0.072319677
C   C101      1.0  0.63140  0.19600  0.19860  1.0000 0.5396724686
C   C102      1.0  0.70170  0.22130  0.22180  1.0000 -0.0212329031
C   C103      1.0  0.74300  0.25080  0.27960  1.0000 -0.0811887432
C   C104      1.0  0.80850  0.26810  0.29960  1.0000 -0.1902189442
C   C105      1.0  0.82820  0.26120  0.25800  1.0000 0.1733767037
C   C106      1.0  0.78280  0.22510  0.19390  1.0000 -0.1986222123
C   C107      1.0  0.71620  0.20110  0.17190  1.0000 -0.0887577322
C   C108      1.0  0.92790  0.26180  0.31270  1.0000 0.1181233413
C   C109      1.0  0.91270  0.22760  0.34130  1.0000 -0.1804850566
C   C110      1.0  0.95850  0.21550  0.37580  1.0000 -0.1304932714
C   C111      1.0  0.01980  0.24360  0.38660  1.0000 0.0837405766
C   C112      1.0  0.03630  0.28080  0.35950  1.0000 -0.1986222123
C   C113      1.0  0.98940  0.29070  0.32230  1.0000 -0.0118295843
C   C114      1.0  0.98970  0.32230  0.28640  1.0000 -0.0118295843
C   C115      1.0  0.92910  0.31440  0.25770  1.0000 0.0985542499
C   C116      1.0  0.91510  0.34250  0.22200  1.0000 -0.1902189442
C   C117      1.0  0.96400  0.37800  0.21360  1.0000 -0.1452731172
C   C118      1.0  0.02220  0.38330  0.23810  1.0000 0.0667263476
C   C119      1.0  0.03840  0.35790  0.27770  1.0000 -0.1804850566
C   C120      1.0  0.07110  0.42180  0.22950  1.0000 0.0059185908
C   C121      1.0  0.06270  0.44480  0.18570  1.0000 -0.0887577322
C   C122      1.0  0.13610  0.43920  0.25750  1.0000 -0.072319677
C   C123      1.0  0.06680  0.23200  0.42420  1.0000 -0.0212329031
C   C124      1.0  0.05660  0.18430  0.44150  1.0000 -0.072319677
C   C125      1.0  0.13180  0.26390  0.44950  1.0000 -0.072319677
C   C126      1.0  0.00260  0.30400  0.93540  1.0000 0.5396724686
C   C127      1.0  0.00050  0.27870  0.98040  1.0000 -0.0212329031
C   C128      1.0  0.02880  0.24920  0.99220  1.0000 -0.0811887432
C   C129      1.0  0.03150  0.23190  0.04040  1.0000 -0.1902189442
C   C130      1.0  0.99680  0.23880  0.06700  1.0000 0.1733767037
C   C131      1.0  0.96880  0.27490  0.05770  1.0000 -0.1986222123
C   C132      1.0  0.97080  0.29890  0.01510  1.0000 -0.0887577322
C   C133      1.0  0.05090  0.23820  0.16610  1.0000 0.1181233413
C   C134      1.0  0.11370  0.27240  0.18510  1.0000 -0.1804850566
C   C135      1.0  0.16030  0.28450  0.24300  1.0000 -0.1304932714
C   C136      1.0  0.14300  0.25640  0.27620  1.0000 0.0837405766
C   C137      1.0  0.07870  0.21920  0.25550  1.0000 -0.1986222123
C   C138      1.0  0.03160  0.20930  0.19870  1.0000 -0.0118295843
C   C139      1.0  0.96410  0.17770  0.16740  1.0000 -0.0118295843
C   C140      1.0  0.94330  0.18560  0.11470  1.0000 0.0985542499
C   C141      1.0  0.87950  0.15750  0.07260  1.0000 -0.1902189442
C   C142      1.0  0.83560  0.12200  0.08600  1.0000 -0.1452731172
C   C143      1.0  0.85480  0.11670  0.13890  1.0000 0.0667263476
C   C144      1.0  0.91980  0.14210  0.18050  1.0000 -0.1804850566
C   C145      1.0  0.80770  0.07820  0.14930  1.0000 0.0059185908
C   C146      1.0  0.74090  0.05520  0.11790  1.0000 -0.0887577322
C   C147      1.0  0.81830  0.06080  0.19690  1.0000 -0.072319677
C   C148      1.0  0.19220  0.26800  0.33480  1.0000 -0.0212329031
C   C149      1.0  0.25720  0.31570  0.37230  1.0000 -0.072319677
C   C150      1.0  0.18560  0.23610  0.36790  1.0000 -0.072319677
C   C151      1.0  0.49740  0.43280  0.30140  1.0000 0.5396724686
C   C152      1.0  0.49950  0.47990  0.27820  1.0000 -0.0212329031
C   C153      1.0  0.47120  0.46340  0.22040  1.0000 -0.0811887432
C   C154      1.0  0.46850  0.50890  0.20040  1.0000 -0.1902189442
C   C155      1.0  0.50320  0.57020  0.24200  1.0000 0.1733767037
C   C156      1.0  0.53120  0.58890  0.30610  1.0000 -0.1986222123
C   C157      1.0  0.52920  0.54430  0.32810  1.0000 -0.0887577322
C   C158      1.0  0.44910  0.61520  0.18730  1.0000 0.1181233413
C   C159      1.0  0.38630  0.57140  0.15870  1.0000 -0.1804850566
C   C160      1.0  0.33970  0.58270  0.12420  1.0000 -0.1304932714
C   C161      1.0  0.35700  0.63320  0.11340  1.0000 0.0837405766
C   C162      1.0  0.42130  0.67680  0.14050  1.0000 -0.1986222123
C   C163      1.0  0.46840  0.66710  0.17770  1.0000 -0.0118295843
C   C164      1.0  0.53590  0.70330  0.21360  1.0000 -0.0118295843
C   C165      1.0  0.55670  0.67140  0.24230  1.0000 0.0985542499
C   C166      1.0  0.62050  0.69310  0.27800  1.0000 -0.1902189442
C   C167      1.0  0.66440  0.75040  0.28640  1.0000 -0.1452731172
C   C168      1.0  0.64520  0.78410  0.26190  1.0000 0.0667263476
C   C169      1.0  0.58020  0.76070  0.22230  1.0000 -0.1804850566
C   C170      1.0  0.69230  0.84160  0.27050  1.0000 0.0059185908
C   C171      1.0  0.75910  0.87700  0.31430  1.0000 -0.0887577322
C   C172      1.0  0.68170  0.87860  0.24250  1.0000 -0.072319677
C   C173      1.0  0.30780  0.64260  0.07580  1.0000 -0.0212329031
C   C174      1.0  0.24280  0.61510  0.05850  1.0000 -0.072319677
C   C175      1.0  0.31440  0.68230  0.05050  1.0000 -0.072319677
C   C176      1.0  0.86860  0.06720  0.56460  1.0000 0.5396724686
C   C177      1.0  0.79830  0.02010  0.51960  1.0000 -0.0212329031
C   C178      1.0  0.75700  0.03660  0.50780  1.0000 -0.0811887432
C   C179      1.0  0.69150  0.99110  0.45960  1.0000 -0.1902189442
C   C180      1.0  0.67180  0.92980  0.43300  1.0000 0.1733767037
C   C181      1.0  0.71720  0.91110  0.44230  1.0000 -0.1986222123
C   C182      1.0  0.78380  0.95570  0.48490  1.0000 -0.0887577322
C   C183      1.0  0.57210  0.88480  0.33390  1.0000 0.1181233413
C   C184      1.0  0.58730  0.92860  0.31490  1.0000 -0.1804850566
C   C185      1.0  0.54150  0.91730  0.25700  1.0000 -0.1304932714
C   C186      1.0  0.48020  0.86680  0.22380  1.0000 0.0837405766
C   C187      1.0  0.46370  0.82320  0.24450  1.0000 -0.1986222123
C   C188      1.0  0.51060  0.83290  0.30130  1.0000 -0.0118295843
C   C189      1.0  0.51030  0.79670  0.33260  1.0000 -0.0118295843
C   C190      1.0  0.57090  0.82860  0.38530  1.0000 0.0985542499
C   C191      1.0  0.58490  0.80690  0.42740  1.0000 -0.1902189442
C   C192      1.0  0.53600  0.74960  0.41400  1.0000 -0.1452731172
C   C193      1.0  0.47780  0.71590  0.36110  1.0000 0.0667263476
C   C194      1.0  0.46160  0.73930  0.31950  1.0000 -0.1804850566
C   C195      1.0  0.42890  0.65840  0.35070  1.0000 0.0059185908
C   C196      1.0  0.43730  0.62300  0.38210  1.0000 -0.0887577322
C   C197      1.0  0.36390  0.62140  0.30310  1.0000 -0.072319677
C   C198      1.0  0.43320  0.85740  0.16520  1.0000 -0.0212329031
C   C199      1.0  0.44340  0.88490  0.12770  1.0000 -0.072319677
C   C200      1.0  0.36820  0.81770  0.13210  1.0000 -0.072319677
C   C201      1.0  0.30400  0.93540  0.00260  1.0000 0.5396724686
C   C202      1.0  0.27870  0.98040  0.00050  1.0000 -0.0212329031
C   C203      1.0  0.24920  0.99220  0.02880  1.0000 -0.0811887432
C   C204      1.0  0.23190  0.04040  0.03150  1.0000 -0.1902189442
C   C205      1.0  0.23880  0.06700  0.99680  1.0000 0.1733767037
C   C206      1.0  0.27490  0.05770  0.96880  1.0000 -0.1986222123
C   C207      1.0  0.29890  0.01510  0.97080  1.0000 -0.0887577322
C   C208      1.0  0.23820  0.16610  0.05090  1.0000 0.1181233413
C   C209      1.0  0.27240  0.18510  0.11370  1.0000 -0.1804850566
C   C210      1.0  0.28450  0.24300  0.16030  1.0000 -0.1304932714
C   C211      1.0  0.25640  0.27620  0.14300  1.0000 0.0837405766
C   C212      1.0  0.21920  0.25550  0.07870  1.0000 -0.1986222123
C   C213      1.0  0.20930  0.19870  0.03160  1.0000 -0.0118295843
C   C214      1.0  0.17770  0.16740  0.96410  1.0000 -0.0118295843
C   C215      1.0  0.18560  0.11470  0.94330  1.0000 0.0985542499
C   C216      1.0  0.15750  0.07260  0.87950  1.0000 -0.1902189442
C   C217      1.0  0.12200  0.08600  0.83560  1.0000 -0.1452731172
C   C218      1.0  0.11670  0.13890  0.85480  1.0000 0.0667263476
C   C219      1.0  0.14210  0.18050  0.91980  1.0000 -0.1804850566
C   C220      1.0  0.07820  0.14930  0.80770  1.0000 0.0059185908
C   C221      1.0  0.05520  0.11790  0.74090  1.0000 -0.0887577322
C   C222      1.0  0.06080  0.19690  0.81830  1.0000 -0.072319677
C   C223      1.0  0.26800  0.33480  0.19220  1.0000 -0.0212329031
C   C224      1.0  0.31570  0.37230  0.25720  1.0000 -0.072319677
C   C225      1.0  0.23610  0.36790  0.18560  1.0000 -0.072319677
C   C226      1.0  0.19600  0.19860  0.63140  1.0000 0.5396724686
C   C227      1.0  0.22130  0.22180  0.70170  1.0000 -0.0212329031
C   C228      1.0  0.25080  0.27960  0.74300  1.0000 -0.0811887432
C   C229      1.0  0.26810  0.29960  0.80850  1.0000 -0.1902189442
C   C230      1.0  0.26120  0.25800  0.82820  1.0000 0.1733767037
C   C231      1.0  0.22510  0.19390  0.78280  1.0000 -0.1986222123
C   C232      1.0  0.20110  0.17190  0.71620  1.0000 -0.0887577322
C   C233      1.0  0.26180  0.31270  0.92790  1.0000 0.1181233413
C   C234      1.0  0.22760  0.34130  0.91270  1.0000 -0.1804850566
C   C235      1.0  0.21550  0.37580  0.95850  1.0000 -0.1304932714
C   C236      1.0  0.24360  0.38660  0.01980  1.0000 0.0837405766
C   C237      1.0  0.28080  0.35950  0.03630  1.0000 -0.1986222123
C   C238      1.0  0.29070  0.32230  0.98940  1.0000 -0.0118295843
C   C239      1.0  0.32230  0.28640  0.98970  1.0000 -0.0118295843
C   C240      1.0  0.31440  0.25770  0.92910  1.0000 0.0985542499
C   C241      1.0  0.34250  0.22200  0.91510  1.0000 -0.1902189442
C   C242      1.0  0.37800  0.21360  0.96400  1.0000 -0.1452731172
C   C243      1.0  0.38330  0.23810  0.02220  1.0000 0.0667263476
C   C244      1.0  0.35790  0.27770  0.03840  1.0000 -0.1804850566
C   C245      1.0  0.42180  0.22950  0.07110  1.0000 0.0059185908
C   C246      1.0  0.44480  0.18570  0.06270  1.0000 -0.0887577322
C   C247      1.0  0.43920  0.25750  0.13610  1.0000 -0.072319677
C   C248      1.0  0.23200  0.42420  0.06680  1.0000 -0.0212329031
C   C249      1.0  0.18430  0.44150  0.05660  1.0000 -0.072319677
C   C250      1.0  0.26390  0.44950  0.13180  1.0000 -0.072319677
C   C251      1.0  0.06720  0.56460  0.86860  1.0000 0.5396724686
C   C252      1.0  0.02010  0.51960  0.79830  1.0000 -0.0212329031
C   C253      1.0  0.03660  0.50780  0.75700  1.0000 -0.0811887432
C   C254      1.0  0.99110  0.45960  0.69150  1.0000 -0.1902189442
C   C255      1.0  0.92980  0.43300  0.67180  1.0000 0.1733767037
C   C256      1.0  0.91110  0.44230  0.71720  1.0000 -0.1986222123
C   C257      1.0  0.95570  0.48490  0.78380  1.0000 -0.0887577322
C   C258      1.0  0.88480  0.33390  0.57210  1.0000 0.1181233413
C   C259      1.0  0.92860  0.31490  0.58730  1.0000 -0.1804850566
C   C260      1.0  0.91730  0.25700  0.54150  1.0000 -0.1304932714
C   C261      1.0  0.86680  0.22380  0.48020  1.0000 0.0837405766
C   C262      1.0  0.82320  0.24450  0.46370  1.0000 -0.1986222123
C   C263      1.0  0.83290  0.30130  0.51060  1.0000 -0.0118295843
C   C264      1.0  0.79670  0.33260  0.51030  1.0000 -0.0118295843
C   C265      1.0  0.82860  0.38530  0.57090  1.0000 0.0985542499
C   C266      1.0  0.80690  0.42740  0.58490  1.0000 -0.1902189442
C   C267      1.0  0.74960  0.41400  0.53600  1.0000 -0.1452731172
C   C268      1.0  0.71590  0.36110  0.47780  1.0000 0.0667263476
C   C269      1.0  0.73930  0.31950  0.46160  1.0000 -0.1804850566
C   C270      1.0  0.65840  0.35070  0.42890  1.0000 0.0059185908
C   C271      1.0  0.62300  0.38210  0.43730  1.0000 -0.0887577322
C   C272      1.0  0.62140  0.30310  0.36390  1.0000 -0.072319677
C   C273      1.0  0.85740  0.16520  0.43320  1.0000 -0.0212329031
C   C274      1.0  0.88490  0.12770  0.44340  1.0000 -0.072319677
C   C275      1.0  0.81770  0.13210  0.36820  1.0000 -0.072319677
C   C276      1.0  0.43280  0.30140  0.49740  1.0000 0.5396724686
C   C277      1.0  0.47990  0.27820  0.49950  1.0000 -0.0212329031
C   C278      1.0  0.46340  0.22040  0.47120  1.0000 -0.0811887432
C   C279      1.0  0.50890  0.20040  0.46850  1.0000 -0.1902189442
C   C280      1.0  0.57020  0.24200  0.50320  1.0000 0.1733767037
C   C281      1.0  0.58890  0.30610  0.53120  1.0000 -0.1986222123
C   C282      1.0  0.54430  0.32810  0.52920  1.0000 -0.0887577322
C   C283      1.0  0.61520  0.18730  0.44910  1.0000 0.1181233413
C   C284      1.0  0.57140  0.15870  0.38630  1.0000 -0.1804850566
C   C285      1.0  0.58270  0.12420  0.33970  1.0000 -0.1304932714
C   C286      1.0  0.63320  0.11340  0.35700  1.0000 0.0837405766
C   C287      1.0  0.67680  0.14050  0.42130  1.0000 -0.1986222123
C   C288      1.0  0.66710  0.17770  0.46840  1.0000 -0.0118295843
C   C289      1.0  0.70330  0.21360  0.53590  1.0000 -0.0118295843
C   C290      1.0  0.67140  0.24230  0.55670  1.0000 0.0985542499
C   C291      1.0  0.69310  0.27800  0.62050  1.0000 -0.1902189442
C   C292      1.0  0.75040  0.28640  0.66440  1.0000 -0.1452731172
C   C293      1.0  0.78410  0.26190  0.64520  1.0000 0.0667263476
C   C294      1.0  0.76070  0.22230  0.58020  1.0000 -0.1804850566
C   C295      1.0  0.84160  0.27050  0.69230  1.0000 0.0059185908
C   C296      1.0  0.87700  0.31430  0.75910  1.0000 -0.0887577322
C   C297      1.0  0.87860  0.24250  0.68170  1.0000 -0.072319677
C   C298      1.0  0.64260  0.07580  0.30780  1.0000 -0.0212329031
C   C299      1.0  0.61510  0.05850  0.24280  1.0000 -0.072319677
C   C300      1.0  0.68230  0.05050  0.31440  1.0000 -0.072319677
N   N1        1.0  0.35392  0.38062  0.56790  1.0000 -0.1902189442
N   N2        1.0  0.30720  0.33650  0.56810  1.0000 -0.1599310592
N   N3        1.0  0.07900  0.34120  0.81940  1.0000 -0.1710091313
N   N4        1.0  0.07400  0.38710  0.86010  1.0000 -0.1986222123
N   N5        1.0  0.38780  0.60720  0.88500  1.0000 -0.0811887432
N   N6        1.0  0.31272  0.78602  0.93210  1.0000 -0.1902189442
N   N7        1.0  0.26840  0.73910  0.93190  1.0000 -0.1599310592
N   N8        1.0  0.02180  0.25960  0.68060  1.0000 -0.1710091313
N   N9        1.0  0.02700  0.21390  0.63990  1.0000 -0.1986222123
N   N10       1.0  0.22220  0.50280  0.61500  1.0000 -0.0811887432
N   N11       1.0  0.14608  0.71398  0.02670  1.0000 -0.1902189442
N   N12       1.0  0.19280  0.76090  0.02930  1.0000 -0.1599310592
N   N13       1.0  0.42100  0.24040  0.26220  1.0000 -0.1710091313
N   N14       1.0  0.42600  0.28610  0.31310  1.0000 -0.1986222123
N   N15       1.0  0.11220  0.99720  0.21940  1.0000 -0.0811887432
N   N16       1.0  0.18728  0.11938  0.47330  1.0000 -0.1902189442
N   N17       1.0  0.23160  0.16350  0.47070  1.0000 -0.1599310592
N   N18       1.0  0.47820  0.15880  0.23780  1.0000 -0.1710091313
N   N19       1.0  0.47300  0.11290  0.18690  1.0000 -0.1986222123
N   N20       1.0  0.27780  0.89280  0.28060  1.0000 -0.0811887432
N   N21       1.0  0.11938  0.47330  0.18728  1.0000 -0.1902189442
N   N22       1.0  0.16350  0.47070  0.23160  1.0000 -0.1599310592
N   N23       1.0  0.15880  0.23780  0.47820  1.0000 -0.1710091313
N   N24       1.0  0.11290  0.18690  0.47300  1.0000 -0.1986222123
N   N25       1.0  0.89280  0.28060  0.27780  1.0000 -0.0811887432
N   N26       1.0  0.71398  0.02670  0.14608  1.0000 -0.1902189442
N   N27       1.0  0.76090  0.02930  0.19280  1.0000 -0.1599310592
N   N28       1.0  0.24040  0.26220  0.42100  1.0000 -0.1710091313
N   N29       1.0  0.28610  0.31310  0.42600  1.0000 -0.1986222123
N   N30       1.0  0.99720  0.21940  0.11220  1.0000 -0.0811887432
N   N31       1.0  0.78602  0.93210  0.31272  1.0000 -0.1902189442
N   N32       1.0  0.73910  0.93190  0.26840  1.0000 -0.1599310592
N   N33       1.0  0.25960  0.68060  0.02180  1.0000 -0.1710091313
N   N34       1.0  0.21390  0.63990  0.02700  1.0000 -0.1986222123
N   N35       1.0  0.50280  0.61500  0.22220  1.0000 -0.0811887432
N   N36       1.0  0.38062  0.56790  0.35392  1.0000 -0.1902189442
N   N37       1.0  0.33650  0.56810  0.30720  1.0000 -0.1599310592
N   N38       1.0  0.34120  0.81940  0.07900  1.0000 -0.1710091313
N   N39       1.0  0.38710  0.86010  0.07400  1.0000 -0.1986222123
N   N40       1.0  0.60720  0.88500  0.38780  1.0000 -0.0811887432
N   N41       1.0  0.02670  0.14608  0.71398  1.0000 -0.1902189442
N   N42       1.0  0.02930  0.19280  0.76090  1.0000 -0.1599310592
N   N43       1.0  0.26220  0.42100  0.24040  1.0000 -0.1710091313
N   N44       1.0  0.31310  0.42600  0.28610  1.0000 -0.1986222123
N   N45       1.0  0.21940  0.11220  0.99720  1.0000 -0.0811887432
N   N46       1.0  0.47330  0.18728  0.11938  1.0000 -0.1902189442
N   N47       1.0  0.47070  0.23160  0.16350  1.0000 -0.1599310592
N   N48       1.0  0.23780  0.47820  0.15880  1.0000 -0.1710091313
N   N49       1.0  0.18690  0.47300  0.11290  1.0000 -0.1986222123
N   N50       1.0  0.28060  0.27780  0.89280  1.0000 -0.0811887432
N   N51       1.0  0.56790  0.35392  0.38062  1.0000 -0.1902189442
N   N52       1.0  0.56810  0.30720  0.33650  1.0000 -0.1599310592
N   N53       1.0  0.81940  0.07900  0.34120  1.0000 -0.1710091313
N   N54       1.0  0.86010  0.07400  0.38710  1.0000 -0.1986222123
N   N55       1.0  0.88500  0.38780  0.60720  1.0000 -0.0811887432
N   N56       1.0  0.93210  0.31272  0.78602  1.0000 -0.1902189442
N   N57       1.0  0.93190  0.26840  0.73910  1.0000 -0.1599310592
N   N58       1.0  0.68060  0.02180  0.25960  1.0000 -0.1710091313
N   N59       1.0  0.63990  0.02700  0.21390  1.0000 -0.1986222123
N   N60       1.0  0.61500  0.22220  0.50280  1.0000 -0.0811887432
O   O1        1.0  0.55580  0.90780  0.05800  1.0000 -0.4312772835
O   O2        1.0  0.61140  0.88610  0.11990  1.0000 -0.5226698374
O   O3        1.0  0.34980  0.49780  0.44200  1.0000 -0.4312772835
O   O4        1.0  0.26620  0.49150  0.38010  1.0000 -0.5226698374
O   O5        1.0  0.94420  0.00220  0.35200  1.0000 -0.43561027
O   O6        1.0  0.88860  0.00850  0.27470  1.0000 -0.5226698374
O   O7        1.0  0.15020  0.59220  0.14800  1.0000 -0.4312772835
O   O8        1.0  0.23380  0.61390  0.22530  1.0000 -0.5226698374
O   O9        1.0  0.59220  0.14800  0.15020  1.0000 -0.4312772835
O   O10       1.0  0.61390  0.22530  0.23380  1.0000 -0.5226698374
O   O11       1.0  0.00220  0.35200  0.94420  1.0000 -0.4312772835
O   O12       1.0  0.00850  0.27470  0.88860  1.0000 -0.5226698374
O   O13       1.0  0.49780  0.44200  0.34980  1.0000 -0.4312772835
O   O14       1.0  0.49150  0.38010  0.26620  1.0000 -0.5226698374
O   O15       1.0  0.90780  0.05800  0.55580  1.0000 -0.4312772835
O   O16       1.0  0.88610  0.11990  0.61140  1.0000 -0.5226698374
O   O17       1.0  0.35200  0.94420  0.00220  1.0000 -0.4312772835
O   O18       1.0  0.27470  0.88860  0.00850  1.0000 -0.5226698374
O   O19       1.0  0.14800  0.15020  0.59220  1.0000 -0.4312772835
O   O20       1.0  0.22530  0.23380  0.61390  1.0000 -0.5226698374
O   O21       1.0  0.05800  0.55580  0.90780  1.0000 -0.4312772835
O   O22       1.0  0.11990  0.61140  0.88610  1.0000 -0.5226698374
O   O23       1.0  0.44200  0.34980  0.49780  1.0000 -0.43561027
O   O24       1.0  0.38010  0.26620  0.49150  1.0000 -0.5226698374
