# DDEC6 charges by PACMAN v1.1 (https://github.com/mtap-research/PACMAN-charge/)
data_2021[Zn][rtl]3[ASR]2
_chemical_formula_sum              "Zn32 H288 C480 N48 O152"
_cell_length_a       34.0897
_cell_length_b       27.9017
_cell_length_c       36.1445
_cell_angle_alpha    90
_cell_angle_beta     109.436
_cell_angle_gamma    90

_symmetry_space_group_name_H-M    "P 1"
_symmetry_Int_Tables_number       1

loop_
  _symmetry_equiv_pos_as_xyz
  'x, y, z'

loop_
  _atom_site_type_symbol
  _atom_site_label
  _atom_site_symmetry_multiplicity
  _atom_site_fract_x
  _atom_site_fract_y
  _atom_site_fract_z
  _atom_site_occupancy
  _atom_site_charge
Zn  Zn1       1.0  0.28455  0.99794  0.39756  1.0000 0.9392064038
Zn  Zn2       1.0  0.21127  0.07506  0.37717  1.0000 0.9678737594
Zn  Zn3       1.0  0.19745  0.96823  0.40251  1.0000 0.9392064038
Zn  Zn4       1.0  0.21033  0.98632  0.32080  1.0000 0.9392064038
Zn  Zn5       1.0  0.21032  0.01570  0.95047  1.0000 0.9601845367
Zn  Zn6       1.0  0.21314  0.92650  0.89646  1.0000 0.9392064038
Zn  Zn7       1.0  0.13745  0.99794  0.87254  1.0000 0.9392064038
Zn  Zn8       1.0  0.22281  0.03125  0.86596  1.0000 0.9392064038
Zn  Zn9       1.0  0.78455  0.50206  0.39756  1.0000 0.9392064038
Zn  Zn10      1.0  0.71127  0.42494  0.37717  1.0000 0.9678737594
Zn  Zn11      1.0  0.69745  0.53177  0.40251  1.0000 0.9392064038
Zn  Zn12      1.0  0.71033  0.51368  0.32080  1.0000 0.9392064038
Zn  Zn13      1.0  0.71032  0.48430  0.95047  1.0000 0.9601845367
Zn  Zn14      1.0  0.71314  0.57350  0.89646  1.0000 0.9392064038
Zn  Zn15      1.0  0.63745  0.50206  0.87254  1.0000 0.9392064038
Zn  Zn16      1.0  0.72281  0.46875  0.86596  1.0000 0.9392064038
Zn  Zn17      1.0  0.21545  0.49794  0.60244  1.0000 0.9392064038
Zn  Zn18      1.0  0.28873  0.57506  0.62283  1.0000 0.9678737594
Zn  Zn19      1.0  0.30255  0.46823  0.59749  1.0000 0.9392064038
Zn  Zn20      1.0  0.28967  0.48632  0.67920  1.0000 0.9392064038
Zn  Zn21      1.0  0.28968  0.51570  0.04953  1.0000 0.9601845367
Zn  Zn22      1.0  0.28686  0.42650  0.10354  1.0000 0.9392064038
Zn  Zn23      1.0  0.36255  0.49794  0.12746  1.0000 0.9392064038
Zn  Zn24      1.0  0.27719  0.53125  0.13404  1.0000 0.9392064038
Zn  Zn25      1.0  0.71545  0.00206  0.60244  1.0000 0.9392064038
Zn  Zn26      1.0  0.78873  0.92494  0.62283  1.0000 0.9678737594
Zn  Zn27      1.0  0.80255  0.03177  0.59749  1.0000 0.9392064038
Zn  Zn28      1.0  0.78967  0.01368  0.67920  1.0000 0.9392064038
Zn  Zn29      1.0  0.78968  0.98430  0.04953  1.0000 0.9601845367
Zn  Zn30      1.0  0.78686  0.07350  0.10354  1.0000 0.9392064038
Zn  Zn31      1.0  0.86255  0.00206  0.12746  1.0000 0.9392064038
Zn  Zn32      1.0  0.77719  0.96875  0.13404  1.0000 0.9392064038
H   H1        1.0  0.44500  0.21906  0.51672  1.0000 0.2724559935
H   H2        1.0  0.54698  0.40624  0.52440  1.0000 0.2724559935
H   H3        1.0  0.57258  0.35622  0.64389  1.0000 0.2790083606
H   H4        1.0  0.34332  0.85386  0.62534  1.0000 0.2790083606
H   H5        1.0  0.51639  0.77417  0.78085  1.0000 0.2790083606
H   H6        1.0  0.36158  0.89534  0.73690  1.0000 0.2790083606
H   H7        1.0  0.38166  0.85930  0.22664  1.0000 0.2790083606
H   H8        1.0  0.40784  0.89660  0.12563  1.0000 0.2724559935
H   H9        1.0  0.52347  0.73789  0.26984  1.0000 0.2724559935
H   H10       1.0  0.04803  0.15375  0.03747  1.0000 0.2724559935
H   H11       1.0  0.02263  0.11769  0.14278  1.0000 0.2865983917
H   H12       1.0  0.91564  0.28426  0.00403  1.0000 0.2790083606
H   H13       1.0  0.38124  0.09294  0.44746  1.0000 0.1290089263
H   H14       1.0  0.43011  0.14795  0.48520  1.0000 0.1290089263
H   H15       1.0  0.33925  0.22249  0.50443  1.0000 0.1290089263
H   H16       1.0  0.29066  0.16640  0.46852  1.0000 0.1290089263
H   H17       1.0  0.46686  0.28958  0.49799  1.0000 0.1290089263
H   H18       1.0  0.54698  0.37471  0.57886  1.0000 0.1003954552
H   H19       1.0  0.45213  0.30976  0.60334  1.0000 0.1382375882
H   H20       1.0  0.59335  0.33503  0.47099  1.0000 0.1290089263
H   H21       1.0  0.63373  0.36400  0.43529  1.0000 0.1290089263
H   H22       1.0  0.61452  0.49901  0.46468  1.0000 0.1290089263
H   H23       1.0  0.56973  0.47103  0.49591  1.0000 0.1290089263
H   H24       1.0  0.63247  0.35701  0.69749  1.0000 0.1290089263
H   H25       1.0  0.66939  0.38709  0.75959  1.0000 0.1290089263
H   H26       1.0  0.56610  0.45286  0.76315  1.0000 0.1290089263
H   H27       1.0  0.53010  0.42566  0.70055  1.0000 0.1382375882
H   H28       1.0  0.35460  0.92433  0.49648  1.0000 0.1290089263
H   H29       1.0  0.38980  0.89000  0.55606  1.0000 0.1382375882
H   H30       1.0  0.28182  0.86827  0.57543  1.0000 0.1290089263
H   H31       1.0  0.24711  0.89770  0.51346  1.0000 0.1290089263
H   H32       1.0  0.46041  0.79010  0.66405  1.0000 0.1382375882
H   H33       1.0  0.44716  0.78274  0.77102  1.0000 0.1290089263
H   H34       1.0  0.36764  0.86412  0.68649  1.0000 0.1003954552
H   H35       1.0  0.51607  0.65579  0.75805  1.0000 0.1382375882
H   H36       1.0  0.56056  0.59768  0.79700  1.0000 0.1220230879
H   H37       1.0  0.63313  0.70154  0.86259  1.0000 0.1290089263
H   H38       1.0  0.58564  0.75950  0.82691  1.0000 0.1382375882
H   H39       1.0  0.32213  0.82749  0.79664  1.0000 0.1382375882
H   H40       1.0  0.27987  0.85828  0.83092  1.0000 0.1290089263
H   H41       1.0  0.29595  0.99140  0.79736  1.0000 0.1290089263
H   H42       1.0  0.33754  0.96087  0.76205  1.0000 0.1290089263
H   H43       1.0  0.27833  0.92343  0.25805  1.0000 0.1290089263
H   H44       1.0  0.31914  0.88392  0.22719  1.0000 0.1290089263
H   H45       1.0  0.42038  0.90785  0.32272  1.0000 0.1382375882
H   H46       1.0  0.37705  0.94212  0.35419  1.0000 0.1290089263
H   H47       1.0  0.40732  0.87007  0.18117  1.0000 0.1003954552
H   H48       1.0  0.48711  0.78021  0.15429  1.0000 0.1382375882
H   H49       1.0  0.50325  0.81061  0.26796  1.0000 0.1290089263
H   H50       1.0  0.37506  0.95813  0.08561  1.0000 0.1220230879
H   H51       1.0  0.32425  0.98321  0.02805  1.0000 0.1290089263
H   H52       1.0  0.30420  0.84674  0.99069  1.0000 0.1220230879
H   H53       1.0  0.35924  0.82216  0.04633  1.0000 0.1382375882
H   H54       1.0  0.60777  0.70197  0.24068  1.0000 0.1382375882
H   H55       1.0  0.65757  0.64610  0.27550  1.0000 0.1290089263
H   H56       1.0  0.59506  0.62726  0.35170  1.0000 0.1290089263
H   H57       1.0  0.54392  0.67907  0.31595  1.0000 0.1220230879
H   H58       1.0  0.14348  0.10261  0.98995  1.0000 0.1382375882
H   H59       1.0  0.10720  0.13508  0.02596  1.0000 0.1290089263
H   H60       1.0  0.00055  0.09295  0.94905  1.0000 0.1382375882
H   H61       1.0  0.03711  0.05438  0.91342  1.0000 0.1290089263
H   H62       1.0  0.02644  0.14484  0.08681  1.0000 0.1089640202
H   H63       1.0  0.95576  0.24159  0.11880  1.0000 0.1290089263
H   H64       1.0  0.93224  0.21125  0.00506  1.0000 0.1220230879
H   H65       1.0  0.06455  0.05477  0.17239  1.0000 0.1290089263
H   H66       1.0  0.12198  0.02951  0.22488  1.0000 0.1290089263
H   H67       1.0  0.11763  0.14870  0.28559  1.0000 0.1290089263
H   H68       1.0  0.06796  0.18142  0.23138  1.0000 0.1382375882
H   H69       1.0  0.88332  0.32375  0.94801  1.0000 0.1290089263
H   H70       1.0  0.82981  0.37387  0.91099  1.0000 0.1290089263
H   H71       1.0  0.78173  0.37538  0.99894  1.0000 0.1220230879
H   H72       1.0  0.83710  0.32830  0.03770  1.0000 0.1382375882
H   H73       1.0  0.94500  0.28094  0.51672  1.0000 0.2724559935
H   H74       1.0  0.04698  0.09376  0.52440  1.0000 0.2724559935
H   H75       1.0  0.07258  0.14378  0.64389  1.0000 0.2790083606
H   H76       1.0  0.84332  0.64614  0.62534  1.0000 0.2790083606
H   H77       1.0  0.01639  0.72583  0.78085  1.0000 0.2790083606
H   H78       1.0  0.86158  0.60466  0.73690  1.0000 0.2790083606
H   H79       1.0  0.88166  0.64070  0.22664  1.0000 0.2790083606
H   H80       1.0  0.90784  0.60340  0.12563  1.0000 0.2724559935
H   H81       1.0  0.02347  0.76211  0.26984  1.0000 0.2724559935
H   H82       1.0  0.54803  0.34625  0.03747  1.0000 0.2724559935
H   H83       1.0  0.52263  0.38231  0.14278  1.0000 0.2865983917
H   H84       1.0  0.41564  0.21574  0.00403  1.0000 0.2790083606
H   H85       1.0  0.88124  0.40706  0.44746  1.0000 0.1290089263
H   H86       1.0  0.93011  0.35205  0.48520  1.0000 0.1290089263
H   H87       1.0  0.83925  0.27751  0.50443  1.0000 0.1290089263
H   H88       1.0  0.79066  0.33360  0.46852  1.0000 0.1290089263
H   H89       1.0  0.96686  0.21042  0.49799  1.0000 0.1290089263
H   H90       1.0  0.04698  0.12529  0.57886  1.0000 0.1003954552
H   H91       1.0  0.95213  0.19024  0.60334  1.0000 0.1382375882
H   H92       1.0  0.09335  0.16497  0.47099  1.0000 0.1290089263
H   H93       1.0  0.13373  0.13600  0.43529  1.0000 0.1290089263
H   H94       1.0  0.11452  0.00099  0.46468  1.0000 0.1290089263
H   H95       1.0  0.06973  0.02897  0.49591  1.0000 0.1290089263
H   H96       1.0  0.13247  0.14299  0.69749  1.0000 0.1290089263
H   H97       1.0  0.16939  0.11291  0.75959  1.0000 0.1290089263
H   H98       1.0  0.06610  0.04714  0.76315  1.0000 0.1290089263
H   H99       1.0  0.03010  0.07434  0.70055  1.0000 0.1382375882
H   H100      1.0  0.85460  0.57567  0.49648  1.0000 0.1290089263
H   H101      1.0  0.88980  0.61000  0.55606  1.0000 0.1382375882
H   H102      1.0  0.78182  0.63173  0.57543  1.0000 0.1290089263
H   H103      1.0  0.74711  0.60230  0.51346  1.0000 0.1290089263
H   H104      1.0  0.96041  0.70990  0.66405  1.0000 0.1382375882
H   H105      1.0  0.94716  0.71726  0.77102  1.0000 0.1290089263
H   H106      1.0  0.86764  0.63588  0.68649  1.0000 0.1003954552
H   H107      1.0  0.01607  0.84421  0.75805  1.0000 0.1382375882
H   H108      1.0  0.06056  0.90232  0.79700  1.0000 0.1220230879
H   H109      1.0  0.13313  0.79846  0.86259  1.0000 0.1290089263
H   H110      1.0  0.08564  0.74050  0.82691  1.0000 0.1382375882
H   H111      1.0  0.82213  0.67251  0.79664  1.0000 0.1382375882
H   H112      1.0  0.77987  0.64172  0.83092  1.0000 0.1290089263
H   H113      1.0  0.79595  0.50860  0.79736  1.0000 0.1290089263
H   H114      1.0  0.83754  0.53913  0.76205  1.0000 0.1290089263
H   H115      1.0  0.77833  0.57657  0.25805  1.0000 0.1290089263
H   H116      1.0  0.81914  0.61608  0.22719  1.0000 0.1290089263
H   H117      1.0  0.92038  0.59215  0.32272  1.0000 0.1382375882
H   H118      1.0  0.87705  0.55788  0.35419  1.0000 0.1290089263
H   H119      1.0  0.90732  0.62993  0.18117  1.0000 0.1003954552
H   H120      1.0  0.98711  0.71979  0.15429  1.0000 0.1382375882
H   H121      1.0  0.00325  0.68939  0.26796  1.0000 0.1290089263
H   H122      1.0  0.87506  0.54187  0.08561  1.0000 0.1220230879
H   H123      1.0  0.82425  0.51679  0.02805  1.0000 0.1290089263
H   H124      1.0  0.80420  0.65326  0.99069  1.0000 0.1220230879
H   H125      1.0  0.85924  0.67784  0.04633  1.0000 0.1382375882
H   H126      1.0  0.10777  0.79803  0.24068  1.0000 0.1382375882
H   H127      1.0  0.15757  0.85390  0.27550  1.0000 0.1290089263
H   H128      1.0  0.09506  0.87274  0.35170  1.0000 0.1290089263
H   H129      1.0  0.04392  0.82093  0.31595  1.0000 0.1220230879
H   H130      1.0  0.64348  0.39739  0.98995  1.0000 0.1382375882
H   H131      1.0  0.60720  0.36492  0.02596  1.0000 0.1290089263
H   H132      1.0  0.50055  0.40705  0.94905  1.0000 0.1382375882
H   H133      1.0  0.53711  0.44562  0.91342  1.0000 0.1290089263
H   H134      1.0  0.52644  0.35516  0.08681  1.0000 0.1089640202
H   H135      1.0  0.45576  0.25841  0.11880  1.0000 0.1290089263
H   H136      1.0  0.43224  0.28875  0.00506  1.0000 0.1220230879
H   H137      1.0  0.56455  0.44523  0.17239  1.0000 0.1290089263
H   H138      1.0  0.62198  0.47049  0.22488  1.0000 0.1290089263
H   H139      1.0  0.61763  0.35130  0.28559  1.0000 0.1290089263
H   H140      1.0  0.56796  0.31858  0.23138  1.0000 0.1382375882
H   H141      1.0  0.38332  0.17625  0.94801  1.0000 0.1290089263
H   H142      1.0  0.32981  0.12613  0.91099  1.0000 0.1290089263
H   H143      1.0  0.28173  0.12462  0.99894  1.0000 0.1220230879
H   H144      1.0  0.33710  0.17170  0.03770  1.0000 0.1382375882
H   H145      1.0  0.05500  0.71906  0.48328  1.0000 0.2724559935
H   H146      1.0  0.95302  0.90624  0.47560  1.0000 0.2790083606
H   H147      1.0  0.92742  0.85622  0.35611  1.0000 0.2790083606
H   H148      1.0  0.15668  0.35386  0.37466  1.0000 0.2790083606
H   H149      1.0  0.98361  0.27417  0.21915  1.0000 0.2790083606
H   H150      1.0  0.13842  0.39534  0.26310  1.0000 0.2790083606
H   H151      1.0  0.11834  0.35930  0.77336  1.0000 0.2724559935
H   H152      1.0  0.09216  0.39660  0.87437  1.0000 0.2724559935
H   H153      1.0  0.97653  0.23789  0.73016  1.0000 0.2724559935
H   H154      1.0  0.45197  0.65375  0.96253  1.0000 0.2724559935
H   H155      1.0  0.47737  0.61769  0.85722  1.0000 0.2865983917
H   H156      1.0  0.58436  0.78426  0.99597  1.0000 0.2790083606
H   H157      1.0  0.11876  0.59294  0.55254  1.0000 0.1290089263
H   H158      1.0  0.06989  0.64795  0.51480  1.0000 0.1290089263
H   H159      1.0  0.16075  0.72249  0.49557  1.0000 0.1290089263
H   H160      1.0  0.20934  0.66640  0.53148  1.0000 0.1290089263
H   H161      1.0  0.03314  0.78958  0.50201  1.0000 0.1290089263
H   H162      1.0  0.95302  0.87471  0.42114  1.0000 0.1003954552
H   H163      1.0  0.04787  0.80976  0.39666  1.0000 0.1382375882
H   H164      1.0  0.90665  0.83503  0.52901  1.0000 0.1382375882
H   H165      1.0  0.86627  0.86400  0.56471  1.0000 0.1290089263
H   H166      1.0  0.88548  0.99901  0.53532  1.0000 0.1290089263
H   H167      1.0  0.93027  0.97103  0.50409  1.0000 0.1290089263
H   H168      1.0  0.86753  0.85701  0.30251  1.0000 0.1290089263
H   H169      1.0  0.83061  0.88709  0.24041  1.0000 0.1290089263
H   H170      1.0  0.93390  0.95286  0.23685  1.0000 0.1290089263
H   H171      1.0  0.96990  0.92566  0.29945  1.0000 0.1382375882
H   H172      1.0  0.14540  0.42433  0.50352  1.0000 0.1290089263
H   H173      1.0  0.11020  0.39000  0.44394  1.0000 0.1382375882
H   H174      1.0  0.21818  0.36827  0.42457  1.0000 0.1290089263
H   H175      1.0  0.25289  0.39770  0.48654  1.0000 0.1290089263
H   H176      1.0  0.03959  0.29010  0.33595  1.0000 0.1382375882
H   H177      1.0  0.05284  0.28274  0.22898  1.0000 0.1290089263
H   H178      1.0  0.13236  0.36412  0.31351  1.0000 0.1003954552
H   H179      1.0  0.98393  0.15579  0.24195  1.0000 0.1382375882
H   H180      1.0  0.93944  0.09768  0.20300  1.0000 0.1220230879
H   H181      1.0  0.86687  0.20154  0.13741  1.0000 0.1290089263
H   H182      1.0  0.91436  0.25950  0.17309  1.0000 0.1382375882
H   H183      1.0  0.17787  0.32749  0.20336  1.0000 0.1382375882
H   H184      1.0  0.22013  0.35828  0.16908  1.0000 0.1290089263
H   H185      1.0  0.20405  0.49140  0.20264  1.0000 0.1290089263
H   H186      1.0  0.16246  0.46087  0.23795  1.0000 0.1290089263
H   H187      1.0  0.22167  0.42343  0.74195  1.0000 0.1290089263
H   H188      1.0  0.18086  0.38392  0.77281  1.0000 0.1290089263
H   H189      1.0  0.07962  0.40785  0.67728  1.0000 0.1382375882
H   H190      1.0  0.12295  0.44212  0.64581  1.0000 0.1290089263
H   H191      1.0  0.09268  0.37007  0.81883  1.0000 0.1003954552
H   H192      1.0  0.01289  0.28021  0.84571  1.0000 0.1382375882
H   H193      1.0  0.99675  0.31061  0.73204  1.0000 0.1290089263
H   H194      1.0  0.12494  0.45813  0.91439  1.0000 0.1290089263
H   H195      1.0  0.17575  0.48321  0.97195  1.0000 0.1290089263
H   H196      1.0  0.19580  0.34674  0.00931  1.0000 0.1220230879
H   H197      1.0  0.14076  0.32216  0.95367  1.0000 0.1382375882
H   H198      1.0  0.89223  0.20197  0.75932  1.0000 0.1382375882
H   H199      1.0  0.84243  0.14610  0.72450  1.0000 0.1290089263
H   H200      1.0  0.90494  0.12726  0.64830  1.0000 0.1290089263
H   H201      1.0  0.95608  0.17907  0.68405  1.0000 0.1220230879
H   H202      1.0  0.35652  0.60261  0.01005  1.0000 0.1382375882
H   H203      1.0  0.39280  0.63508  0.97404  1.0000 0.1290089263
H   H204      1.0  0.49945  0.59295  0.05095  1.0000 0.1382375882
H   H205      1.0  0.46289  0.55438  0.08658  1.0000 0.1290089263
H   H206      1.0  0.47356  0.64484  0.91319  1.0000 0.1089640202
H   H207      1.0  0.54424  0.74159  0.88120  1.0000 0.1290089263
H   H208      1.0  0.56776  0.71125  0.99494  1.0000 0.1220230879
H   H209      1.0  0.43545  0.55477  0.82761  1.0000 0.1290089263
H   H210      1.0  0.37802  0.52951  0.77512  1.0000 0.1290089263
H   H211      1.0  0.38237  0.64870  0.71441  1.0000 0.1290089263
H   H212      1.0  0.43204  0.68142  0.76862  1.0000 0.1382375882
H   H213      1.0  0.61668  0.82375  0.05199  1.0000 0.1290089263
H   H214      1.0  0.67019  0.87387  0.08901  1.0000 0.1290089263
H   H215      1.0  0.71827  0.87538  0.00106  1.0000 0.1290089263
H   H216      1.0  0.66290  0.82830  0.96230  1.0000 0.1382375882
H   H217      1.0  0.55500  0.78094  0.48328  1.0000 0.2724559935
H   H218      1.0  0.45302  0.59376  0.47560  1.0000 0.2724559935
H   H219      1.0  0.42742  0.64378  0.35611  1.0000 0.2790083606
H   H220      1.0  0.65668  0.14614  0.37466  1.0000 0.2724559935
H   H221      1.0  0.48361  0.22583  0.21915  1.0000 0.2790083606
H   H222      1.0  0.63842  0.10466  0.26310  1.0000 0.2790083606
H   H223      1.0  0.61834  0.14070  0.77336  1.0000 0.2724559935
H   H224      1.0  0.59216  0.10340  0.87437  1.0000 0.2724559935
H   H225      1.0  0.47653  0.26211  0.73016  1.0000 0.2724559935
H   H226      1.0  0.95197  0.84625  0.96253  1.0000 0.2724559935
H   H227      1.0  0.97737  0.88231  0.85722  1.0000 0.2865983917
H   H228      1.0  0.08436  0.71574  0.99597  1.0000 0.2790083606
H   H229      1.0  0.61876  0.90706  0.55254  1.0000 0.1290089263
H   H230      1.0  0.56989  0.85205  0.51480  1.0000 0.1290089263
H   H231      1.0  0.66075  0.77751  0.49557  1.0000 0.1290089263
H   H232      1.0  0.70934  0.83360  0.53148  1.0000 0.1290089263
H   H233      1.0  0.53314  0.71042  0.50201  1.0000 0.1290089263
H   H234      1.0  0.45302  0.62529  0.42114  1.0000 0.1003954552
H   H235      1.0  0.54787  0.69024  0.39666  1.0000 0.1382375882
H   H236      1.0  0.40665  0.66497  0.52901  1.0000 0.1382375882
H   H237      1.0  0.36627  0.63600  0.56471  1.0000 0.1290089263
H   H238      1.0  0.38548  0.50099  0.53532  1.0000 0.1290089263
H   H239      1.0  0.43027  0.52897  0.50409  1.0000 0.1290089263
H   H240      1.0  0.36753  0.64299  0.30251  1.0000 0.1290089263
H   H241      1.0  0.33061  0.61291  0.24041  1.0000 0.1290089263
H   H242      1.0  0.43390  0.54714  0.23685  1.0000 0.1290089263
H   H243      1.0  0.46990  0.57434  0.29945  1.0000 0.1382375882
H   H244      1.0  0.64540  0.07567  0.50352  1.0000 0.1290089263
H   H245      1.0  0.61020  0.11000  0.44394  1.0000 0.1382375882
H   H246      1.0  0.71818  0.13173  0.42457  1.0000 0.1290089263
H   H247      1.0  0.75289  0.10230  0.48654  1.0000 0.1290089263
H   H248      1.0  0.53959  0.20990  0.33595  1.0000 0.1382375882
H   H249      1.0  0.55284  0.21726  0.22898  1.0000 0.1290089263
H   H250      1.0  0.63236  0.13588  0.31351  1.0000 0.1003954552
H   H251      1.0  0.48393  0.34421  0.24195  1.0000 0.1382375882
H   H252      1.0  0.43944  0.40232  0.20300  1.0000 0.1220230879
H   H253      1.0  0.36687  0.29846  0.13741  1.0000 0.1290089263
H   H254      1.0  0.41436  0.24050  0.17309  1.0000 0.1382375882
H   H255      1.0  0.67787  0.17251  0.20336  1.0000 0.1382375882
H   H256      1.0  0.72013  0.14172  0.16908  1.0000 0.1290089263
H   H257      1.0  0.70405  0.00860  0.20264  1.0000 0.1290089263
H   H258      1.0  0.66246  0.03913  0.23795  1.0000 0.1290089263
H   H259      1.0  0.72167  0.07657  0.74195  1.0000 0.1290089263
H   H260      1.0  0.68086  0.11608  0.77281  1.0000 0.1290089263
H   H261      1.0  0.57962  0.09215  0.67728  1.0000 0.1382375882
H   H262      1.0  0.62295  0.05788  0.64581  1.0000 0.1290089263
H   H263      1.0  0.59268  0.12993  0.81883  1.0000 0.1003954552
H   H264      1.0  0.51289  0.21979  0.84571  1.0000 0.1382375882
H   H265      1.0  0.49675  0.18939  0.73204  1.0000 0.1290089263
H   H266      1.0  0.62494  0.04187  0.91439  1.0000 0.1220230879
H   H267      1.0  0.67575  0.01679  0.97195  1.0000 0.1290089263
H   H268      1.0  0.69580  0.15326  0.00931  1.0000 0.1290089263
H   H269      1.0  0.64076  0.17784  0.95367  1.0000 0.1382375882
H   H270      1.0  0.39223  0.29803  0.75932  1.0000 0.1382375882
H   H271      1.0  0.34243  0.35390  0.72450  1.0000 0.1290089263
H   H272      1.0  0.40494  0.37274  0.64830  1.0000 0.1290089263
H   H273      1.0  0.45608  0.32093  0.68405  1.0000 0.1220230879
H   H274      1.0  0.85652  0.89739  0.01005  1.0000 0.1382375882
H   H275      1.0  0.89280  0.86492  0.97404  1.0000 0.1290089263
H   H276      1.0  0.99945  0.90705  0.05095  1.0000 0.1382375882
H   H277      1.0  0.96289  0.94562  0.08658  1.0000 0.1290089263
H   H278      1.0  0.97356  0.85516  0.91319  1.0000 0.1089640202
H   H279      1.0  0.04424  0.75841  0.88120  1.0000 0.1290089263
H   H280      1.0  0.06776  0.78875  0.99494  1.0000 0.1220230879
H   H281      1.0  0.93545  0.94523  0.82761  1.0000 0.1290089263
H   H282      1.0  0.87802  0.97049  0.77512  1.0000 0.1290089263
H   H283      1.0  0.88237  0.85130  0.71441  1.0000 0.1290089263
H   H284      1.0  0.93204  0.81858  0.76862  1.0000 0.1382375882
H   H285      1.0  0.11668  0.67625  0.05199  1.0000 0.1290089263
H   H286      1.0  0.17019  0.62613  0.08901  1.0000 0.1290089263
H   H287      1.0  0.21827  0.62462  0.00106  1.0000 0.1290089263
H   H288      1.0  0.16290  0.67170  0.96230  1.0000 0.1382375882
C   C1        1.0  0.29860  0.09180  0.42780  1.0000 0.5894201215
C   C2        1.0  0.33020  0.12740  0.45270  1.0000 -0.0384663372
C   C3        1.0  0.37240  0.11990  0.45870  1.0000 -0.072313636
C   C4        1.0  0.40140  0.15260  0.48140  1.0000 -0.2168954343
C   C5        1.0  0.38957  0.19070  0.49800  1.0000 0.2219239412
C   C6        1.0  0.34826  0.19600  0.49280  1.0000 -0.1904850917
C   C7        1.0  0.31900  0.16300  0.47060  1.0000 -0.0807593517
C   C8        1.0  0.41655  0.26300  0.53779  1.0000 0.4521642613
C   C9        1.0  0.45412  0.29408  0.54883  1.0000 -0.0286288732
C   C10       1.0  0.47576  0.30392  0.52327  1.0000 -0.142811157
C   C11       1.0  0.50967  0.33382  0.53354  1.0000 -0.0100514683
C   C12       1.0  0.52339  0.35419  0.57129  1.0000 -0.1986819179
C   C13       1.0  0.50258  0.34437  0.59745  1.0000 -0.0100514683
C   C14       1.0  0.46725  0.31520  0.58589  1.0000 -0.1285578653
C   C15       1.0  0.53075  0.34256  0.50407  1.0000 0.4521642613
C   C16       1.0  0.57598  0.40079  0.48616  1.0000 0.2310678532
C   C17       1.0  0.59660  0.36861  0.46876  1.0000 -0.1715230455
C   C18       1.0  0.62162  0.38595  0.44845  1.0000 -0.0807593517
C   C19       1.0  0.62923  0.43326  0.44687  1.0000 -0.0503554734
C   C20       1.0  0.60952  0.46558  0.46532  1.0000 -0.072313636
C   C21       1.0  0.58316  0.44888  0.48414  1.0000 -0.2116749872
C   C22       1.0  0.65747  0.45130  0.42525  1.0000 0.5894201215
C   C23       1.0  0.51503  0.36696  0.63684  1.0000 0.4521642613
C   C24       1.0  0.57663  0.38618  0.69381  1.0000 0.2310678532
C   C25       1.0  0.61862  0.37620  0.71103  1.0000 -0.2116749872
C   C26       1.0  0.64061  0.39410  0.74814  1.0000 -0.0625956654
C   C27       1.0  0.62141  0.42169  0.76833  1.0000 -0.0807593517
C   C28       1.0  0.57990  0.43310  0.74996  1.0000 -0.072313636
C   C29       1.0  0.55821  0.41620  0.71293  1.0000 -0.1986819179
C   C30       1.0  0.64401  0.44118  0.80696  1.0000 0.5894201215
C   C31       1.0  0.27478  0.93606  0.45922  1.0000 0.5894201215
C   C32       1.0  0.29756  0.91411  0.49930  1.0000 -0.0384663372
C   C33       1.0  0.33956  0.91210  0.51233  1.0000 -0.0864590878
C   C34       1.0  0.36038  0.89280  0.54796  1.0000 -0.1715230455
C   C35       1.0  0.33978  0.87730  0.57245  1.0000 0.2219239412
C   C36       1.0  0.29700  0.87920  0.55930  1.0000 -0.1904850917
C   C37       1.0  0.27666  0.89710  0.52276  1.0000 -0.0864590878
C   C38       1.0  0.40029  0.84910  0.62786  1.0000 0.4521642613
C   C39       1.0  0.41250  0.83080  0.66841  1.0000 -0.0199868883
C   C40       1.0  0.44605  0.79920  0.68141  1.0000 -0.1037555622
C   C41       1.0  0.45883  0.78096  0.71934  1.0000 -0.0199868883
C   C42       1.0  0.43793  0.79425  0.74479  1.0000 -0.1550917702
C   C43       1.0  0.40326  0.82459  0.73192  1.0000 -0.0036261672
C   C44       1.0  0.39082  0.84304  0.69480  1.0000 -0.1904850917
C   C45       1.0  0.49330  0.74460  0.73080  1.0000 0.4588868654
C   C46       1.0  0.54688  0.71281  0.78862  1.0000 0.2219239412
C   C47       1.0  0.53950  0.66520  0.77966  1.0000 -0.1904850917
C   C48       1.0  0.56644  0.63070  0.80233  1.0000 -0.0807593517
C   C49       1.0  0.60199  0.64457  0.83281  1.0000 -0.0503554734
C   C50       1.0  0.60909  0.69198  0.84166  1.0000 -0.072313636
C   C51       1.0  0.58114  0.72660  0.82005  1.0000 -0.1986819179
C   C52       1.0  0.63070  0.60647  0.85537  1.0000 0.5894201215
C   C53       1.0  0.37949  0.83390  0.75897  1.0000 0.4588868654
C   C54       1.0  0.33420  0.89150  0.77706  1.0000 0.2219239412
C   C55       1.0  0.31719  0.86100  0.79678  1.0000 -0.1904850917
C   C56       1.0  0.29211  0.87970  0.81745  1.0000 -0.0807593517
C   C57       1.0  0.28503  0.92701  0.81862  1.0000 -0.0503554734
C   C58       1.0  0.30144  0.95800  0.79759  1.0000 -0.0807593517
C   C59       1.0  0.32630  0.93980  0.77660  1.0000 -0.2168954343
C   C60       1.0  0.25846  0.94606  0.84063  1.0000 0.5894201215
C   C61       1.0  0.29687  0.95919  0.32915  1.0000 0.5988985671
C   C62       1.0  0.32471  0.93670  0.30925  1.0000 -0.0503554734
C   C63       1.0  0.30730  0.91960  0.27138  1.0000 -0.0807593517
C   C64       1.0  0.33158  0.89700  0.25270  1.0000 -0.2116749872
C   C65       1.0  0.37414  0.89340  0.27139  1.0000 0.2310678532
C   C66       1.0  0.39131  0.91040  0.30933  1.0000 -0.1802889448
C   C67       1.0  0.36537  0.93140  0.32784  1.0000 -0.0807593517
C   C68       1.0  0.43849  0.86490  0.25966  1.0000 0.4521642613
C   C69       1.0  0.45161  0.84190  0.22872  1.0000 -0.0100514683
C   C70       1.0  0.43076  0.84940  0.18916  1.0000 -0.1802889448
C   C71       1.0  0.44368  0.82700  0.16138  1.0000 -0.0199868883
C   C72       1.0  0.47838  0.79630  0.17339  1.0000 -0.1069558562
C   C73       1.0  0.49949  0.78940  0.21223  1.0000 -0.0199868883
C   C74       1.0  0.48741  0.81350  0.24092  1.0000 -0.1802889448
C   C75       1.0  0.42040  0.83220  0.11846  1.0000 0.4588868654
C   C76       1.0  0.37158  0.88680  0.07165  1.0000 0.2310678532
C   C77       1.0  0.36109  0.93530  0.06618  1.0000 -0.2168954343
C   C78       1.0  0.33019  0.95000  0.03226  1.0000 -0.0625956654
C   C79       1.0  0.30749  0.91690  0.00402  1.0000 -0.0807593517
C   C80       1.0  0.31860  0.86980  0.00966  1.0000 -0.072313636
C   C81       1.0  0.35130  0.85500  0.04339  1.0000 -0.1904850917
C   C82       1.0  0.27270  0.93350  0.97063  1.0000 0.582340208
C   C83       1.0  0.53513  0.75480  0.22361  1.0000 0.4588868654
C   C84       1.0  0.57217  0.69900  0.27575  1.0000 0.2554204239
C   C85       1.0  0.60516  0.68710  0.26340  1.0000 -0.1802889448
C   C86       1.0  0.63478  0.65350  0.28409  1.0000 -0.0807593517
C   C87       1.0  0.63135  0.63103  0.31643  1.0000 -0.0503554734
C   C88       1.0  0.59733  0.64210  0.32883  1.0000 -0.0625956654
C   C89       1.0  0.56773  0.67370  0.30841  1.0000 -0.1986819179
C   C90       1.0  0.66224  0.59410  0.33770  1.0000 0.5894201215
C   C91       1.0  0.11859  0.04890  0.92630  1.0000 0.5746214165
C   C92       1.0  0.09407  0.07410  0.94869  1.0000 -0.0503554734
C   C93       1.0  0.11409  0.09920  0.98160  1.0000 -0.0864590878
C   C94       1.0  0.09224  0.11930  0.00220  1.0000 -0.1986819179
C   C95       1.0  0.05092  0.11851  0.99149  1.0000 0.2100194989
C   C96       1.0  0.03008  0.09430  0.95787  1.0000 -0.1802889448
C   C97       1.0  0.05177  0.07160  0.93655  1.0000 -0.0807593517
C   C98       1.0  0.99110  0.14974  0.00799  1.0000 0.4521642613
C   C99       1.0  0.98114  0.17499  0.04088  1.0000 0.0031620405
C   C100      1.0  0.00412  0.16716  0.08006  1.0000 -0.1904850917
C   C101      1.0  0.99476  0.19157  0.10916  1.0000 -0.0100514683
C   C102      1.0  0.96225  0.22441  0.09889  1.0000 -0.1285578653
C   C103      1.0  0.93942  0.23223  0.06013  1.0000 -0.0100514683
C   C104      1.0  0.94871  0.20676  0.03177  1.0000 -0.142811157
C   C105      1.0  0.02054  0.18540  0.15161  1.0000 0.4676852151
C   C106      1.0  0.06130  0.12360  0.19651  1.0000 0.2310678532
C   C107      1.0  0.07650  0.07460  0.19460  1.0000 -0.2116749872
C   C108      1.0  0.10870  0.05900  0.22650  1.0000 -0.0807593517
C   C109      1.0  0.12210  0.08490  0.26050  1.0000 -0.0199868883
C   C110      1.0  0.10720  0.13050  0.26213  1.0000 -0.072313636
C   C111      1.0  0.07750  0.14960  0.23017  1.0000 -0.1904850917
C   C112      1.0  0.15830  0.06310  0.29530  1.0000 0.582340208
C   C113      1.0  0.90422  0.26740  0.05075  1.0000 0.4521642613
C   C114      1.0  0.86392  0.32050  0.99597  1.0000 0.2219239412
C   C115      1.0  0.86260  0.33450  0.95834  1.0000 -0.1986819179
C   C116      1.0  0.83080  0.36400  0.93644  1.0000 -0.072313636
C   C117      1.0  0.80050  0.37930  0.95125  1.0000 -0.0625956654
C   C118      1.0  0.80270  0.36520  0.98874  1.0000 -0.0807593517
C   C119      1.0  0.83511  0.33650  0.01164  1.0000 -0.1904850917
C   C120      1.0  0.76583  0.41090  0.92810  1.0000 0.5894201215
C   C121      1.0  0.79860  0.40820  0.42780  1.0000 0.5894201215
C   C122      1.0  0.83020  0.37260  0.45270  1.0000 -0.0384663372
C   C123      1.0  0.87240  0.38010  0.45870  1.0000 -0.072313636
C   C124      1.0  0.90140  0.34740  0.48140  1.0000 -0.2168954343
C   C125      1.0  0.88957  0.30930  0.49800  1.0000 0.2219239412
C   C126      1.0  0.84826  0.30400  0.49280  1.0000 -0.1904850917
C   C127      1.0  0.81900  0.33700  0.47060  1.0000 -0.0807593517
C   C128      1.0  0.91655  0.23700  0.53779  1.0000 0.4521642613
C   C129      1.0  0.95412  0.20592  0.54883  1.0000 -0.0286288732
C   C130      1.0  0.97576  0.19608  0.52327  1.0000 -0.142811157
C   C131      1.0  0.00967  0.16618  0.53354  1.0000 -0.0100514683
C   C132      1.0  0.02339  0.14581  0.57129  1.0000 -0.1986819179
C   C133      1.0  0.00258  0.15563  0.59745  1.0000 -0.0100514683
C   C134      1.0  0.96725  0.18480  0.58589  1.0000 -0.1245664807
C   C135      1.0  0.03075  0.15744  0.50407  1.0000 0.4521642613
C   C136      1.0  0.07598  0.09921  0.48616  1.0000 0.2310678532
C   C137      1.0  0.09660  0.13139  0.46876  1.0000 -0.1715230455
C   C138      1.0  0.12162  0.11405  0.44845  1.0000 -0.0807593517
C   C139      1.0  0.12923  0.06674  0.44687  1.0000 -0.0503554734
C   C140      1.0  0.10952  0.03442  0.46532  1.0000 -0.072313636
C   C141      1.0  0.08316  0.05112  0.48414  1.0000 -0.2168954343
C   C142      1.0  0.15747  0.04870  0.42525  1.0000 0.5894201215
C   C143      1.0  0.01503  0.13304  0.63684  1.0000 0.4521642613
C   C144      1.0  0.07663  0.11382  0.69381  1.0000 0.2310678532
C   C145      1.0  0.11862  0.12380  0.71103  1.0000 -0.2116749872
C   C146      1.0  0.14061  0.10590  0.74814  1.0000 -0.0625956654
C   C147      1.0  0.12141  0.07831  0.76833  1.0000 -0.0807593517
C   C148      1.0  0.07990  0.06690  0.74996  1.0000 -0.072313636
C   C149      1.0  0.05821  0.08380  0.71293  1.0000 -0.1986819179
C   C150      1.0  0.14401  0.05882  0.80696  1.0000 0.5894201215
C   C151      1.0  0.77478  0.56394  0.45922  1.0000 0.5894201215
C   C152      1.0  0.79756  0.58589  0.49930  1.0000 -0.0384663372
C   C153      1.0  0.83956  0.58790  0.51233  1.0000 -0.0864590878
C   C154      1.0  0.86038  0.60720  0.54796  1.0000 -0.1715230455
C   C155      1.0  0.83978  0.62270  0.57245  1.0000 0.2219239412
C   C156      1.0  0.79700  0.62080  0.55930  1.0000 -0.1986819179
C   C157      1.0  0.77666  0.60290  0.52276  1.0000 -0.0864590878
C   C158      1.0  0.90029  0.65090  0.62786  1.0000 0.4521642613
C   C159      1.0  0.91250  0.66920  0.66841  1.0000 -0.0199868883
C   C160      1.0  0.94605  0.70080  0.68141  1.0000 -0.1037555622
C   C161      1.0  0.95883  0.71904  0.71934  1.0000 -0.0199868883
C   C162      1.0  0.93793  0.70575  0.74479  1.0000 -0.1515201779
C   C163      1.0  0.90326  0.67541  0.73192  1.0000 -0.0036261672
C   C164      1.0  0.89082  0.65696  0.69480  1.0000 -0.1904850917
C   C165      1.0  0.99330  0.75540  0.73080  1.0000 0.4588868654
C   C166      1.0  0.04688  0.78719  0.78862  1.0000 0.2219239412
C   C167      1.0  0.03950  0.83480  0.77966  1.0000 -0.1904850917
C   C168      1.0  0.06644  0.86930  0.80233  1.0000 -0.0807593517
C   C169      1.0  0.10199  0.85543  0.83281  1.0000 -0.0503554734
C   C170      1.0  0.10909  0.80802  0.84166  1.0000 -0.072313636
C   C171      1.0  0.08114  0.77340  0.82005  1.0000 -0.1986819179
C   C172      1.0  0.13070  0.89353  0.85537  1.0000 0.5894201215
C   C173      1.0  0.87949  0.66610  0.75897  1.0000 0.4588868654
C   C174      1.0  0.83420  0.60850  0.77706  1.0000 0.2219239412
C   C175      1.0  0.81719  0.63900  0.79678  1.0000 -0.1904850917
C   C176      1.0  0.79211  0.62030  0.81745  1.0000 -0.0807593517
C   C177      1.0  0.78503  0.57299  0.81862  1.0000 -0.0503554734
C   C178      1.0  0.80144  0.54200  0.79759  1.0000 -0.0807593517
C   C179      1.0  0.82630  0.56020  0.77660  1.0000 -0.2168954343
C   C180      1.0  0.75846  0.55394  0.84063  1.0000 0.5894201215
C   C181      1.0  0.79687  0.54081  0.32915  1.0000 0.5988985671
C   C182      1.0  0.82471  0.56330  0.30925  1.0000 -0.0503554734
C   C183      1.0  0.80730  0.58040  0.27138  1.0000 -0.0807593517
C   C184      1.0  0.83158  0.60300  0.25270  1.0000 -0.1986819179
C   C185      1.0  0.87414  0.60660  0.27139  1.0000 0.2310678532
C   C186      1.0  0.89131  0.58960  0.30933  1.0000 -0.1802889448
C   C187      1.0  0.86537  0.56860  0.32784  1.0000 -0.0864590878
C   C188      1.0  0.93849  0.63510  0.25966  1.0000 0.4521642613
C   C189      1.0  0.95161  0.65810  0.22872  1.0000 -0.0100514683
C   C190      1.0  0.93076  0.65060  0.18916  1.0000 -0.1802889448
C   C191      1.0  0.94368  0.67300  0.16138  1.0000 -0.0199868883
C   C192      1.0  0.97838  0.70370  0.17339  1.0000 -0.1069558562
C   C193      1.0  0.99949  0.71060  0.21223  1.0000 -0.0199868883
C   C194      1.0  0.98741  0.68650  0.24092  1.0000 -0.1802889448
C   C195      1.0  0.92040  0.66780  0.11846  1.0000 0.4588868654
C   C196      1.0  0.87158  0.61320  0.07165  1.0000 0.2310678532
C   C197      1.0  0.86109  0.56470  0.06618  1.0000 -0.2168954343
C   C198      1.0  0.83019  0.55000  0.03226  1.0000 -0.0625956654
C   C199      1.0  0.80749  0.58310  0.00402  1.0000 -0.0864590878
C   C200      1.0  0.81860  0.63020  0.00966  1.0000 -0.072313636
C   C201      1.0  0.85130  0.64500  0.04339  1.0000 -0.1904850917
C   C202      1.0  0.77270  0.56650  0.97063  1.0000 0.582340208
C   C203      1.0  0.03513  0.74520  0.22361  1.0000 0.4588868654
C   C204      1.0  0.07217  0.80100  0.27575  1.0000 0.2554204239
C   C205      1.0  0.10516  0.81290  0.26340  1.0000 -0.1904850917
C   C206      1.0  0.13478  0.84650  0.28409  1.0000 -0.0807593517
C   C207      1.0  0.13135  0.86897  0.31643  1.0000 -0.0503554734
C   C208      1.0  0.09733  0.85790  0.32883  1.0000 -0.0625956654
C   C209      1.0  0.06773  0.82630  0.30841  1.0000 -0.1986819179
C   C210      1.0  0.16224  0.90590  0.33770  1.0000 0.5894201215
C   C211      1.0  0.61859  0.45110  0.92630  1.0000 0.5746214165
C   C212      1.0  0.59407  0.42590  0.94869  1.0000 -0.0503554734
C   C213      1.0  0.61409  0.40080  0.98160  1.0000 -0.0864590878
C   C214      1.0  0.59224  0.38070  0.00220  1.0000 -0.1904850917
C   C215      1.0  0.55092  0.38149  0.99149  1.0000 0.2100194989
C   C216      1.0  0.53008  0.40570  0.95787  1.0000 -0.1802889448
C   C217      1.0  0.55177  0.42840  0.93655  1.0000 -0.0807593517
C   C218      1.0  0.49110  0.35026  0.00799  1.0000 0.4521642613
C   C219      1.0  0.48114  0.32501  0.04088  1.0000 0.0031620405
C   C220      1.0  0.50412  0.33284  0.08006  1.0000 -0.1904850917
C   C221      1.0  0.49476  0.30843  0.10916  1.0000 -0.0100514683
C   C222      1.0  0.46225  0.27559  0.09889  1.0000 -0.1285578653
C   C223      1.0  0.43942  0.26777  0.06013  1.0000 -0.0100514683
C   C224      1.0  0.44871  0.29324  0.03177  1.0000 -0.1515201779
C   C225      1.0  0.52054  0.31460  0.15161  1.0000 0.4676852151
C   C226      1.0  0.56130  0.37640  0.19651  1.0000 0.2310678532
C   C227      1.0  0.57650  0.42540  0.19460  1.0000 -0.2116749872
C   C228      1.0  0.60870  0.44100  0.22650  1.0000 -0.0807593517
C   C229      1.0  0.62210  0.41510  0.26050  1.0000 -0.0199868883
C   C230      1.0  0.60720  0.36950  0.26213  1.0000 -0.072313636
C   C231      1.0  0.57750  0.35040  0.23017  1.0000 -0.1904850917
C   C232      1.0  0.65830  0.43690  0.29530  1.0000 0.582340208
C   C233      1.0  0.40422  0.23260  0.05075  1.0000 0.4521642613
C   C234      1.0  0.36392  0.17950  0.99597  1.0000 0.2219239412
C   C235      1.0  0.36260  0.16550  0.95834  1.0000 -0.1986819179
C   C236      1.0  0.33080  0.13600  0.93644  1.0000 -0.0807593517
C   C237      1.0  0.30050  0.12070  0.95125  1.0000 -0.0625956654
C   C238      1.0  0.30270  0.13480  0.98874  1.0000 -0.0807593517
C   C239      1.0  0.33511  0.16350  0.01164  1.0000 -0.1986819179
C   C240      1.0  0.26583  0.08910  0.92810  1.0000 0.582340208
C   C241      1.0  0.20140  0.59180  0.57220  1.0000 0.5894201215
C   C242      1.0  0.16980  0.62740  0.54730  1.0000 -0.0384663372
C   C243      1.0  0.12760  0.61990  0.54130  1.0000 -0.0807593517
C   C244      1.0  0.09860  0.65260  0.51860  1.0000 -0.2168954343
C   C245      1.0  0.11043  0.69070  0.50200  1.0000 0.2219239412
C   C246      1.0  0.15174  0.69600  0.50720  1.0000 -0.1802889448
C   C247      1.0  0.18100  0.66300  0.52940  1.0000 -0.0807593517
C   C248      1.0  0.08345  0.76300  0.46221  1.0000 0.4521642613
C   C249      1.0  0.04588  0.79408  0.45117  1.0000 -0.0286288732
C   C250      1.0  0.02424  0.80392  0.47673  1.0000 -0.142811157
C   C251      1.0  0.99033  0.83382  0.46646  1.0000 -0.0036261672
C   C252      1.0  0.97661  0.85419  0.42871  1.0000 -0.1986819179
C   C253      1.0  0.99742  0.84437  0.40255  1.0000 -0.0100514683
C   C254      1.0  0.03275  0.81520  0.41411  1.0000 -0.1285578653
C   C255      1.0  0.96925  0.84256  0.49593  1.0000 0.4521642613
C   C256      1.0  0.92402  0.90079  0.51384  1.0000 0.2310678532
C   C257      1.0  0.90340  0.86861  0.53124  1.0000 -0.1715230455
C   C258      1.0  0.87838  0.88595  0.55155  1.0000 -0.0807593517
C   C259      1.0  0.87077  0.93326  0.55313  1.0000 -0.0503554734
C   C260      1.0  0.89048  0.96558  0.53468  1.0000 -0.072313636
C   C261      1.0  0.91684  0.94888  0.51586  1.0000 -0.2116749872
C   C262      1.0  0.84253  0.95130  0.57475  1.0000 0.5894201215
C   C263      1.0  0.98497  0.86696  0.36316  1.0000 0.4521642613
C   C264      1.0  0.92337  0.88618  0.30619  1.0000 0.2310678532
C   C265      1.0  0.88138  0.87620  0.28897  1.0000 -0.2116749872
C   C266      1.0  0.85939  0.89410  0.25186  1.0000 -0.0625956654
C   C267      1.0  0.87859  0.92169  0.23167  1.0000 -0.0807593517
C   C268      1.0  0.92010  0.93310  0.25004  1.0000 -0.072313636
C   C269      1.0  0.94179  0.91620  0.28707  1.0000 -0.1986819179
C   C270      1.0  0.85599  0.94118  0.19304  1.0000 0.5894201215
C   C271      1.0  0.22522  0.43606  0.54078  1.0000 0.5894201215
C   C272      1.0  0.20244  0.41411  0.50070  1.0000 -0.0384663372
C   C273      1.0  0.16044  0.41210  0.48767  1.0000 -0.0807593517
C   C274      1.0  0.13962  0.39280  0.45204  1.0000 -0.1715230455
C   C275      1.0  0.16022  0.37730  0.42755  1.0000 0.2219239412
C   C276      1.0  0.20300  0.37920  0.44070  1.0000 -0.1904850917
C   C277      1.0  0.22334  0.39710  0.47724  1.0000 -0.0864590878
C   C278      1.0  0.09971  0.34910  0.37214  1.0000 0.4521642613
C   C279      1.0  0.08750  0.33080  0.33159  1.0000 -0.0199868883
C   C280      1.0  0.05395  0.29920  0.31859  1.0000 -0.1037555622
C   C281      1.0  0.04117  0.28096  0.28066  1.0000 -0.0199868883
C   C282      1.0  0.06207  0.29425  0.25521  1.0000 -0.1515201779
C   C283      1.0  0.09674  0.32459  0.26808  1.0000 -0.0036261672
C   C284      1.0  0.10918  0.34304  0.30520  1.0000 -0.1904850917
C   C285      1.0  0.00670  0.24460  0.26920  1.0000 0.4588868654
C   C286      1.0  0.95312  0.21281  0.21138  1.0000 0.2219239412
C   C287      1.0  0.96050  0.16520  0.22034  1.0000 -0.1904850917
C   C288      1.0  0.93356  0.13070  0.19767  1.0000 -0.0807593517
C   C289      1.0  0.89801  0.14457  0.16719  1.0000 -0.0503554734
C   C290      1.0  0.89091  0.19198  0.15834  1.0000 -0.072313636
C   C291      1.0  0.91886  0.22660  0.17995  1.0000 -0.1986819179
C   C292      1.0  0.86930  0.10647  0.14463  1.0000 0.5894201215
C   C293      1.0  0.12051  0.33390  0.24103  1.0000 0.4588868654
C   C294      1.0  0.16580  0.39150  0.22294  1.0000 0.2219239412
C   C295      1.0  0.18281  0.36100  0.20322  1.0000 -0.1904850917
C   C296      1.0  0.20789  0.37970  0.18255  1.0000 -0.0807593517
C   C297      1.0  0.21497  0.42701  0.18138  1.0000 -0.0503554734
C   C298      1.0  0.19856  0.45800  0.20241  1.0000 -0.0807593517
C   C299      1.0  0.17370  0.43980  0.22340  1.0000 -0.2168954343
C   C300      1.0  0.24154  0.44606  0.15937  1.0000 0.5894201215
C   C301      1.0  0.20313  0.45919  0.67085  1.0000 0.5988985671
C   C302      1.0  0.17529  0.43670  0.69075  1.0000 -0.0503554734
C   C303      1.0  0.19270  0.41960  0.72862  1.0000 -0.0807593517
C   C304      1.0  0.16842  0.39700  0.74730  1.0000 -0.1986819179
C   C305      1.0  0.12586  0.39340  0.72861  1.0000 0.2310678532
C   C306      1.0  0.10869  0.41040  0.69067  1.0000 -0.1802889448
C   C307      1.0  0.13463  0.43140  0.67216  1.0000 -0.0807593517
C   C308      1.0  0.06151  0.36490  0.74034  1.0000 0.4521642613
C   C309      1.0  0.04839  0.34190  0.77128  1.0000 -0.0036261672
C   C310      1.0  0.06924  0.34940  0.81084  1.0000 -0.1802889448
C   C311      1.0  0.05632  0.32700  0.83862  1.0000 -0.0199868883
C   C312      1.0  0.02162  0.29630  0.82661  1.0000 -0.1069558562
C   C313      1.0  0.00051  0.28940  0.78777  1.0000 -0.0199868883
C   C314      1.0  0.01259  0.31350  0.75908  1.0000 -0.1715230455
C   C315      1.0  0.07960  0.33220  0.88154  1.0000 0.4588868654
C   C316      1.0  0.12842  0.38680  0.92835  1.0000 0.2310678532
C   C317      1.0  0.13891  0.43530  0.93382  1.0000 -0.2168954343
C   C318      1.0  0.16981  0.45000  0.96774  1.0000 -0.0625956654
C   C319      1.0  0.19251  0.41690  0.99598  1.0000 -0.0864590878
C   C320      1.0  0.18140  0.36980  0.99034  1.0000 -0.0625956654
C   C321      1.0  0.14870  0.35500  0.95661  1.0000 -0.1904850917
C   C322      1.0  0.22730  0.43350  0.02937  1.0000 0.582340208
C   C323      1.0  0.96487  0.25480  0.77639  1.0000 0.4588868654
C   C324      1.0  0.92783  0.19900  0.72425  1.0000 0.2554204239
C   C325      1.0  0.89484  0.18710  0.73660  1.0000 -0.1904850917
C   C326      1.0  0.86522  0.15350  0.71591  1.0000 -0.0807593517
C   C327      1.0  0.86865  0.13103  0.68357  1.0000 -0.0503554734
C   C328      1.0  0.90267  0.14210  0.67117  1.0000 -0.0625956654
C   C329      1.0  0.93227  0.17370  0.69159  1.0000 -0.1986819179
C   C330      1.0  0.83776  0.09410  0.66230  1.0000 0.5894201215
C   C331      1.0  0.38141  0.54890  0.07370  1.0000 0.5746214165
C   C332      1.0  0.40593  0.57410  0.05131  1.0000 -0.0503554734
C   C333      1.0  0.38591  0.59920  0.01840  1.0000 -0.0864590878
C   C334      1.0  0.40776  0.61930  0.99780  1.0000 -0.1986819179
C   C335      1.0  0.44908  0.61851  0.00851  1.0000 0.2100194989
C   C336      1.0  0.46992  0.59430  0.04213  1.0000 -0.1802889448
C   C337      1.0  0.44823  0.57160  0.06345  1.0000 -0.0807593517
C   C338      1.0  0.50890  0.64974  0.99201  1.0000 0.4521642613
C   C339      1.0  0.51886  0.67499  0.95912  1.0000 0.0059074795
C   C340      1.0  0.49588  0.66716  0.91994  1.0000 -0.1904850917
C   C341      1.0  0.50524  0.69157  0.89084  1.0000 -0.0100514683
C   C342      1.0  0.53775  0.72441  0.90111  1.0000 -0.1285578653
C   C343      1.0  0.56058  0.73223  0.93987  1.0000 -0.0100514683
C   C344      1.0  0.55129  0.70676  0.96823  1.0000 -0.142811157
C   C345      1.0  0.47946  0.68540  0.84839  1.0000 0.4676852151
C   C346      1.0  0.43870  0.62360  0.80349  1.0000 0.2310678532
C   C347      1.0  0.42350  0.57460  0.80540  1.0000 -0.2116749872
C   C348      1.0  0.39130  0.55900  0.77350  1.0000 -0.0807593517
C   C349      1.0  0.37790  0.58490  0.73950  1.0000 -0.0199868883
C   C350      1.0  0.39280  0.63050  0.73787  1.0000 -0.072313636
C   C351      1.0  0.42250  0.64960  0.76983  1.0000 -0.1904850917
C   C352      1.0  0.34170  0.56310  0.70470  1.0000 0.582340208
C   C353      1.0  0.59578  0.76740  0.94925  1.0000 0.4521642613
C   C354      1.0  0.63608  0.82050  0.00403  1.0000 0.2219239412
C   C355      1.0  0.63740  0.83450  0.04166  1.0000 -0.1986819179
C   C356      1.0  0.66920  0.86400  0.06356  1.0000 -0.0807593517
C   C357      1.0  0.69950  0.87930  0.04875  1.0000 -0.0625956654
C   C358      1.0  0.69730  0.86520  0.01126  1.0000 -0.0807593517
C   C359      1.0  0.66489  0.83650  0.98836  1.0000 -0.1986819179
C   C360      1.0  0.73417  0.91090  0.07190  1.0000 0.582340208
C   C361      1.0  0.70140  0.90820  0.57220  1.0000 0.5894201215
C   C362      1.0  0.66980  0.87260  0.54730  1.0000 -0.0286288732
C   C363      1.0  0.62760  0.88010  0.54130  1.0000 -0.0807593517
C   C364      1.0  0.59860  0.84740  0.51860  1.0000 -0.2116749872
C   C365      1.0  0.61043  0.80930  0.50200  1.0000 0.2219239412
C   C366      1.0  0.65174  0.80400  0.50720  1.0000 -0.1904850917
C   C367      1.0  0.68100  0.83700  0.52940  1.0000 -0.0807593517
C   C368      1.0  0.58345  0.73700  0.46221  1.0000 0.4521642613
C   C369      1.0  0.54588  0.70592  0.45117  1.0000 -0.0286288732
C   C370      1.0  0.52424  0.69608  0.47673  1.0000 -0.142811157
C   C371      1.0  0.49033  0.66618  0.46646  1.0000 -0.0100514683
C   C372      1.0  0.47661  0.64581  0.42871  1.0000 -0.1986819179
C   C373      1.0  0.49742  0.65563  0.40255  1.0000 -0.0100514683
C   C374      1.0  0.53275  0.68480  0.41411  1.0000 -0.1285578653
C   C375      1.0  0.46925  0.65744  0.49593  1.0000 0.4521642613
C   C376      1.0  0.42402  0.59921  0.51384  1.0000 0.2310678532
C   C377      1.0  0.40340  0.63139  0.53124  1.0000 -0.1715230455
C   C378      1.0  0.37838  0.61405  0.55155  1.0000 -0.0807593517
C   C379      1.0  0.37077  0.56674  0.55313  1.0000 -0.0503554734
C   C380      1.0  0.39048  0.53442  0.53468  1.0000 -0.072313636
C   C381      1.0  0.41684  0.55112  0.51586  1.0000 -0.2168954343
C   C382      1.0  0.34253  0.54870  0.57475  1.0000 0.5894201215
C   C383      1.0  0.48497  0.63304  0.36316  1.0000 0.4521642613
C   C384      1.0  0.42337  0.61382  0.30619  1.0000 0.2310678532
C   C385      1.0  0.38138  0.62380  0.28897  1.0000 -0.2116749872
C   C386      1.0  0.35939  0.60590  0.25186  1.0000 -0.0625956654
C   C387      1.0  0.37859  0.57831  0.23167  1.0000 -0.0807593517
C   C388      1.0  0.42010  0.56690  0.25004  1.0000 -0.072313636
C   C389      1.0  0.44179  0.58380  0.28707  1.0000 -0.1986819179
C   C390      1.0  0.35599  0.55882  0.19304  1.0000 0.582340208
C   C391      1.0  0.72522  0.06394  0.54078  1.0000 0.5894201215
C   C392      1.0  0.70244  0.08589  0.50070  1.0000 -0.0384663372
C   C393      1.0  0.66044  0.08790  0.48767  1.0000 -0.0807593517
C   C394      1.0  0.63962  0.10720  0.45204  1.0000 -0.1715230455
C   C395      1.0  0.66022  0.12270  0.42755  1.0000 0.2219239412
C   C396      1.0  0.70300  0.12080  0.44070  1.0000 -0.1986819179
C   C397      1.0  0.72334  0.10290  0.47724  1.0000 -0.0864590878
C   C398      1.0  0.59971  0.15090  0.37214  1.0000 0.4521642613
C   C399      1.0  0.58750  0.16920  0.33159  1.0000 -0.0199868883
C   C400      1.0  0.55395  0.20080  0.31859  1.0000 -0.1037555622
C   C401      1.0  0.54117  0.21904  0.28066  1.0000 -0.0199868883
C   C402      1.0  0.56207  0.20575  0.25521  1.0000 -0.1515201779
C   C403      1.0  0.59674  0.17541  0.26808  1.0000 -0.0036261672
C   C404      1.0  0.60918  0.15696  0.30520  1.0000 -0.1904850917
C   C405      1.0  0.50670  0.25540  0.26920  1.0000 0.4588868654
C   C406      1.0  0.45312  0.28719  0.21138  1.0000 0.2219239412
C   C407      1.0  0.46050  0.33480  0.22034  1.0000 -0.1904850917
C   C408      1.0  0.43356  0.36930  0.19767  1.0000 -0.0807593517
C   C409      1.0  0.39801  0.35543  0.16719  1.0000 -0.0503554734
C   C410      1.0  0.39091  0.30802  0.15834  1.0000 -0.072313636
C   C411      1.0  0.41886  0.27340  0.17995  1.0000 -0.1986819179
C   C412      1.0  0.36930  0.39353  0.14463  1.0000 0.5894201215
C   C413      1.0  0.62051  0.16610  0.24103  1.0000 0.4588868654
C   C414      1.0  0.66580  0.10850  0.22294  1.0000 0.2219239412
C   C415      1.0  0.68281  0.13900  0.20322  1.0000 -0.1904850917
C   C416      1.0  0.70789  0.12030  0.18255  1.0000 -0.0807593517
C   C417      1.0  0.71497  0.07299  0.18138  1.0000 -0.0503554734
C   C418      1.0  0.69856  0.04200  0.20241  1.0000 -0.0807593517
C   C419      1.0  0.67370  0.06020  0.22340  1.0000 -0.2168954343
C   C420      1.0  0.74154  0.05394  0.15937  1.0000 0.5894201215
C   C421      1.0  0.70313  0.04081  0.67085  1.0000 0.5988985671
C   C422      1.0  0.67529  0.06330  0.69075  1.0000 -0.0503554734
C   C423      1.0  0.69270  0.08040  0.72862  1.0000 -0.0807593517
C   C424      1.0  0.66842  0.10300  0.74730  1.0000 -0.1986819179
C   C425      1.0  0.62586  0.10660  0.72861  1.0000 0.2310678532
C   C426      1.0  0.60869  0.08960  0.69067  1.0000 -0.1802889448
C   C427      1.0  0.63463  0.06860  0.67216  1.0000 -0.0807593517
C   C428      1.0  0.56151  0.13510  0.74034  1.0000 0.4521642613
C   C429      1.0  0.54839  0.15810  0.77128  1.0000 -0.0100514683
C   C430      1.0  0.56924  0.15060  0.81084  1.0000 -0.1802889448
C   C431      1.0  0.55632  0.17300  0.83862  1.0000 -0.0199868883
C   C432      1.0  0.52162  0.20370  0.82661  1.0000 -0.1037555622
C   C433      1.0  0.50051  0.21060  0.78777  1.0000 -0.0199868883
C   C434      1.0  0.51259  0.18650  0.75908  1.0000 -0.1802889448
C   C435      1.0  0.57960  0.16780  0.88154  1.0000 0.4588868654
C   C436      1.0  0.62842  0.11320  0.92835  1.0000 0.2310678532
C   C437      1.0  0.63891  0.06470  0.93382  1.0000 -0.2168954343
C   C438      1.0  0.66981  0.05000  0.96774  1.0000 -0.0625956654
C   C439      1.0  0.69251  0.08310  0.99598  1.0000 -0.0864590878
C   C440      1.0  0.68140  0.13020  0.99034  1.0000 -0.0625956654
C   C441      1.0  0.64870  0.14500  0.95661  1.0000 -0.1904850917
C   C442      1.0  0.72730  0.06650  0.02937  1.0000 0.582340208
C   C443      1.0  0.46487  0.24520  0.77639  1.0000 0.4588868654
C   C444      1.0  0.42783  0.30100  0.72425  1.0000 0.2554204239
C   C445      1.0  0.39484  0.31290  0.73660  1.0000 -0.1904850917
C   C446      1.0  0.36522  0.34650  0.71591  1.0000 -0.0807593517
C   C447      1.0  0.36865  0.36897  0.68357  1.0000 -0.0503554734
C   C448      1.0  0.40267  0.35790  0.67117  1.0000 -0.0625956654
C   C449      1.0  0.43227  0.32630  0.69159  1.0000 -0.1986819179
C   C450      1.0  0.33776  0.40590  0.66230  1.0000 0.5894201215
C   C451      1.0  0.88141  0.95110  0.07370  1.0000 0.5746214165
C   C452      1.0  0.90593  0.92590  0.05131  1.0000 -0.0503554734
C   C453      1.0  0.88591  0.90080  0.01840  1.0000 -0.0807593517
C   C454      1.0  0.90776  0.88070  0.99780  1.0000 -0.1986819179
C   C455      1.0  0.94908  0.88149  0.00851  1.0000 0.2100194989
C   C456      1.0  0.96992  0.90570  0.04213  1.0000 -0.1802889448
C   C457      1.0  0.94823  0.92840  0.06345  1.0000 -0.0807593517
C   C458      1.0  0.00890  0.85026  0.99201  1.0000 0.4521642613
C   C459      1.0  0.01886  0.82501  0.95912  1.0000 0.0031620405
C   C460      1.0  0.99588  0.83284  0.91994  1.0000 -0.1904850917
C   C461      1.0  0.00524  0.80843  0.89084  1.0000 -0.0100514683
C   C462      1.0  0.03775  0.77559  0.90111  1.0000 -0.1285578653
C   C463      1.0  0.06058  0.76777  0.93987  1.0000 -0.0100514683
C   C464      1.0  0.05129  0.79324  0.96823  1.0000 -0.142811157
C   C465      1.0  0.97946  0.81460  0.84839  1.0000 0.4676852151
C   C466      1.0  0.93870  0.87640  0.80349  1.0000 0.2310678532
C   C467      1.0  0.92350  0.92540  0.80540  1.0000 -0.2116749872
C   C468      1.0  0.89130  0.94100  0.77350  1.0000 -0.0807593517
C   C469      1.0  0.87790  0.91510  0.73950  1.0000 -0.0199868883
C   C470      1.0  0.89280  0.86950  0.73787  1.0000 -0.072313636
C   C471      1.0  0.92250  0.85040  0.76983  1.0000 -0.1904850917
C   C472      1.0  0.84170  0.93690  0.70470  1.0000 0.582340208
C   C473      1.0  0.09578  0.73260  0.94925  1.0000 0.4521642613
C   C474      1.0  0.13608  0.67950  0.00403  1.0000 0.2219239412
C   C475      1.0  0.13740  0.66550  0.04166  1.0000 -0.1986819179
C   C476      1.0  0.16920  0.63600  0.06356  1.0000 -0.0807593517
C   C477      1.0  0.19950  0.62070  0.04875  1.0000 -0.0625956654
C   C478      1.0  0.19730  0.63480  0.01126  1.0000 -0.0807593517
C   C479      1.0  0.16489  0.66350  0.98836  1.0000 -0.1904850917
C   C480      1.0  0.23417  0.58910  0.07190  1.0000 0.582340208
N   N1        1.0  0.41996  0.22442  0.51780  1.0000 -0.3686133883
N   N2        1.0  0.55060  0.38582  0.50728  1.0000 -0.3686133883
N   N3        1.0  0.55653  0.36815  0.65630  1.0000 -0.3519995214
N   N4        1.0  0.35937  0.85908  0.61107  1.0000 -0.378362804
N   N5        1.0  0.51812  0.74787  0.76803  1.0000 -0.3591903609
N   N6        1.0  0.35916  0.87569  0.75506  1.0000 -0.3591903609
N   N7        1.0  0.39667  0.87091  0.24963  1.0000 -0.3686133883
N   N8        1.0  0.40112  0.87390  0.10767  1.0000 -0.378362804
N   N9        1.0  0.54130  0.73156  0.25762  1.0000 -0.3519995214
N   N10       1.0  0.03130  0.14233  0.01508  1.0000 -0.378362804
N   N11       1.0  0.03319  0.13954  0.16093  1.0000 -0.3591903609
N   N12       1.0  0.89724  0.28964  0.01579  1.0000 -0.3591903609
N   N13       1.0  0.91996  0.27558  0.51780  1.0000 -0.3686133883
N   N14       1.0  0.05060  0.11418  0.50728  1.0000 -0.3686133883
N   N15       1.0  0.05653  0.13185  0.65630  1.0000 -0.3519995214
N   N16       1.0  0.85937  0.64092  0.61107  1.0000 -0.3686133883
N   N17       1.0  0.01812  0.75213  0.76803  1.0000 -0.3591903609
N   N18       1.0  0.85916  0.62431  0.75506  1.0000 -0.3591903609
N   N19       1.0  0.89667  0.62909  0.24963  1.0000 -0.3686133883
N   N20       1.0  0.90112  0.62610  0.10767  1.0000 -0.378362804
N   N21       1.0  0.04130  0.76844  0.25762  1.0000 -0.3519995214
N   N22       1.0  0.53130  0.35767  0.01508  1.0000 -0.378362804
N   N23       1.0  0.53319  0.36046  0.16093  1.0000 -0.3591903609
N   N24       1.0  0.39724  0.21036  0.01579  1.0000 -0.3591903609
N   N25       1.0  0.08004  0.72442  0.48220  1.0000 -0.3686133883
N   N26       1.0  0.94940  0.88582  0.49272  1.0000 -0.3686133883
N   N27       1.0  0.94347  0.86815  0.34370  1.0000 -0.3519995214
N   N28       1.0  0.14063  0.35908  0.38893  1.0000 -0.378362804
N   N29       1.0  0.98188  0.24787  0.23197  1.0000 -0.3591903609
N   N30       1.0  0.14084  0.37569  0.24494  1.0000 -0.3686133883
N   N31       1.0  0.10333  0.37091  0.75037  1.0000 -0.3686133883
N   N32       1.0  0.09888  0.37390  0.89233  1.0000 -0.378362804
N   N33       1.0  0.95870  0.23156  0.74238  1.0000 -0.3519995214
N   N34       1.0  0.46870  0.64233  0.98492  1.0000 -0.3686133883
N   N35       1.0  0.46681  0.63954  0.83907  1.0000 -0.3591903609
N   N36       1.0  0.60276  0.78964  0.98421  1.0000 -0.3591903609
N   N37       1.0  0.58004  0.77558  0.48220  1.0000 -0.3686133883
N   N38       1.0  0.44940  0.61418  0.49272  1.0000 -0.3686133883
N   N39       1.0  0.44347  0.63185  0.34370  1.0000 -0.3519995214
N   N40       1.0  0.64063  0.14092  0.38893  1.0000 -0.3686133883
N   N41       1.0  0.48188  0.25213  0.23197  1.0000 -0.3591903609
N   N42       1.0  0.64084  0.12431  0.24494  1.0000 -0.3686133883
N   N43       1.0  0.60333  0.12909  0.75037  1.0000 -0.3686133883
N   N44       1.0  0.59888  0.12610  0.89233  1.0000 -0.378362804
N   N45       1.0  0.45870  0.26844  0.74238  1.0000 -0.3519995214
N   N46       1.0  0.96870  0.85767  0.98492  1.0000 -0.378362804
N   N47       1.0  0.96681  0.86046  0.83907  1.0000 -0.3591903609
N   N48       1.0  0.10276  0.71036  0.98421  1.0000 -0.3591903609
O   O1        1.0  0.31642  0.05190  0.42033  1.0000 -0.569669828
O   O2        1.0  0.26193  0.10170  0.41810  1.0000 -0.5002050588
O   O3        1.0  0.38559  0.27320  0.54610  1.0000 -0.460911246
O   O4        1.0  0.53057  0.31257  0.47978  1.0000 -0.4494406106
O   O5        1.0  0.66173  0.49671  0.42514  1.0000 -0.5403393255
O   O6        1.0  0.67428  0.42158  0.41062  1.0000 -0.5125861563
O   O7        1.0  0.48851  0.38293  0.65025  1.0000 -0.4494406106
O   O8        1.0  0.68276  0.43543  0.82085  1.0000 -0.5305862859
O   O9        1.0  0.62306  0.46244  0.82476  1.0000 -0.5305862859
O   O10       1.0  0.29606  0.95161  0.44064  1.0000 -0.5189503316
O   O11       1.0  0.23529  0.93516  0.44855  1.0000 -0.5403393255
O   O12       1.0  0.42570  0.85330  0.61147  1.0000 -0.4494406106
O   O13       1.0  0.49629  0.71524  0.70787  1.0000 -0.4224140273
O   O14       1.0  0.61574  0.56427  0.85032  1.0000 -0.5555174874
O   O15       1.0  0.66699  0.61881  0.87648  1.0000 -0.5305862859
O   O16       1.0  0.37964  0.80330  0.78440  1.0000 -0.460911246
O   O17       1.0  0.24313  0.91688  0.85815  1.0000 -0.5305862859
O   O18       1.0  0.25290  0.99100  0.83963  1.0000 -0.5403393255
O   O19       1.0  0.31294  0.96903  0.36426  1.0000 -0.5125861563
O   O20       1.0  0.25913  0.96693  0.30839  1.0000 -0.5491331147
O   O21       1.0  0.46325  0.87600  0.29161  1.0000 -0.4494406106
O   O22       1.0  0.41832  0.79870  0.09581  1.0000 -0.4680795646
O   O23       1.0  0.25369  0.90236  0.94479  1.0000 -0.5403393255
O   O24       1.0  0.26500  0.97735  0.96894  1.0000 -0.569669828
O   O25       1.0  0.55627  0.74895  0.20262  1.0000 -0.460911246
O   O26       1.0  0.68777  0.57998  0.32221  1.0000 -0.5491331147
O   O27       1.0  0.65989  0.57919  0.37030  1.0000 -0.5403393255
O   O28       1.0  0.15468  0.05854  0.93410  1.0000 -0.5189503316
O   O29       1.0  0.09939  0.02228  0.89761  1.0000 -0.5189503316
O   O30       1.0  0.96350  0.13934  0.97776  1.0000 -0.460911246
O   O31       1.0  0.02727  0.21831  0.17438  1.0000 -0.4118146153
O   O32       1.0  0.17900  0.02990  0.28800  1.0000 -0.5002050588
O   O33       1.0  0.16865  0.09080  0.32804  1.0000 -0.6032386647
O   O34       1.0  0.88415  0.27405  0.07261  1.0000 -0.4494406106
O   O35       1.0  0.76562  0.42433  0.89485  1.0000 -0.5305862859
O   O36       1.0  0.73938  0.42261  0.94310  1.0000 -0.5305862859
O   O37       1.0  0.22574  0.00679  0.37513  1.0000 -1.0343157576
O   O38       1.0  0.19670  0.99254  0.89483  1.0000 -1.0223489033
O   O39       1.0  0.81642  0.44810  0.42033  1.0000 -0.569669828
O   O40       1.0  0.76193  0.39830  0.41810  1.0000 -0.5002050588
O   O41       1.0  0.88559  0.22680  0.54610  1.0000 -0.4680795646
O   O42       1.0  0.03057  0.18743  0.47978  1.0000 -0.4435473906
O   O43       1.0  0.16173  0.00329  0.42514  1.0000 -0.5403393255
O   O44       1.0  0.17428  0.07842  0.41062  1.0000 -0.5125861563
O   O45       1.0  0.98851  0.11707  0.65025  1.0000 -0.4494406106
O   O46       1.0  0.18276  0.06457  0.82085  1.0000 -0.5305862859
O   O47       1.0  0.12306  0.03756  0.82476  1.0000 -0.5305862859
O   O48       1.0  0.79606  0.54839  0.44064  1.0000 -0.5189503316
O   O49       1.0  0.73529  0.56484  0.44855  1.0000 -0.5403393255
O   O50       1.0  0.92570  0.64670  0.61147  1.0000 -0.4494406106
O   O51       1.0  0.99629  0.78476  0.70787  1.0000 -0.4224140273
O   O52       1.0  0.11574  0.93573  0.85032  1.0000 -0.5555174874
O   O53       1.0  0.16699  0.88119  0.87648  1.0000 -0.5305862859
O   O54       1.0  0.87964  0.69670  0.78440  1.0000 -0.4680795646
O   O55       1.0  0.74313  0.58312  0.85815  1.0000 -0.5305862859
O   O56       1.0  0.75290  0.50900  0.83963  1.0000 -0.5403393255
O   O57       1.0  0.81294  0.53097  0.36426  1.0000 -0.5125861563
O   O58       1.0  0.75913  0.53307  0.30839  1.0000 -0.5491331147
O   O59       1.0  0.96325  0.62400  0.29161  1.0000 -0.460911246
O   O60       1.0  0.91832  0.70130  0.09581  1.0000 -0.4680795646
O   O61       1.0  0.75369  0.59764  0.94479  1.0000 -0.5403393255
O   O62       1.0  0.76500  0.52265  0.96894  1.0000 -0.569669828
O   O63       1.0  0.05627  0.75105  0.20262  1.0000 -0.4494406106
O   O64       1.0  0.18777  0.92002  0.32221  1.0000 -0.5491331147
O   O65       1.0  0.15989  0.92081  0.37030  1.0000 -0.5403393255
O   O66       1.0  0.65468  0.44146  0.93410  1.0000 -0.5189503316
O   O67       1.0  0.59939  0.47772  0.89761  1.0000 -0.5189503316
O   O68       1.0  0.46350  0.36066  0.97776  1.0000 -0.460911246
O   O69       1.0  0.52727  0.28169  0.17438  1.0000 -0.4118146153
O   O70       1.0  0.67900  0.47010  0.28800  1.0000 -0.5002050588
O   O71       1.0  0.66865  0.40920  0.32804  1.0000 -0.6032386647
O   O72       1.0  0.38415  0.22595  0.07261  1.0000 -0.4494406106
O   O73       1.0  0.26562  0.07567  0.89485  1.0000 -0.5305862859
O   O74       1.0  0.23938  0.07739  0.94310  1.0000 -0.5305862859
O   O75       1.0  0.72574  0.49321  0.37513  1.0000 -1.0343157576
O   O76       1.0  0.69670  0.50746  0.89483  1.0000 -1.0223489033
O   O77       1.0  0.18358  0.55190  0.57967  1.0000 -0.569669828
O   O78       1.0  0.23807  0.60170  0.58190  1.0000 -0.5002050588
O   O79       1.0  0.11441  0.77320  0.45390  1.0000 -0.460911246
O   O80       1.0  0.96943  0.81257  0.52022  1.0000 -0.4494406106
O   O81       1.0  0.83827  0.99671  0.57486  1.0000 -0.5403393255
O   O82       1.0  0.82572  0.92158  0.58938  1.0000 -0.5125861563
O   O83       1.0  0.01149  0.88293  0.34975  1.0000 -0.4494406106
O   O84       1.0  0.81724  0.93543  0.17915  1.0000 -0.5305862859
O   O85       1.0  0.87694  0.96244  0.17524  1.0000 -0.5305862859
O   O86       1.0  0.20394  0.45161  0.55936  1.0000 -0.5125861563
O   O87       1.0  0.26471  0.43516  0.55145  1.0000 -0.5403393255
O   O88       1.0  0.07430  0.35330  0.38853  1.0000 -0.4494406106
O   O89       1.0  0.00371  0.21524  0.29213  1.0000 -0.4224140273
O   O90       1.0  0.88426  0.06427  0.14968  1.0000 -0.5555174874
O   O91       1.0  0.83301  0.11881  0.12352  1.0000 -0.5305862859
O   O92       1.0  0.12036  0.30330  0.21560  1.0000 -0.4680795646
O   O93       1.0  0.25687  0.41688  0.14185  1.0000 -0.5305862859
O   O94       1.0  0.24710  0.49100  0.16037  1.0000 -0.5403393255
O   O95       1.0  0.18706  0.46903  0.63574  1.0000 -0.5189503316
O   O96       1.0  0.24087  0.46693  0.69161  1.0000 -0.5491331147
O   O97       1.0  0.03675  0.37600  0.70839  1.0000 -0.4494406106
O   O98       1.0  0.08168  0.29870  0.90419  1.0000 -0.460911246
O   O99       1.0  0.24631  0.40236  0.05521  1.0000 -0.5403393255
O   O100      1.0  0.23500  0.47735  0.03106  1.0000 -0.569669828
O   O101      1.0  0.94373  0.24895  0.79738  1.0000 -0.460911246
O   O102      1.0  0.81223  0.07998  0.67779  1.0000 -0.5491331147
O   O103      1.0  0.84011  0.07919  0.62970  1.0000 -0.5403393255
O   O104      1.0  0.34532  0.55854  0.06590  1.0000 -0.5189503316
O   O105      1.0  0.40061  0.52228  0.10239  1.0000 -0.5189503316
O   O106      1.0  0.53650  0.63934  0.02224  1.0000 -0.460911246
O   O107      1.0  0.47273  0.71831  0.82562  1.0000 -0.4118146153
O   O108      1.0  0.32100  0.52990  0.71200  1.0000 -0.5002050588
O   O109      1.0  0.33135  0.59080  0.67196  1.0000 -0.6032386647
O   O110      1.0  0.61585  0.77405  0.92739  1.0000 -0.4494406106
O   O111      1.0  0.73438  0.92433  0.10515  1.0000 -0.5189503316
O   O112      1.0  0.76062  0.92261  0.05690  1.0000 -0.5305862859
O   O113      1.0  0.27426  0.50679  0.62487  1.0000 -1.0343157576
O   O114      1.0  0.30330  0.49254  0.10517  1.0000 -1.0223489033
O   O115      1.0  0.68358  0.94810  0.57967  1.0000 -0.569669828
O   O116      1.0  0.73807  0.89830  0.58190  1.0000 -0.5002050588
O   O117      1.0  0.61441  0.72680  0.45390  1.0000 -0.460911246
O   O118      1.0  0.46943  0.68743  0.52022  1.0000 -0.4494406106
O   O119      1.0  0.33827  0.50329  0.57486  1.0000 -0.5403393255
O   O120      1.0  0.32572  0.57842  0.58938  1.0000 -0.5125861563
O   O121      1.0  0.51149  0.61707  0.34975  1.0000 -0.4494406106
O   O122      1.0  0.31724  0.56457  0.17915  1.0000 -0.5305862859
O   O123      1.0  0.37694  0.53756  0.17524  1.0000 -0.5305862859
O   O124      1.0  0.70394  0.04839  0.55936  1.0000 -0.5189503316
O   O125      1.0  0.76471  0.06484  0.55145  1.0000 -0.5403393255
O   O126      1.0  0.57430  0.14670  0.38853  1.0000 -0.4494406106
O   O127      1.0  0.50371  0.28476  0.29213  1.0000 -0.4224140273
O   O128      1.0  0.38426  0.43573  0.14968  1.0000 -0.5555174874
O   O129      1.0  0.33301  0.38119  0.12352  1.0000 -0.5305862859
O   O130      1.0  0.62036  0.19670  0.21560  1.0000 -0.460911246
O   O131      1.0  0.75687  0.08312  0.14185  1.0000 -0.5305862859
O   O132      1.0  0.74710  0.00900  0.16037  1.0000 -0.5403393255
O   O133      1.0  0.68706  0.03097  0.63574  1.0000 -0.5189503316
O   O134      1.0  0.74087  0.03307  0.69161  1.0000 -0.5491331147
O   O135      1.0  0.53675  0.12400  0.70839  1.0000 -0.4494406106
O   O136      1.0  0.58168  0.20130  0.90419  1.0000 -0.4680795646
O   O137      1.0  0.74631  0.09764  0.05521  1.0000 -0.5403393255
O   O138      1.0  0.73500  0.02265  0.03106  1.0000 -0.569669828
O   O139      1.0  0.44373  0.25105  0.79738  1.0000 -0.4494406106
O   O140      1.0  0.31223  0.42002  0.67779  1.0000 -0.5491331147
O   O141      1.0  0.34011  0.42081  0.62970  1.0000 -0.5403393255
O   O142      1.0  0.84532  0.94146  0.06590  1.0000 -0.5189503316
O   O143      1.0  0.90061  0.97772  0.10239  1.0000 -0.5189503316
O   O144      1.0  0.03650  0.86066  0.02224  1.0000 -0.460911246
O   O145      1.0  0.97273  0.78169  0.82562  1.0000 -0.4118146153
O   O146      1.0  0.82100  0.97010  0.71200  1.0000 -0.5002050588
O   O147      1.0  0.83135  0.90920  0.67196  1.0000 -0.6032386647
O   O148      1.0  0.11585  0.72595  0.92739  1.0000 -0.4494406106
O   O149      1.0  0.23438  0.57567  0.10515  1.0000 -0.5305862859
O   O150      1.0  0.26062  0.57739  0.05690  1.0000 -0.5305862859
O   O151      1.0  0.77426  0.99321  0.62487  1.0000 -1.0343157576
O   O152      1.0  0.80330  0.00746  0.10517  1.0000 -1.0223489033
