# DDEC6 charges by PACMAN v1.1 (https://github.com/mtap-research/PACMAN-charge/)
data_2021[Zn][pcu]3[ASR]2
_chemical_formula_sum              "Zn32 H168 C336 N24 O104"
_cell_length_a       22.822
_cell_length_b       24.2194
_cell_length_c       33.1182
_cell_angle_alpha    90
_cell_angle_beta     104.328
_cell_angle_gamma    90

_symmetry_space_group_name_H-M    "P 1"
_symmetry_Int_Tables_number       1

loop_
  _symmetry_equiv_pos_as_xyz
  'x, y, z'

loop_
  _atom_site_type_symbol
  _atom_site_label
  _atom_site_symmetry_multiplicity
  _atom_site_fract_x
  _atom_site_fract_y
  _atom_site_fract_z
  _atom_site_occupancy
  _atom_site_charge
Zn  Zn1       1.0  0.49826  0.77625  0.09420  1.0000 0.9637685722
Zn  Zn2       1.0  0.54483  0.65210  0.10319  1.0000 0.9293670101
Zn  Zn3       1.0  0.47805  0.70070  0.16862  1.0000 0.9293670101
Zn  Zn4       1.0  0.61033  0.73879  0.16568  1.0000 0.9377707695
Zn  Zn5       1.0  0.10927  0.20221  0.13881  1.0000 0.9458658254
Zn  Zn6       1.0  0.97144  0.23839  0.13433  1.0000 0.9293670101
Zn  Zn7       1.0  0.03161  0.15030  0.19813  1.0000 0.9293670101
Zn  Zn8       1.0  0.07731  0.27448  0.20832  1.0000 0.9210465258
Zn  Zn9       1.0  0.49826  0.72375  0.59420  1.0000 0.9637685722
Zn  Zn10      1.0  0.54483  0.84790  0.60319  1.0000 0.9293670101
Zn  Zn11      1.0  0.47805  0.79930  0.66862  1.0000 0.9293670101
Zn  Zn12      1.0  0.61033  0.76121  0.66568  1.0000 0.9377707695
Zn  Zn13      1.0  0.10927  0.29779  0.63881  1.0000 0.9458658254
Zn  Zn14      1.0  0.97144  0.26161  0.63433  1.0000 0.9293670101
Zn  Zn15      1.0  0.03161  0.34970  0.69813  1.0000 0.9293670101
Zn  Zn16      1.0  0.07731  0.22552  0.70832  1.0000 0.9210465258
Zn  Zn17      1.0  0.50174  0.27625  0.40580  1.0000 0.9637685722
Zn  Zn18      1.0  0.45517  0.15210  0.39681  1.0000 0.9293670101
Zn  Zn19      1.0  0.52195  0.20070  0.33138  1.0000 0.9293670101
Zn  Zn20      1.0  0.38967  0.23879  0.33432  1.0000 0.9377707695
Zn  Zn21      1.0  0.89073  0.70221  0.36119  1.0000 0.9458658254
Zn  Zn22      1.0  0.02856  0.73839  0.36567  1.0000 0.9293670101
Zn  Zn23      1.0  0.96839  0.65030  0.30187  1.0000 0.9293670101
Zn  Zn24      1.0  0.92269  0.77448  0.29168  1.0000 0.9210465258
Zn  Zn25      1.0  0.50174  0.22375  0.90580  1.0000 0.9637685722
Zn  Zn26      1.0  0.45517  0.34790  0.89681  1.0000 0.9293670101
Zn  Zn27      1.0  0.52195  0.29930  0.83138  1.0000 0.9293670101
Zn  Zn28      1.0  0.38967  0.26121  0.83432  1.0000 0.9377707695
Zn  Zn29      1.0  0.89073  0.79779  0.86119  1.0000 0.9458658254
Zn  Zn30      1.0  0.02856  0.76161  0.86567  1.0000 0.9293670101
Zn  Zn31      1.0  0.96839  0.84970  0.80187  1.0000 0.9293670101
Zn  Zn32      1.0  0.92269  0.72552  0.79168  1.0000 0.9210465258
H   H1        1.0  0.50570  0.77150  0.96310  1.0000 0.1302751237
H   H2        1.0  0.62050  0.64600  0.99860  1.0000 0.1216537195
H   H3        1.0  0.64810  0.64710  0.93540  1.0000 0.1115315846
H   H4        1.0  0.66130  0.67120  0.85370  1.0000 0.1216537195
H   H5        1.0  0.64680  0.70040  0.78520  1.0000 0.1216537195
H   H6        1.0  0.51270  0.79980  0.80190  1.0000 0.1302751237
H   H7        1.0  0.39750  0.54350  0.18490  1.0000 0.137154806
H   H8        1.0  0.40330  0.53620  0.06470  1.0000 0.1216537195
H   H9        1.0  0.32860  0.46940  0.05420  1.0000 0.1216537195
H   H10       1.0  0.23360  0.39360  0.06270  1.0000 0.1302751237
H   H11       1.0  0.16410  0.33980  0.08570  1.0000 0.1302751237
H   H12       1.0  0.22510  0.39690  0.20110  1.0000 0.1302751237
H   H13       1.0  0.36760  0.89580  0.12170  1.0000 0.1302751237
H   H14       1.0  0.34740  0.78660  0.20900  1.0000 0.1216537195
H   H15       1.0  0.27440  0.84220  0.22660  1.0000 0.1216537195
H   H16       1.0  0.20300  0.93450  0.23910  1.0000 0.1115315846
H   H17       1.0  0.13870  0.01020  0.22860  1.0000 0.1115315846
H   H18       1.0  0.20020  0.05160  0.12820  1.0000 0.1302751237
H   H19       1.0  0.68450  0.53030  0.13470  1.0000 0.137154806
H   H20       1.0  0.78060  0.66050  0.18770  1.0000 0.1216537195
H   H21       1.0  0.86610  0.60580  0.20320  1.0000 0.1302751237
H   H22       1.0  0.95080  0.51520  0.21500  1.0000 0.1302751237
H   H23       1.0  0.99880  0.43170  0.21270  1.0000 0.1216537195
H   H24       1.0  0.84370  0.36460  0.15140  1.0000 0.137154806
H   H25       1.0  0.72440  0.87490  0.16270  1.0000 0.1302751237
H   H26       1.0  0.57990  0.93230  0.08130  1.0000 0.1302751237
H   H27       1.0  0.62980  0.01320  0.07600  1.0000 0.1216537195
H   H28       1.0  0.72060  0.09930  0.07980  1.0000 0.1216537195
H   H29       1.0  0.80700  0.15280  0.09520  1.0000 0.1302751237
H   H30       1.0  0.88640  0.03930  0.17750  1.0000 0.1302751237
H   H31       1.0  0.08610  0.27440  0.34280  1.0000 0.1302751237
H   H32       1.0  0.00550  0.12820  0.31300  1.0000 0.1216537195
H   H33       1.0  0.98910  0.11990  0.37910  1.0000 0.1216537195
H   H34       1.0  0.98040  0.13500  0.46250  1.0000 0.1216537195
H   H35       1.0  0.98000  0.17020  0.52730  1.0000 0.1302751237
H   H36       1.0  0.06670  0.30560  0.50130  1.0000 0.1302751237
H   H37       1.0  0.49660  0.80070  0.88210  1.0000 0.2869644965
H   H38       1.0  0.31680  0.47190  0.20720  1.0000 0.2869644965
H   H39       1.0  0.28610  0.98130  0.11150  1.0000 0.2800727008
H   H40       1.0  0.74920  0.43790  0.13850  1.0000 0.2869644965
H   H41       1.0  0.81660  0.94740  0.17910  1.0000 0.2728944873
H   H42       1.0  0.09250  0.30310  0.42380  1.0000 0.2800727008
H   H43       1.0  0.50570  0.72850  0.46310  1.0000 0.1302751237
H   H44       1.0  0.62050  0.85400  0.49860  1.0000 0.1216537195
H   H45       1.0  0.64810  0.85290  0.43540  1.0000 0.1115315846
H   H46       1.0  0.66130  0.82880  0.35370  1.0000 0.1216537195
H   H47       1.0  0.64680  0.79960  0.28520  1.0000 0.1216537195
H   H48       1.0  0.51270  0.70020  0.30190  1.0000 0.137154806
H   H49       1.0  0.39750  0.95650  0.68490  1.0000 0.137154806
H   H50       1.0  0.40330  0.96380  0.56470  1.0000 0.1216537195
H   H51       1.0  0.32860  0.03060  0.55420  1.0000 0.1216537195
H   H52       1.0  0.23360  0.10640  0.56270  1.0000 0.1302751237
H   H53       1.0  0.16410  0.16020  0.58570  1.0000 0.1302751237
H   H54       1.0  0.22510  0.10310  0.70110  1.0000 0.1302751237
H   H55       1.0  0.36760  0.60420  0.62170  1.0000 0.1302751237
H   H56       1.0  0.34740  0.71340  0.70900  1.0000 0.1216537195
H   H57       1.0  0.27440  0.65780  0.72660  1.0000 0.1216537195
H   H58       1.0  0.20300  0.56550  0.73910  1.0000 0.1115315846
H   H59       1.0  0.13870  0.48980  0.72860  1.0000 0.1115315846
H   H60       1.0  0.20020  0.44840  0.62820  1.0000 0.1302751237
H   H61       1.0  0.68450  0.96970  0.63470  1.0000 0.137154806
H   H62       1.0  0.78060  0.83950  0.68770  1.0000 0.1216537195
H   H63       1.0  0.86610  0.89420  0.70320  1.0000 0.1302751237
H   H64       1.0  0.95080  0.98480  0.71500  1.0000 0.1302751237
H   H65       1.0  0.99880  0.06830  0.71270  1.0000 0.1216537195
H   H66       1.0  0.84370  0.13540  0.65140  1.0000 0.137154806
H   H67       1.0  0.72440  0.62510  0.66270  1.0000 0.1302751237
H   H68       1.0  0.57990  0.56770  0.58130  1.0000 0.1302751237
H   H69       1.0  0.62980  0.48680  0.57600  1.0000 0.1216537195
H   H70       1.0  0.72060  0.40070  0.57980  1.0000 0.1216537195
H   H71       1.0  0.80700  0.34720  0.59520  1.0000 0.1216537195
H   H72       1.0  0.88640  0.46070  0.67750  1.0000 0.1302751237
H   H73       1.0  0.08610  0.22560  0.84280  1.0000 0.1302751237
H   H74       1.0  0.00550  0.37180  0.81300  1.0000 0.1216537195
H   H75       1.0  0.98910  0.38010  0.87910  1.0000 0.1216537195
H   H76       1.0  0.98040  0.36500  0.96250  1.0000 0.1216537195
H   H77       1.0  0.98000  0.32980  0.02730  1.0000 0.1302751237
H   H78       1.0  0.06670  0.19440  0.00130  1.0000 0.1302751237
H   H79       1.0  0.49660  0.69930  0.38210  1.0000 0.2869644965
H   H80       1.0  0.31680  0.02810  0.70720  1.0000 0.2869644965
H   H81       1.0  0.28610  0.51870  0.61150  1.0000 0.2800727008
H   H82       1.0  0.74920  0.06210  0.63850  1.0000 0.2869644965
H   H83       1.0  0.81660  0.55260  0.67910  1.0000 0.2728944873
H   H84       1.0  0.09250  0.19690  0.92380  1.0000 0.2800727008
H   H85       1.0  0.49430  0.27150  0.53690  1.0000 0.1302751237
H   H86       1.0  0.37950  0.14600  0.50140  1.0000 0.1216537195
H   H87       1.0  0.35190  0.14710  0.56460  1.0000 0.1216537195
H   H88       1.0  0.33870  0.17120  0.64630  1.0000 0.1216537195
H   H89       1.0  0.35320  0.20040  0.71480  1.0000 0.1216537195
H   H90       1.0  0.48730  0.29980  0.69810  1.0000 0.137154806
H   H91       1.0  0.60250  0.04350  0.31510  1.0000 0.137154806
H   H92       1.0  0.59670  0.03620  0.43530  1.0000 0.1216537195
H   H93       1.0  0.67140  0.96940  0.44580  1.0000 0.1216537195
H   H94       1.0  0.76640  0.89360  0.43730  1.0000 0.1302751237
H   H95       1.0  0.83590  0.83980  0.41430  1.0000 0.1302751237
H   H96       1.0  0.77490  0.89690  0.29890  1.0000 0.1302751237
H   H97       1.0  0.63240  0.39580  0.37830  1.0000 0.1302751237
H   H98       1.0  0.65260  0.28660  0.29100  1.0000 0.1216537195
H   H99       1.0  0.72560  0.34220  0.27340  1.0000 0.1216537195
H   H100      1.0  0.79700  0.43450  0.26090  1.0000 0.1115315846
H   H101      1.0  0.86130  0.51020  0.27140  1.0000 0.1115315846
H   H102      1.0  0.79980  0.55160  0.37180  1.0000 0.1302751237
H   H103      1.0  0.31550  0.03030  0.36530  1.0000 0.137154806
H   H104      1.0  0.21940  0.16050  0.31230  1.0000 0.1216537195
H   H105      1.0  0.13390  0.10580  0.29680  1.0000 0.1302751237
H   H106      1.0  0.04920  0.01520  0.28500  1.0000 0.1302751237
H   H107      1.0  0.00120  0.93170  0.28730  1.0000 0.1216537195
H   H108      1.0  0.15630  0.86460  0.34860  1.0000 0.137154806
H   H109      1.0  0.27560  0.37490  0.33730  1.0000 0.1302751237
H   H110      1.0  0.42010  0.43230  0.41870  1.0000 0.1302751237
H   H111      1.0  0.37020  0.51320  0.42400  1.0000 0.1216537195
H   H112      1.0  0.27940  0.59930  0.42020  1.0000 0.1216537195
H   H113      1.0  0.19300  0.65280  0.40480  1.0000 0.1216537195
H   H114      1.0  0.11360  0.53930  0.32250  1.0000 0.1302751237
H   H115      1.0  0.91390  0.77440  0.15720  1.0000 0.1302751237
H   H116      1.0  0.99450  0.62820  0.18700  1.0000 0.1216537195
H   H117      1.0  0.01090  0.61990  0.12090  1.0000 0.1216537195
H   H118      1.0  0.01960  0.63500  0.03750  1.0000 0.1216537195
H   H119      1.0  0.02000  0.67020  0.97270  1.0000 0.1302751237
H   H120      1.0  0.93330  0.80560  0.99870  1.0000 0.1302751237
H   H121      1.0  0.50340  0.30070  0.61790  1.0000 0.2869644965
H   H122      1.0  0.68320  0.97190  0.29280  1.0000 0.2869644965
H   H123      1.0  0.71390  0.48130  0.38850  1.0000 0.2800727008
H   H124      1.0  0.25080  0.93790  0.36150  1.0000 0.2869644965
H   H125      1.0  0.18340  0.44740  0.32090  1.0000 0.2728944873
H   H126      1.0  0.90750  0.80310  0.07620  1.0000 0.2800727008
H   H127      1.0  0.49430  0.22850  0.03690  1.0000 0.1302751237
H   H128      1.0  0.37950  0.35400  0.00140  1.0000 0.1216537195
H   H129      1.0  0.35190  0.35290  0.06460  1.0000 0.1115315846
H   H130      1.0  0.33870  0.32880  0.14630  1.0000 0.1216537195
H   H131      1.0  0.35320  0.29960  0.21480  1.0000 0.1216537195
H   H132      1.0  0.48730  0.20020  0.19810  1.0000 0.1302751237
H   H133      1.0  0.60250  0.45650  0.81510  1.0000 0.137154806
H   H134      1.0  0.59670  0.46380  0.93530  1.0000 0.1216537195
H   H135      1.0  0.67140  0.53060  0.94580  1.0000 0.1216537195
H   H136      1.0  0.76640  0.60640  0.93730  1.0000 0.1302751237
H   H137      1.0  0.83590  0.66020  0.91430  1.0000 0.1302751237
H   H138      1.0  0.77490  0.60310  0.79890  1.0000 0.137154806
H   H139      1.0  0.63240  0.10420  0.87830  1.0000 0.1302751237
H   H140      1.0  0.65260  0.21340  0.79100  1.0000 0.1216537195
H   H141      1.0  0.72560  0.15780  0.77340  1.0000 0.1216537195
H   H142      1.0  0.79700  0.06550  0.76090  1.0000 0.1115315846
H   H143      1.0  0.86130  0.98980  0.77140  1.0000 0.1115315846
H   H144      1.0  0.79980  0.94840  0.87180  1.0000 0.1302751237
H   H145      1.0  0.31550  0.46970  0.86530  1.0000 0.137154806
H   H146      1.0  0.21940  0.33950  0.81230  1.0000 0.1216537195
H   H147      1.0  0.13390  0.39420  0.79680  1.0000 0.1302751237
H   H148      1.0  0.04920  0.48480  0.78500  1.0000 0.1302751237
H   H149      1.0  0.00120  0.56830  0.78730  1.0000 0.1216537195
H   H150      1.0  0.15630  0.63540  0.84860  1.0000 0.137154806
H   H151      1.0  0.27560  0.12510  0.83730  1.0000 0.1302751237
H   H152      1.0  0.42010  0.06770  0.91870  1.0000 0.1302751237
H   H153      1.0  0.37020  0.98680  0.92400  1.0000 0.1216537195
H   H154      1.0  0.27940  0.90070  0.92020  1.0000 0.1216537195
H   H155      1.0  0.19300  0.84720  0.90480  1.0000 0.1302751237
H   H156      1.0  0.11360  0.96070  0.82250  1.0000 0.1302751237
H   H157      1.0  0.91390  0.72560  0.65720  1.0000 0.1302751237
H   H158      1.0  0.99450  0.87180  0.68700  1.0000 0.1216537195
H   H159      1.0  0.01090  0.88010  0.62090  1.0000 0.1216537195
H   H160      1.0  0.01960  0.86500  0.53750  1.0000 0.1216537195
H   H161      1.0  0.02000  0.82980  0.47270  1.0000 0.1302751237
H   H162      1.0  0.93330  0.69440  0.49870  1.0000 0.1302751237
H   H163      1.0  0.50340  0.19930  0.11790  1.0000 0.2869644965
H   H164      1.0  0.68320  0.52810  0.79280  1.0000 0.2869644965
H   H165      1.0  0.71390  0.01870  0.88850  1.0000 0.2800727008
H   H166      1.0  0.25080  0.56210  0.86150  1.0000 0.2869644965
H   H167      1.0  0.18340  0.05260  0.82090  1.0000 0.2728944873
H   H168      1.0  0.90750  0.69690  0.57620  1.0000 0.2800727008
C   C1        1.0  0.54932  0.74671  0.91926  1.0000 0.1679288974
C   C2        1.0  0.53370  0.74645  0.95771  1.0000 -0.1795839498
C   C3        1.0  0.56046  0.70892  0.98674  1.0000 -0.0289094091
C   C4        1.0  0.60286  0.67162  0.97838  1.0000 -0.0937856505
C   C5        1.0  0.61942  0.67180  0.94038  1.0000 -0.2058533946
C   C6        1.0  0.59206  0.70952  0.91051  1.0000 -0.0289094091
C   C7        1.0  0.59663  0.71895  0.86852  1.0000 -0.0034024063
C   C8        1.0  0.63173  0.69733  0.84289  1.0000 -0.1795839498
C   C9        1.0  0.62309  0.71422  0.80200  1.0000 -0.1077163372
C   C10       1.0  0.57856  0.75195  0.78721  1.0000 -0.0389310742
C   C11       1.0  0.54271  0.77403  0.81270  1.0000 -0.1891686812
C   C12       1.0  0.55239  0.75728  0.85347  1.0000 0.1302751237
C   C13       1.0  0.54647  0.71137  0.02885  1.0000 0.5910246482
C   C14       1.0  0.56812  0.76826  0.74273  1.0000 0.5910246482
C   C15       1.0  0.33914  0.48750  0.15243  1.0000 0.1302751237
C   C16       1.0  0.38349  0.52796  0.15855  1.0000 -0.1891686812
C   C17       1.0  0.40767  0.54584  0.12563  1.0000 -0.0389310742
C   C18       1.0  0.38760  0.52435  0.08661  1.0000 -0.1009664664
C   C19       1.0  0.34306  0.48433  0.08065  1.0000 -0.1606372496
C   C20       1.0  0.31903  0.46555  0.11329  1.0000 -0.0115939678
C   C21       1.0  0.26999  0.42936  0.11701  1.0000 -0.0289094091
C   C22       1.0  0.23210  0.39533  0.09052  1.0000 -0.1533625716
C   C23       1.0  0.19030  0.36247  0.10461  1.0000 -0.1009664664
C   C24       1.0  0.18707  0.36303  0.14610  1.0000 -0.0115939678
C   C25       1.0  0.22576  0.39616  0.17318  1.0000 -0.2000453293
C   C26       1.0  0.26714  0.42965  0.15874  1.0000 0.1525797501
C   C27       1.0  0.45250  0.59235  0.13140  1.0000 0.5910246482
C   C28       1.0  0.14212  0.32766  0.16118  1.0000 0.5599443173
C   C29       1.0  0.30600  0.91890  0.15376  1.0000 0.1302751237
C   C30       1.0  0.34957  0.88504  0.14278  1.0000 -0.1795839498
C   C31       1.0  0.36532  0.83605  0.16335  1.0000 -0.0389310742
C   C32       1.0  0.33672  0.81990  0.19512  1.0000 -0.1009664664
C   C33       1.0  0.29282  0.85319  0.20588  1.0000 -0.1727680298
C   C34       1.0  0.27722  0.90276  0.18518  1.0000 -0.0115939678
C   C35       1.0  0.23921  0.94754  0.18901  1.0000 -0.0289094091
C   C36       1.0  0.20176  0.95812  0.21675  1.0000 -0.1795839498
C   C37       1.0  0.16344  0.00343  0.21068  1.0000 -0.1178452656
C   C38       1.0  0.16261  0.03828  0.17761  1.0000 -0.0289094091
C   C39       1.0  0.20081  0.02772  0.15024  1.0000 -0.1891686812
C   C40       1.0  0.23834  0.98272  0.15613  1.0000 0.1302751237
C   C41       1.0  0.41280  0.79928  0.15198  1.0000 0.5910246482
C   C42       1.0  0.12100  0.08638  0.17344  1.0000 0.5910246482
C   C43       1.0  0.77214  0.51230  0.15846  1.0000 0.1525797501
C   C44       1.0  0.72134  0.54549  0.14873  1.0000 -0.1891686812
C   C45       1.0  0.72415  0.60099  0.15950  1.0000 -0.0289094091
C   C46       1.0  0.77815  0.62349  0.18008  1.0000 -0.1009664664
C   C47       1.0  0.82914  0.59058  0.18940  1.0000 -0.1424004227
C   C48       1.0  0.82609  0.53505  0.17850  1.0000 -0.0289094091
C   C49       1.0  0.86805  0.49016  0.18433  1.0000 -0.0289094091
C   C50       1.0  0.92879  0.48503  0.20204  1.0000 -0.1533625716
C   C51       1.0  0.95752  0.43482  0.20064  1.0000 -0.1009664664
C   C52       1.0  0.92601  0.39000  0.18175  1.0000 -0.0224474568
C   C53       1.0  0.86561  0.39495  0.16419  1.0000 -0.1891686812
C   C54       1.0  0.83676  0.44479  0.16528  1.0000 0.1302751237
C   C55       1.0  0.66945  0.63635  0.15031  1.0000 0.5972775077
C   C56       1.0  0.95902  0.33710  0.17837  1.0000 0.5910246482
C   C57       1.0  0.73446  0.95159  0.14205  1.0000 0.137154806
C   C58       1.0  0.70472  0.90280  0.14523  1.0000 -0.2000453293
C   C59       1.0  0.64622  0.89544  0.12260  1.0000 -0.0289094091
C   C60       1.0  0.61941  0.93681  0.09700  1.0000 -0.1077163372
C   C61       1.0  0.64947  0.98546  0.09370  1.0000 -0.1286011258
C   C62       1.0  0.70727  0.99326  0.11591  1.0000 -0.0389310742
C   C63       1.0  0.75225  0.03673  0.11880  1.0000 -0.0289094091
C   C64       1.0  0.75446  0.08695  0.09951  1.0000 -0.1286011258
C   C65       1.0  0.80607  0.11940  0.10890  1.0000 -0.1009664664
C   C66       1.0  0.85505  0.10210  0.13814  1.0000 -0.0473235914
C   C67       1.0  0.85263  0.05159  0.15757  1.0000 -0.1795839498
C   C68       1.0  0.80127  0.01926  0.14801  1.0000 0.1216537195
C   C69       1.0  0.61289  0.84310  0.12484  1.0000 0.5910246482
C   C70       1.0  0.90896  0.13792  0.14969  1.0000 0.5910246482
C   C71       1.0  0.05537  0.23910  0.38913  1.0000 0.1525797501
C   C72       1.0  0.06612  0.24377  0.34978  1.0000 -0.2000453293
C   C73       1.0  0.04672  0.20241  0.32135  1.0000 -0.0289094091
C   C74       1.0  0.01817  0.15620  0.33241  1.0000 -0.1178452656
C   C75       1.0  0.00813  0.15108  0.37200  1.0000 -0.1606372496
C   C76       1.0  0.02663  0.19270  0.40036  1.0000 -0.0289094091
C   C77       1.0  0.02313  0.20023  0.44308  1.0000 -0.0224474568
C   C78       1.0  0.99744  0.16936  0.47058  1.0000 -0.1424004227
C   C79       1.0  0.99752  0.19009  0.50925  1.0000 -0.1178452656
C   C80       1.0  0.02409  0.24095  0.52106  1.0000 -0.0289094091
C   C81       1.0  0.04937  0.27131  0.49334  1.0000 -0.1891686812
C   C82       1.0  0.04879  0.25066  0.45437  1.0000 0.1216537195
C   C83       1.0  0.05349  0.20810  0.27724  1.0000 0.5910246482
C   C84       1.0  0.02320  0.26172  0.56358  1.0000 0.5910246482
C   C85       1.0  0.54932  0.75329  0.41926  1.0000 0.1679288974
C   C86       1.0  0.53370  0.75355  0.45771  1.0000 -0.1795839498
C   C87       1.0  0.56046  0.79108  0.48674  1.0000 -0.0289094091
C   C88       1.0  0.60286  0.82838  0.47838  1.0000 -0.0937856505
C   C89       1.0  0.61942  0.82820  0.44038  1.0000 -0.2058533946
C   C90       1.0  0.59206  0.79048  0.41051  1.0000 -0.0289094091
C   C91       1.0  0.59663  0.78105  0.36852  1.0000 -0.0034024063
C   C92       1.0  0.63173  0.80267  0.34289  1.0000 -0.1795839498
C   C93       1.0  0.62309  0.78578  0.30200  1.0000 -0.1077163372
C   C94       1.0  0.57856  0.74805  0.28721  1.0000 -0.0289094091
C   C95       1.0  0.54271  0.72597  0.31270  1.0000 -0.1891686812
C   C96       1.0  0.55239  0.74272  0.35347  1.0000 0.1302751237
C   C97       1.0  0.54647  0.78863  0.52885  1.0000 0.5910246482
C   C98       1.0  0.56812  0.73174  0.24273  1.0000 0.5910246482
C   C99       1.0  0.33914  0.01250  0.65243  1.0000 0.1302751237
C   C100      1.0  0.38349  0.97204  0.65855  1.0000 -0.1891686812
C   C101      1.0  0.40767  0.95416  0.62563  1.0000 -0.0389310742
C   C102      1.0  0.38760  0.97565  0.58661  1.0000 -0.1009664664
C   C103      1.0  0.34306  0.01567  0.58065  1.0000 -0.1606372496
C   C104      1.0  0.31903  0.03445  0.61329  1.0000 -0.0115939678
C   C105      1.0  0.26999  0.07064  0.61701  1.0000 -0.0289094091
C   C106      1.0  0.23210  0.10467  0.59052  1.0000 -0.1533625716
C   C107      1.0  0.19030  0.13753  0.60461  1.0000 -0.1009664664
C   C108      1.0  0.18707  0.13697  0.64610  1.0000 -0.0115939678
C   C109      1.0  0.22576  0.10384  0.67318  1.0000 -0.2000453293
C   C110      1.0  0.26714  0.07035  0.65874  1.0000 0.1525797501
C   C111      1.0  0.45250  0.90765  0.63140  1.0000 0.5910246482
C   C112      1.0  0.14212  0.17234  0.66118  1.0000 0.5599443173
C   C113      1.0  0.30600  0.58110  0.65376  1.0000 0.1302751237
C   C114      1.0  0.34957  0.61496  0.64278  1.0000 -0.1795839498
C   C115      1.0  0.36532  0.66395  0.66335  1.0000 -0.0389310742
C   C116      1.0  0.33672  0.68010  0.69512  1.0000 -0.1009664664
C   C117      1.0  0.29282  0.64681  0.70588  1.0000 -0.1727680298
C   C118      1.0  0.27722  0.59724  0.68518  1.0000 -0.0115939678
C   C119      1.0  0.23921  0.55246  0.68901  1.0000 -0.0289094091
C   C120      1.0  0.20176  0.54188  0.71675  1.0000 -0.1795839498
C   C121      1.0  0.16344  0.49657  0.71068  1.0000 -0.1178452656
C   C122      1.0  0.16261  0.46172  0.67761  1.0000 -0.0289094091
C   C123      1.0  0.20081  0.47228  0.65024  1.0000 -0.1891686812
C   C124      1.0  0.23834  0.51728  0.65613  1.0000 0.1302751237
C   C125      1.0  0.41280  0.70072  0.65198  1.0000 0.5910246482
C   C126      1.0  0.12100  0.41362  0.67344  1.0000 0.5910246482
C   C127      1.0  0.77214  0.98770  0.65846  1.0000 0.1525797501
C   C128      1.0  0.72134  0.95451  0.64873  1.0000 -0.1891686812
C   C129      1.0  0.72415  0.89901  0.65950  1.0000 -0.0289094091
C   C130      1.0  0.77815  0.87651  0.68008  1.0000 -0.1009664664
C   C131      1.0  0.82914  0.90942  0.68940  1.0000 -0.1424004227
C   C132      1.0  0.82609  0.96495  0.67850  1.0000 -0.0224474568
C   C133      1.0  0.86805  0.00984  0.68433  1.0000 -0.0289094091
C   C134      1.0  0.92879  0.01497  0.70204  1.0000 -0.1533625716
C   C135      1.0  0.95752  0.06518  0.70064  1.0000 -0.1009664664
C   C136      1.0  0.92601  0.11000  0.68175  1.0000 -0.0224474568
C   C137      1.0  0.86561  0.10505  0.66419  1.0000 -0.1891686812
C   C138      1.0  0.83676  0.05521  0.66528  1.0000 0.1302751237
C   C139      1.0  0.66945  0.86365  0.65031  1.0000 0.5972775077
C   C140      1.0  0.95902  0.16290  0.67837  1.0000 0.5910246482
C   C141      1.0  0.73446  0.54841  0.64205  1.0000 0.137154806
C   C142      1.0  0.70472  0.59720  0.64523  1.0000 -0.2000453293
C   C143      1.0  0.64622  0.60456  0.62260  1.0000 -0.0289094091
C   C144      1.0  0.61941  0.56319  0.59700  1.0000 -0.1077163372
C   C145      1.0  0.64947  0.51454  0.59370  1.0000 -0.1286011258
C   C146      1.0  0.70727  0.50674  0.61591  1.0000 -0.0389310742
C   C147      1.0  0.75225  0.46327  0.61880  1.0000 -0.0289094091
C   C148      1.0  0.75446  0.41305  0.59951  1.0000 -0.1424004227
C   C149      1.0  0.80607  0.38060  0.60890  1.0000 -0.1009664664
C   C150      1.0  0.85505  0.39790  0.63814  1.0000 -0.0389310742
C   C151      1.0  0.85263  0.44841  0.65757  1.0000 -0.1795839498
C   C152      1.0  0.80127  0.48074  0.64801  1.0000 0.1216537195
C   C153      1.0  0.61289  0.65690  0.62484  1.0000 0.5910246482
C   C154      1.0  0.90896  0.36208  0.64969  1.0000 0.5910246482
C   C155      1.0  0.05537  0.26090  0.88913  1.0000 0.1525797501
C   C156      1.0  0.06612  0.25623  0.84978  1.0000 -0.2000453293
C   C157      1.0  0.04672  0.29759  0.82135  1.0000 -0.0289094091
C   C158      1.0  0.01817  0.34380  0.83241  1.0000 -0.1178452656
C   C159      1.0  0.00813  0.34892  0.87200  1.0000 -0.1606372496
C   C160      1.0  0.02663  0.30730  0.90036  1.0000 -0.0289094091
C   C161      1.0  0.02313  0.29977  0.94308  1.0000 -0.0224474568
C   C162      1.0  0.99744  0.33064  0.97058  1.0000 -0.1424004227
C   C163      1.0  0.99752  0.30991  0.00925  1.0000 -0.1286011258
C   C164      1.0  0.02409  0.25905  0.02106  1.0000 -0.0289094091
C   C165      1.0  0.04937  0.22869  0.99334  1.0000 -0.1891686812
C   C166      1.0  0.04879  0.24934  0.95437  1.0000 0.1216537195
C   C167      1.0  0.05349  0.29190  0.77724  1.0000 0.5910246482
C   C168      1.0  0.02320  0.23828  0.06358  1.0000 0.5910246482
C   C169      1.0  0.45068  0.24671  0.58074  1.0000 0.1679288974
C   C170      1.0  0.46630  0.24645  0.54229  1.0000 -0.1795839498
C   C171      1.0  0.43954  0.20892  0.51326  1.0000 -0.0289094091
C   C172      1.0  0.39714  0.17162  0.52162  1.0000 -0.0937856505
C   C173      1.0  0.38058  0.17180  0.55962  1.0000 -0.2058533946
C   C174      1.0  0.40794  0.20952  0.58949  1.0000 -0.0289094091
C   C175      1.0  0.40337  0.21895  0.63148  1.0000 -0.0034024063
C   C176      1.0  0.36827  0.19733  0.65711  1.0000 -0.1795839498
C   C177      1.0  0.37691  0.21422  0.69800  1.0000 -0.1077163372
C   C178      1.0  0.42144  0.25195  0.71279  1.0000 -0.0289094091
C   C179      1.0  0.45729  0.27403  0.68730  1.0000 -0.1891686812
C   C180      1.0  0.44761  0.25728  0.64653  1.0000 0.1302751237
C   C181      1.0  0.45353  0.21137  0.47115  1.0000 0.5910246482
C   C182      1.0  0.43188  0.26826  0.75727  1.0000 0.5910246482
C   C183      1.0  0.66086  0.98750  0.34757  1.0000 0.1302751237
C   C184      1.0  0.61651  0.02796  0.34145  1.0000 -0.1891686812
C   C185      1.0  0.59233  0.04584  0.37437  1.0000 -0.0389310742
C   C186      1.0  0.61240  0.02435  0.41339  1.0000 -0.1009664664
C   C187      1.0  0.65694  0.98433  0.41935  1.0000 -0.1606372496
C   C188      1.0  0.68097  0.96555  0.38671  1.0000 -0.0115939678
C   C189      1.0  0.73001  0.92936  0.38299  1.0000 -0.0289094091
C   C190      1.0  0.76790  0.89533  0.40948  1.0000 -0.1533625716
C   C191      1.0  0.80970  0.86247  0.39539  1.0000 -0.1009664664
C   C192      1.0  0.81293  0.86303  0.35390  1.0000 -0.0115939678
C   C193      1.0  0.77424  0.89616  0.32682  1.0000 -0.2000453293
C   C194      1.0  0.73286  0.92965  0.34126  1.0000 0.1525797501
C   C195      1.0  0.54750  0.09235  0.36860  1.0000 0.5910246482
C   C196      1.0  0.85788  0.82766  0.33882  1.0000 0.5599443173
C   C197      1.0  0.69400  0.41890  0.34624  1.0000 0.137154806
C   C198      1.0  0.65043  0.38504  0.35722  1.0000 -0.1795839498
C   C199      1.0  0.63468  0.33605  0.33665  1.0000 -0.0389310742
C   C200      1.0  0.66328  0.31990  0.30488  1.0000 -0.1009664664
C   C201      1.0  0.70718  0.35319  0.29412  1.0000 -0.1727680298
C   C202      1.0  0.72278  0.40276  0.31482  1.0000 -0.0115939678
C   C203      1.0  0.76079  0.44754  0.31099  1.0000 -0.0289094091
C   C204      1.0  0.79824  0.45812  0.28325  1.0000 -0.1795839498
C   C205      1.0  0.83656  0.50343  0.28932  1.0000 -0.1178452656
C   C206      1.0  0.83739  0.53828  0.32239  1.0000 -0.0289094091
C   C207      1.0  0.79919  0.52772  0.34976  1.0000 -0.1891686812
C   C208      1.0  0.76166  0.48272  0.34387  1.0000 0.1302751237
C   C209      1.0  0.58720  0.29928  0.34802  1.0000 0.5910246482
C   C210      1.0  0.87900  0.58638  0.32656  1.0000 0.5910246482
C   C211      1.0  0.22786  0.01230  0.34154  1.0000 0.1525797501
C   C212      1.0  0.27866  0.04549  0.35127  1.0000 -0.1891686812
C   C213      1.0  0.27585  0.10099  0.34050  1.0000 -0.0289094091
C   C214      1.0  0.22185  0.12349  0.31992  1.0000 -0.1009664664
C   C215      1.0  0.17086  0.09058  0.31060  1.0000 -0.1424004227
C   C216      1.0  0.17391  0.03505  0.32150  1.0000 -0.0289094091
C   C217      1.0  0.13195  0.99016  0.31567  1.0000 -0.0289094091
C   C218      1.0  0.07121  0.98503  0.29796  1.0000 -0.1533625716
C   C219      1.0  0.04248  0.93482  0.29936  1.0000 -0.1009664664
C   C220      1.0  0.07399  0.89000  0.31825  1.0000 -0.0224474568
C   C221      1.0  0.13439  0.89495  0.33581  1.0000 -0.1891686812
C   C222      1.0  0.16324  0.94479  0.33472  1.0000 0.1302751237
C   C223      1.0  0.33055  0.13635  0.34969  1.0000 0.5972775077
C   C224      1.0  0.04098  0.83710  0.32163  1.0000 0.5910246482
C   C225      1.0  0.26554  0.45159  0.35795  1.0000 0.137154806
C   C226      1.0  0.29528  0.40280  0.35477  1.0000 -0.2000453293
C   C227      1.0  0.35378  0.39544  0.37740  1.0000 -0.0289094091
C   C228      1.0  0.38059  0.43681  0.40300  1.0000 -0.1077163372
C   C229      1.0  0.35053  0.48546  0.40630  1.0000 -0.1286011258
C   C230      1.0  0.29273  0.49326  0.38409  1.0000 -0.0389310742
C   C231      1.0  0.24775  0.53673  0.38120  1.0000 -0.0289094091
C   C232      1.0  0.24554  0.58695  0.40049  1.0000 -0.1424004227
C   C233      1.0  0.19393  0.61940  0.39110  1.0000 -0.1009664664
C   C234      1.0  0.14495  0.60210  0.36186  1.0000 -0.0473235914
C   C235      1.0  0.14737  0.55159  0.34243  1.0000 -0.1795839498
C   C236      1.0  0.19873  0.51926  0.35199  1.0000 0.1216537195
C   C237      1.0  0.38711  0.34310  0.37516  1.0000 0.5910246482
C   C238      1.0  0.09104  0.63792  0.35031  1.0000 0.5910246482
C   C239      1.0  0.94463  0.73910  0.11087  1.0000 0.1525797501
C   C240      1.0  0.93388  0.74377  0.15022  1.0000 -0.2000453293
C   C241      1.0  0.95328  0.70241  0.17865  1.0000 -0.0289094091
C   C242      1.0  0.98183  0.65620  0.16759  1.0000 -0.1178452656
C   C243      1.0  0.99187  0.65108  0.12800  1.0000 -0.1606372496
C   C244      1.0  0.97337  0.69270  0.09964  1.0000 -0.0289094091
C   C245      1.0  0.97687  0.70023  0.05692  1.0000 -0.0224474568
C   C246      1.0  0.00256  0.66936  0.02942  1.0000 -0.1424004227
C   C247      1.0  0.00248  0.69009  0.99075  1.0000 -0.1286011258
C   C248      1.0  0.97591  0.74095  0.97894  1.0000 -0.0289094091
C   C249      1.0  0.95063  0.77131  0.00666  1.0000 -0.1891686812
C   C250      1.0  0.95121  0.75066  0.04563  1.0000 0.1216537195
C   C251      1.0  0.94651  0.70810  0.22276  1.0000 0.5910246482
C   C252      1.0  0.97680  0.76172  0.93642  1.0000 0.5910246482
C   C253      1.0  0.45068  0.25329  0.08074  1.0000 0.1679288974
C   C254      1.0  0.46630  0.25355  0.04229  1.0000 -0.1795839498
C   C255      1.0  0.43954  0.29108  0.01326  1.0000 -0.0289094091
C   C256      1.0  0.39714  0.32838  0.02162  1.0000 -0.0937856505
C   C257      1.0  0.38058  0.32820  0.05962  1.0000 -0.2058533946
C   C258      1.0  0.40794  0.29048  0.08949  1.0000 -0.0289094091
C   C259      1.0  0.40337  0.28105  0.13148  1.0000 -0.0034024063
C   C260      1.0  0.36827  0.30267  0.15711  1.0000 -0.1795839498
C   C261      1.0  0.37691  0.28578  0.19800  1.0000 -0.1077163372
C   C262      1.0  0.42144  0.24805  0.21279  1.0000 -0.0289094091
C   C263      1.0  0.45729  0.22597  0.18730  1.0000 -0.1891686812
C   C264      1.0  0.44761  0.24272  0.14653  1.0000 0.1302751237
C   C265      1.0  0.45353  0.28863  0.97115  1.0000 0.5910246482
C   C266      1.0  0.43188  0.23174  0.25727  1.0000 0.5910246482
C   C267      1.0  0.66086  0.51250  0.84757  1.0000 0.1302751237
C   C268      1.0  0.61651  0.47204  0.84145  1.0000 -0.1891686812
C   C269      1.0  0.59233  0.45416  0.87437  1.0000 -0.0389310742
C   C270      1.0  0.61240  0.47565  0.91339  1.0000 -0.1009664664
C   C271      1.0  0.65694  0.51567  0.91935  1.0000 -0.1606372496
C   C272      1.0  0.68097  0.53445  0.88671  1.0000 -0.0115939678
C   C273      1.0  0.73001  0.57064  0.88299  1.0000 -0.0289094091
C   C274      1.0  0.76790  0.60467  0.90948  1.0000 -0.1533625716
C   C275      1.0  0.80970  0.63753  0.89539  1.0000 -0.1009664664
C   C276      1.0  0.81293  0.63697  0.85390  1.0000 -0.0115939678
C   C277      1.0  0.77424  0.60384  0.82682  1.0000 -0.2000453293
C   C278      1.0  0.73286  0.57035  0.84126  1.0000 0.1525797501
C   C279      1.0  0.54750  0.40765  0.86860  1.0000 0.5910246482
C   C280      1.0  0.85788  0.67234  0.83882  1.0000 0.5599443173
C   C281      1.0  0.69400  0.08110  0.84624  1.0000 0.137154806
C   C282      1.0  0.65043  0.11496  0.85722  1.0000 -0.1795839498
C   C283      1.0  0.63468  0.16395  0.83665  1.0000 -0.0389310742
C   C284      1.0  0.66328  0.18010  0.80488  1.0000 -0.1009664664
C   C285      1.0  0.70718  0.14681  0.79412  1.0000 -0.1727680298
C   C286      1.0  0.72278  0.09724  0.81482  1.0000 -0.0115939678
C   C287      1.0  0.76079  0.05246  0.81099  1.0000 -0.0389310742
C   C288      1.0  0.79824  0.04188  0.78325  1.0000 -0.1795839498
C   C289      1.0  0.83656  0.99657  0.78932  1.0000 -0.1178452656
C   C290      1.0  0.83739  0.96172  0.82239  1.0000 -0.0289094091
C   C291      1.0  0.79919  0.97228  0.84976  1.0000 -0.1891686812
C   C292      1.0  0.76166  0.01728  0.84387  1.0000 0.1302751237
C   C293      1.0  0.58720  0.20072  0.84802  1.0000 0.5910246482
C   C294      1.0  0.87900  0.91362  0.82656  1.0000 0.5910246482
C   C295      1.0  0.22786  0.48770  0.84154  1.0000 0.1525797501
C   C296      1.0  0.27866  0.45451  0.85127  1.0000 -0.1891686812
C   C297      1.0  0.27585  0.39901  0.84050  1.0000 -0.0289094091
C   C298      1.0  0.22185  0.37651  0.81992  1.0000 -0.1009664664
C   C299      1.0  0.17086  0.40942  0.81060  1.0000 -0.1424004227
C   C300      1.0  0.17391  0.46495  0.82150  1.0000 -0.0289094091
C   C301      1.0  0.13195  0.50984  0.81567  1.0000 -0.0289094091
C   C302      1.0  0.07121  0.51497  0.79796  1.0000 -0.1533625716
C   C303      1.0  0.04248  0.56518  0.79936  1.0000 -0.1009664664
C   C304      1.0  0.07399  0.61000  0.81825  1.0000 -0.0224474568
C   C305      1.0  0.13439  0.60505  0.83581  1.0000 -0.1891686812
C   C306      1.0  0.16324  0.55521  0.83472  1.0000 0.1302751237
C   C307      1.0  0.33055  0.36365  0.84969  1.0000 0.5972775077
C   C308      1.0  0.04098  0.66290  0.82163  1.0000 0.5910246482
C   C309      1.0  0.26554  0.04841  0.85795  1.0000 0.137154806
C   C310      1.0  0.29528  0.09720  0.85477  1.0000 -0.2000453293
C   C311      1.0  0.35378  0.10456  0.87740  1.0000 -0.0289094091
C   C312      1.0  0.38059  0.06319  0.90300  1.0000 -0.1009664664
C   C313      1.0  0.35053  0.01454  0.90630  1.0000 -0.1286011258
C   C314      1.0  0.29273  0.00674  0.88409  1.0000 -0.0389310742
C   C315      1.0  0.24775  0.96327  0.88120  1.0000 -0.0289094091
C   C316      1.0  0.24554  0.91305  0.90049  1.0000 -0.1424004227
C   C317      1.0  0.19393  0.88060  0.89110  1.0000 -0.1009664664
C   C318      1.0  0.14495  0.89790  0.86186  1.0000 -0.0473235914
C   C319      1.0  0.14737  0.94841  0.84243  1.0000 -0.1795839498
C   C320      1.0  0.19873  0.98074  0.85199  1.0000 0.1216537195
C   C321      1.0  0.38711  0.15690  0.87516  1.0000 0.5910246482
C   C322      1.0  0.09104  0.86208  0.85031  1.0000 0.5910246482
C   C323      1.0  0.94463  0.76090  0.61087  1.0000 0.1525797501
C   C324      1.0  0.93388  0.75623  0.65022  1.0000 -0.2000453293
C   C325      1.0  0.95328  0.79759  0.67865  1.0000 -0.0289094091
C   C326      1.0  0.98183  0.84380  0.66759  1.0000 -0.1077163372
C   C327      1.0  0.99187  0.84892  0.62800  1.0000 -0.1606372496
C   C328      1.0  0.97337  0.80730  0.59964  1.0000 -0.0289094091
C   C329      1.0  0.97687  0.79977  0.55692  1.0000 -0.0224474568
C   C330      1.0  0.00256  0.83064  0.52942  1.0000 -0.1424004227
C   C331      1.0  0.00248  0.80991  0.49075  1.0000 -0.1286011258
C   C332      1.0  0.97591  0.75905  0.47894  1.0000 -0.0289094091
C   C333      1.0  0.95063  0.72869  0.50666  1.0000 -0.1891686812
C   C334      1.0  0.95121  0.74934  0.54563  1.0000 0.1216537195
C   C335      1.0  0.94651  0.79190  0.72276  1.0000 0.5910246482
C   C336      1.0  0.97680  0.73828  0.43642  1.0000 0.5910246482
N   N1        1.0  0.52417  0.77584  0.88472  1.0000 -0.298822614
N   N2        1.0  0.30962  0.46491  0.18097  1.0000 -0.292775243
N   N3        1.0  0.27915  0.96599  0.13324  1.0000 -0.3231005813
N   N4        1.0  0.77804  0.45958  0.15080  1.0000 -0.2729844371
N   N5        1.0  0.79104  0.96693  0.16137  1.0000 -0.292775243
N   N6        1.0  0.07181  0.27317  0.42245  1.0000 -0.298822614
N   N7        1.0  0.52417  0.72416  0.38472  1.0000 -0.298822614
N   N8        1.0  0.30962  0.03509  0.68097  1.0000 -0.292775243
N   N9        1.0  0.27915  0.53401  0.63324  1.0000 -0.3267564917
N   N10       1.0  0.77804  0.04042  0.65080  1.0000 -0.2729844371
N   N11       1.0  0.79104  0.53307  0.66137  1.0000 -0.298822614
N   N12       1.0  0.07181  0.22683  0.92245  1.0000 -0.298822614
N   N13       1.0  0.47583  0.27584  0.61528  1.0000 -0.298822614
N   N14       1.0  0.69038  0.96491  0.31903  1.0000 -0.292775243
N   N15       1.0  0.72085  0.46599  0.36676  1.0000 -0.3231005813
N   N16       1.0  0.22196  0.95958  0.34920  1.0000 -0.2729844371
N   N17       1.0  0.20896  0.46693  0.33863  1.0000 -0.298822614
N   N18       1.0  0.92819  0.77317  0.07755  1.0000 -0.298822614
N   N19       1.0  0.47583  0.22416  0.11528  1.0000 -0.298822614
N   N20       1.0  0.69038  0.53509  0.81903  1.0000 -0.292775243
N   N21       1.0  0.72085  0.03401  0.86676  1.0000 -0.3267564917
N   N22       1.0  0.22196  0.54042  0.84920  1.0000 -0.2729844371
N   N23       1.0  0.20896  0.03307  0.83863  1.0000 -0.292775243
N   N24       1.0  0.92819  0.72683  0.57755  1.0000 -0.298822614
O   O1        1.0  0.50892  0.74460  0.03523  1.0000 -0.5489056291
O   O2        1.0  0.57476  0.67629  0.05379  1.0000 -0.529139587
O   O3        1.0  0.60677  0.75130  0.72346  1.0000 -0.5489056291
O   O4        1.0  0.52300  0.79663  0.72727  1.0000 -0.4996715049
O   O5        1.0  0.48522  0.59421  0.10446  1.0000 -0.5489056291
O   O6        1.0  0.45602  0.62217  0.16198  1.0000 -0.5209135557
O   O7        1.0  0.11338  0.29469  0.13590  1.0000 -0.529139587
O   O8        1.0  0.13575  0.33071  0.19616  1.0000 -0.4827232728
O   O9        1.0  0.43763  0.81476  0.12374  1.0000 -0.5700890565
O   O10       1.0  0.42047  0.75606  0.17305  1.0000 -0.529139587
O   O11       1.0  0.12112  0.11875  0.14458  1.0000 -0.5371146601
O   O12       1.0  0.08563  0.08914  0.19786  1.0000 -0.5489056291
O   O13       1.0  0.62199  0.61687  0.12894  1.0000 -0.4996715049
O   O14       1.0  0.67365  0.68410  0.16542  1.0000 -0.529139587
O   O15       1.0  0.00932  0.33024  0.20149  1.0000 -0.4996715049
O   O16       1.0  0.93398  0.30255  0.15277  1.0000 -0.492215983
O   O17       1.0  0.56060  0.84179  0.10453  1.0000 -0.492215983
O   O18       1.0  0.64232  0.80893  0.14862  1.0000 -0.4996715049
O   O19       1.0  0.90914  0.18181  0.12958  1.0000 -0.513682992
O   O20       1.0  0.95108  0.12098  0.17682  1.0000 -0.4996715049
O   O21       1.0  0.03366  0.16667  0.25535  1.0000 -0.5371146601
O   O22       1.0  0.07465  0.25001  0.26564  1.0000 -0.5209135557
O   O23       1.0  0.98307  0.24335  0.57877  1.0000 -0.513682992
O   O24       1.0  0.06254  0.29673  0.57893  1.0000 -0.529139587
O   O25       1.0  0.53317  0.71810  0.13290  1.0000 -1.0210463548
O   O26       1.0  0.04500  0.21583  0.16985  1.0000 -1.0094868088
O   O27       1.0  0.50892  0.75540  0.53523  1.0000 -0.5489056291
O   O28       1.0  0.57476  0.82371  0.55379  1.0000 -0.529139587
O   O29       1.0  0.60677  0.74870  0.22346  1.0000 -0.5489056291
O   O30       1.0  0.52300  0.70337  0.22727  1.0000 -0.4996715049
O   O31       1.0  0.48522  0.90579  0.60446  1.0000 -0.5489056291
O   O32       1.0  0.45602  0.87783  0.66198  1.0000 -0.5209135557
O   O33       1.0  0.11338  0.20531  0.63590  1.0000 -0.529139587
O   O34       1.0  0.13575  0.16929  0.69616  1.0000 -0.4827232728
O   O35       1.0  0.43763  0.68524  0.62374  1.0000 -0.5700890565
O   O36       1.0  0.42047  0.74394  0.67305  1.0000 -0.5371146601
O   O37       1.0  0.12112  0.38125  0.64458  1.0000 -0.5371146601
O   O38       1.0  0.08563  0.41086  0.69786  1.0000 -0.5489056291
O   O39       1.0  0.62199  0.88313  0.62894  1.0000 -0.4996715049
O   O40       1.0  0.67365  0.81590  0.66542  1.0000 -0.529139587
O   O41       1.0  0.00932  0.16976  0.70149  1.0000 -0.4996715049
O   O42       1.0  0.93398  0.19745  0.65277  1.0000 -0.492215983
O   O43       1.0  0.56060  0.65821  0.60453  1.0000 -0.492215983
O   O44       1.0  0.64232  0.69107  0.64862  1.0000 -0.4996715049
O   O45       1.0  0.90914  0.31819  0.62958  1.0000 -0.513682992
O   O46       1.0  0.95108  0.37902  0.67682  1.0000 -0.4996715049
O   O47       1.0  0.03366  0.33333  0.75535  1.0000 -0.529139587
O   O48       1.0  0.07465  0.24999  0.76564  1.0000 -0.513682992
O   O49       1.0  0.98307  0.25665  0.07877  1.0000 -0.513682992
O   O50       1.0  0.06254  0.20327  0.07893  1.0000 -0.529139587
O   O51       1.0  0.53317  0.78190  0.63290  1.0000 -1.0210463548
O   O52       1.0  0.04500  0.28417  0.66985  1.0000 -1.0094868088
O   O53       1.0  0.49108  0.24460  0.46477  1.0000 -0.5489056291
O   O54       1.0  0.42524  0.17629  0.44621  1.0000 -0.529139587
O   O55       1.0  0.39323  0.25130  0.77654  1.0000 -0.5489056291
O   O56       1.0  0.47700  0.29663  0.77273  1.0000 -0.4996715049
O   O57       1.0  0.51478  0.09421  0.39554  1.0000 -0.5489056291
O   O58       1.0  0.54398  0.12217  0.33802  1.0000 -0.5209135557
O   O59       1.0  0.88662  0.79469  0.36410  1.0000 -0.529139587
O   O60       1.0  0.86425  0.83071  0.30384  1.0000 -0.4827232728
O   O61       1.0  0.56237  0.31476  0.37626  1.0000 -0.5700890565
O   O62       1.0  0.57953  0.25606  0.32695  1.0000 -0.529139587
O   O63       1.0  0.87888  0.61875  0.35542  1.0000 -0.5371146601
O   O64       1.0  0.91437  0.58914  0.30214  1.0000 -0.5489056291
O   O65       1.0  0.37801  0.11687  0.37106  1.0000 -0.4996715049
O   O66       1.0  0.32635  0.18410  0.33458  1.0000 -0.529139587
O   O67       1.0  0.99068  0.83024  0.29851  1.0000 -0.4996715049
O   O68       1.0  0.06602  0.80255  0.34723  1.0000 -0.492215983
O   O69       1.0  0.43940  0.34179  0.39547  1.0000 -0.492215983
O   O70       1.0  0.35768  0.30893  0.35138  1.0000 -0.4996715049
O   O71       1.0  0.09086  0.68181  0.37042  1.0000 -0.513682992
O   O72       1.0  0.04892  0.62098  0.32318  1.0000 -0.4996715049
O   O73       1.0  0.96634  0.66667  0.24465  1.0000 -0.529139587
O   O74       1.0  0.92535  0.75001  0.23436  1.0000 -0.513682992
O   O75       1.0  0.01693  0.74335  0.92123  1.0000 -0.513682992
O   O76       1.0  0.93746  0.79673  0.92107  1.0000 -0.529139587
O   O77       1.0  0.46683  0.21810  0.36710  1.0000 -1.0210463548
O   O78       1.0  0.95500  0.71583  0.33015  1.0000 -1.0094868088
O   O79       1.0  0.49108  0.25540  0.96477  1.0000 -0.5489056291
O   O80       1.0  0.42524  0.32371  0.94621  1.0000 -0.529139587
O   O81       1.0  0.39323  0.24870  0.27654  1.0000 -0.5489056291
O   O82       1.0  0.47700  0.20337  0.27273  1.0000 -0.4996715049
O   O83       1.0  0.51478  0.40579  0.89554  1.0000 -0.5489056291
O   O84       1.0  0.54398  0.37783  0.83802  1.0000 -0.5209135557
O   O85       1.0  0.88662  0.70531  0.86410  1.0000 -0.529139587
O   O86       1.0  0.86425  0.66929  0.80384  1.0000 -0.4827232728
O   O87       1.0  0.56237  0.18524  0.87626  1.0000 -0.5700890565
O   O88       1.0  0.57953  0.24394  0.82695  1.0000 -0.529139587
O   O89       1.0  0.87888  0.88125  0.85542  1.0000 -0.5371146601
O   O90       1.0  0.91437  0.91086  0.80214  1.0000 -0.5489056291
O   O91       1.0  0.37801  0.38313  0.87106  1.0000 -0.4996715049
O   O92       1.0  0.32635  0.31590  0.83458  1.0000 -0.529139587
O   O93       1.0  0.99068  0.66976  0.79851  1.0000 -0.4996715049
O   O94       1.0  0.06602  0.69745  0.84723  1.0000 -0.492215983
O   O95       1.0  0.43940  0.15821  0.89547  1.0000 -0.492215983
O   O96       1.0  0.35768  0.19107  0.85138  1.0000 -0.4996715049
O   O97       1.0  0.09086  0.81819  0.87042  1.0000 -0.513682992
O   O98       1.0  0.04892  0.87902  0.82318  1.0000 -0.4996715049
O   O99       1.0  0.96634  0.83333  0.74465  1.0000 -0.5371146601
O   O100      1.0  0.92535  0.74999  0.73436  1.0000 -0.513682992
O   O101      1.0  0.01693  0.75665  0.42123  1.0000 -0.513682992
O   O102      1.0  0.93746  0.70327  0.42107  1.0000 -0.529139587
O   O103      1.0  0.46683  0.28190  0.86710  1.0000 -1.0210463548
O   O104      1.0  0.95500  0.78417  0.83015  1.0000 -1.0094868088
