# DDEC6 charges by PACMAN v1.1 (https://github.com/mtap-research/PACMAN-charge/)
data_2021[Al][nan]3[ASR]11
_chemical_formula_sum              "Al8 H24 C40 N16 O40"
_cell_length_a       12.31
_cell_length_b       14.8855
_cell_length_c       13.9439
_cell_angle_alpha    90
_cell_angle_beta     102.331
_cell_angle_gamma    90

_symmetry_space_group_name_H-M    "P 1"
_symmetry_Int_Tables_number       1

loop_
  _symmetry_equiv_pos_as_xyz
  'x, y, z'

loop_
  _atom_site_type_symbol
  _atom_site_label
  _atom_site_symmetry_multiplicity
  _atom_site_fract_x
  _atom_site_fract_y
  _atom_site_fract_z
  _atom_site_occupancy
  _atom_site_charge
Al  Al1       1.0  0.23562  0.56030  0.44008  1.0000 1.614633802
Al  Al2       1.0  0.76438  0.06030  0.05992  1.0000 1.614633802
Al  Al3       1.0  0.76438  0.43970  0.55992  1.0000 1.614633802
Al  Al4       1.0  0.23562  0.93970  0.94008  1.0000 1.614633802
Al  Al5       1.0  0.50000  0.50000  0.50000  1.0000 1.6315380666
Al  Al6       1.0  0.50000  0.00000  0.00000  1.0000 1.6315380666
Al  Al7       1.0  0.00000  0.50000  0.50000  1.0000 1.6315380666
Al  Al8       1.0  0.00000  0.00000  0.00000  1.0000 1.6315380666
H   H1        1.0  0.32906  0.42412  0.50048  1.0000 0.4288077164
H   H2        1.0  0.18891  0.51153  0.59076  1.0000 0.4288077164
H   H3        1.0  0.71452  0.27392  0.81614  1.0000 0.1724410239
H   H4        1.0  0.40997  0.25802  0.85666  1.0000 0.2818052579
H   H5        1.0  0.08279  0.79166  0.25098  1.0000 0.1724410239
H   H6        1.0  0.78815  0.86897  0.28214  1.0000 0.2818052579
H   H7        1.0  0.67094  0.92412  0.99952  1.0000 0.4288077164
H   H8        1.0  0.81109  0.01153  0.90924  1.0000 0.4288077164
H   H9        1.0  0.28548  0.77392  0.68386  1.0000 0.1724410239
H   H10       1.0  0.59003  0.75802  0.64334  1.0000 0.2818052579
H   H11       1.0  0.91721  0.29166  0.24902  1.0000 0.1724410239
H   H12       1.0  0.21185  0.36897  0.21786  1.0000 0.2818052579
H   H13       1.0  0.67094  0.57588  0.49952  1.0000 0.4288077164
H   H14       1.0  0.81109  0.48847  0.40924  1.0000 0.4288077164
H   H15       1.0  0.28548  0.72608  0.18386  1.0000 0.1724410239
H   H16       1.0  0.59003  0.74198  0.14334  1.0000 0.2818052579
H   H17       1.0  0.91721  0.20834  0.74902  1.0000 0.1724410239
H   H18       1.0  0.21185  0.13103  0.71786  1.0000 0.2818052579
H   H19       1.0  0.32906  0.07588  0.00048  1.0000 0.4288077164
H   H20       1.0  0.18891  0.98847  0.09076  1.0000 0.4288077164
H   H21       1.0  0.71452  0.22608  0.31614  1.0000 0.1724410239
H   H22       1.0  0.40997  0.24198  0.35666  1.0000 0.2818052579
H   H23       1.0  0.08279  0.70834  0.75098  1.0000 0.1724410239
H   H24       1.0  0.78815  0.63103  0.78214  1.0000 0.2818052579
C   C1        1.0  0.59390  0.40017  0.67317  1.0000 0.6175964881
C   C2        1.0  0.56860  0.34280  0.75191  1.0000 0.0278357346
C   C3        1.0  0.02850  0.66072  0.38896  1.0000 0.6175964881
C   C4        1.0  0.63810  0.28296  0.81188  1.0000 -0.2298085191
C   C5        1.0  0.97510  0.74051  0.33661  1.0000 0.0278357346
C   C6        1.0  0.57020  0.23964  0.86392  1.0000 0.0278357346
C   C7        1.0  0.01440  0.79582  0.27049  1.0000 -0.2298085191
C   C8        1.0  0.59440  0.16433  0.93326  1.0000 0.6003976274
C   C9        1.0  0.93150  0.85742  0.24036  1.0000 0.0145624965
C   C10       1.0  0.91859  0.92978  0.16713  1.0000 0.6003976274
C   C11       1.0  0.40610  0.90017  0.82683  1.0000 0.6175964881
C   C12       1.0  0.43140  0.84280  0.74809  1.0000 0.0278357346
C   C13       1.0  0.97150  0.16072  0.11104  1.0000 0.6175964881
C   C14       1.0  0.36190  0.78296  0.68812  1.0000 -0.2298085191
C   C15       1.0  0.02490  0.24051  0.16339  1.0000 0.0278357346
C   C16       1.0  0.42980  0.73964  0.63608  1.0000 0.0278357346
C   C17       1.0  0.98560  0.29582  0.22951  1.0000 -0.2298085191
C   C18       1.0  0.40560  0.66433  0.56674  1.0000 0.6003976274
C   C19       1.0  0.06850  0.35742  0.25964  1.0000 0.0145624965
C   C20       1.0  0.08141  0.42978  0.33287  1.0000 0.6003976274
C   C21       1.0  0.40610  0.59983  0.32683  1.0000 0.6175964881
C   C22       1.0  0.43140  0.65720  0.24809  1.0000 0.0278357346
C   C23       1.0  0.97150  0.33928  0.61104  1.0000 0.6175964881
C   C24       1.0  0.36190  0.71704  0.18812  1.0000 -0.2298085191
C   C25       1.0  0.02490  0.25949  0.66339  1.0000 0.0278357346
C   C26       1.0  0.42980  0.76036  0.13608  1.0000 0.0278357346
C   C27       1.0  0.98560  0.20418  0.72951  1.0000 -0.2298085191
C   C28       1.0  0.40560  0.83567  0.06674  1.0000 0.6003976274
C   C29       1.0  0.06850  0.14258  0.75964  1.0000 0.0145624965
C   C30       1.0  0.08141  0.07022  0.83287  1.0000 0.6003976274
C   C31       1.0  0.59390  0.09983  0.17317  1.0000 0.6175964881
C   C32       1.0  0.56860  0.15720  0.25191  1.0000 0.0278357346
C   C33       1.0  0.02850  0.83928  0.88896  1.0000 0.6175964881
C   C34       1.0  0.63810  0.21704  0.31188  1.0000 -0.2298085191
C   C35       1.0  0.97510  0.75949  0.83661  1.0000 0.0278357346
C   C36       1.0  0.57020  0.26036  0.36392  1.0000 0.0278357346
C   C37       1.0  0.01440  0.70418  0.77049  1.0000 -0.2298085191
C   C38       1.0  0.59440  0.33567  0.43326  1.0000 0.6003976274
C   C39       1.0  0.93150  0.64258  0.74036  1.0000 0.0145624965
C   C40       1.0  0.91859  0.57022  0.66713  1.0000 0.6003976274
N   N1        1.0  0.46412  0.33914  0.76642  1.0000 -0.1914710202
N   N2        1.0  0.46745  0.27500  0.83424  1.0000 -0.0603256187
N   N3        1.0  0.87376  0.76687  0.34675  1.0000 -0.1914710202
N   N4        1.0  0.84941  0.83825  0.28854  1.0000 -0.0603256187
N   N5        1.0  0.53588  0.83914  0.73358  1.0000 -0.1914710202
N   N6        1.0  0.53255  0.77500  0.66576  1.0000 -0.0603256187
N   N7        1.0  0.12624  0.26687  0.15325  1.0000 -0.1914710202
N   N8        1.0  0.15059  0.33825  0.21146  1.0000 -0.0603256187
N   N9        1.0  0.53588  0.66086  0.23358  1.0000 -0.1914710202
N   N10       1.0  0.53255  0.72500  0.16576  1.0000 -0.0603256187
N   N11       1.0  0.12624  0.23313  0.65325  1.0000 -0.1914710202
N   N12       1.0  0.15059  0.16175  0.71146  1.0000 -0.0603256187
N   N13       1.0  0.46412  0.16086  0.26642  1.0000 -0.1914710202
N   N14       1.0  0.46745  0.22500  0.33424  1.0000 -0.0603256187
N   N15       1.0  0.87376  0.73313  0.84675  1.0000 -0.1914710202
N   N16       1.0  0.84941  0.66175  0.78854  1.0000 -0.0544463959
O   O1        1.0  0.35022  0.48179  0.48394  1.0000 -1.0134879913
O   O2        1.0  0.51815  0.45076  0.62819  1.0000 -0.5702901971
O   O3        1.0  0.48731  0.61919  0.55262  1.0000 -0.5887276422
O   O4        1.0  0.15060  0.52155  0.52576  1.0000 -1.0186631944
O   O5        1.0  0.16772  0.47758  0.34125  1.0000 -0.5887276422
O   O6        1.0  0.31067  0.60867  0.34386  1.0000 -0.5633719828
O   O7        1.0  0.12878  0.64925  0.38606  1.0000 -0.5633719828
O   O8        1.0  0.30505  0.65134  0.52936  1.0000 -0.553833228
O   O9        1.0  0.00722  0.43716  0.38167  1.0000 -0.553833228
O   O10       1.0  0.96968  0.61067  0.42962  1.0000 -0.5702901971
O   O11       1.0  0.64978  0.98179  0.01606  1.0000 -1.0134879913
O   O12       1.0  0.48185  0.95076  0.87181  1.0000 -0.5702901971
O   O13       1.0  0.51269  0.11919  0.94738  1.0000 -0.5887276422
O   O14       1.0  0.84940  0.02155  0.97424  1.0000 -1.0186631944
O   O15       1.0  0.83228  0.97758  0.15875  1.0000 -0.5887276422
O   O16       1.0  0.68933  0.10867  0.15614  1.0000 -0.5633719828
O   O17       1.0  0.87122  0.14925  0.11394  1.0000 -0.5633719828
O   O18       1.0  0.69495  0.15134  0.97064  1.0000 -0.553833228
O   O19       1.0  0.99278  0.93716  0.11833  1.0000 -0.553833228
O   O20       1.0  0.03032  0.11067  0.07038  1.0000 -0.5702901971
O   O21       1.0  0.64978  0.51821  0.51606  1.0000 -1.0134879913
O   O22       1.0  0.48185  0.54924  0.37181  1.0000 -0.5702901971
O   O23       1.0  0.51269  0.38081  0.44738  1.0000 -0.5887276422
O   O24       1.0  0.84940  0.47845  0.47424  1.0000 -1.0186631944
O   O25       1.0  0.83228  0.52242  0.65875  1.0000 -0.5887276422
O   O26       1.0  0.68933  0.39133  0.65614  1.0000 -0.5633719828
O   O27       1.0  0.87122  0.35075  0.61394  1.0000 -0.5633719828
O   O28       1.0  0.69495  0.34866  0.47064  1.0000 -0.553833228
O   O29       1.0  0.99278  0.56284  0.61833  1.0000 -0.553833228
O   O30       1.0  0.03032  0.38933  0.57038  1.0000 -0.5702901971
O   O31       1.0  0.35022  0.01821  0.98394  1.0000 -1.0134879913
O   O32       1.0  0.51815  0.04924  0.12819  1.0000 -0.5702901971
O   O33       1.0  0.48731  0.88081  0.05262  1.0000 -0.5887276422
O   O34       1.0  0.15060  0.97845  0.02576  1.0000 -1.0186631944
O   O35       1.0  0.16772  0.02242  0.84125  1.0000 -0.5887276422
O   O36       1.0  0.31067  0.89133  0.84386  1.0000 -0.5633719828
O   O37       1.0  0.12878  0.85075  0.88606  1.0000 -0.5633719828
O   O38       1.0  0.30505  0.84866  0.02936  1.0000 -0.553833228
O   O39       1.0  0.00722  0.06284  0.88167  1.0000 -0.553833228
O   O40       1.0  0.96968  0.88933  0.92962  1.0000 -0.5702901971
