# DDEC6 charges by PACMAN v1.1 (https://github.com/mtap-research/PACMAN-charge/)
data_2021[Al][nan]3[ASR]24
_chemical_formula_sum              "Al24 H248 C432 O112"
_cell_length_a       18.3942
_cell_length_b       34.5751
_cell_length_c       45.8595
_cell_angle_alpha    90
_cell_angle_beta     90
_cell_angle_gamma    90

_symmetry_space_group_name_H-M    "P 1"
_symmetry_Int_Tables_number       1

loop_
  _symmetry_equiv_pos_as_xyz
  'x, y, z'

loop_
  _atom_site_type_symbol
  _atom_site_label
  _atom_site_symmetry_multiplicity
  _atom_site_fract_x
  _atom_site_fract_y
  _atom_site_fract_z
  _atom_site_occupancy
  _atom_site_charge
Al  Al1       1.0  0.53980  0.48775  0.46333  1.0000 1.6157882784
Al  Al2       1.0  0.96831  0.31136  0.67987  1.0000 1.63709195
Al  Al3       1.0  0.42871  0.53953  0.42735  1.0000 1.6326875541
Al  Al4       1.0  0.91787  0.28541  0.74368  1.0000 1.6326875541
Al  Al5       1.0  0.47606  0.56357  0.49191  1.0000 1.6326875541
Al  Al6       1.0  0.03505  0.23656  0.70895  1.0000 1.614491329
Al  Al7       1.0  0.46020  0.51225  0.96333  1.0000 1.6157882784
Al  Al8       1.0  0.03169  0.68864  0.17987  1.0000 1.63709195
Al  Al9       1.0  0.57129  0.46047  0.92735  1.0000 1.6326875541
Al  Al10      1.0  0.08213  0.71459  0.24368  1.0000 1.6326875541
Al  Al11      1.0  0.52394  0.43643  0.99191  1.0000 1.6326875541
Al  Al12      1.0  0.96495  0.76344  0.20895  1.0000 1.614491329
Al  Al13      1.0  0.46020  0.98775  0.46333  1.0000 1.6157882784
Al  Al14      1.0  0.03169  0.81136  0.67987  1.0000 1.63709195
Al  Al15      1.0  0.57129  0.03953  0.42735  1.0000 1.6326875541
Al  Al16      1.0  0.08213  0.78541  0.74368  1.0000 1.6326875541
Al  Al17      1.0  0.52394  0.06357  0.49191  1.0000 1.6326875541
Al  Al18      1.0  0.96495  0.73656  0.70895  1.0000 1.614491329
Al  Al19      1.0  0.53980  0.01225  0.96333  1.0000 1.6157882784
Al  Al20      1.0  0.96831  0.18864  0.17987  1.0000 1.63709195
Al  Al21      1.0  0.42871  0.96047  0.92735  1.0000 1.6326875541
Al  Al22      1.0  0.91787  0.21459  0.24368  1.0000 1.6326875541
Al  Al23      1.0  0.47606  0.93643  0.99191  1.0000 1.6326875541
Al  Al24      1.0  0.03505  0.26344  0.20895  1.0000 1.6157882784
H   H1        1.0  0.13636  0.19517  0.71604  1.0000 0.4189738614
H   H2        1.0  0.63639  0.44697  0.47613  1.0000 0.4189738614
H   H3        1.0  0.02307  0.08350  0.48043  1.0000 0.1117740793
H   H4        1.0  0.98486  0.62389  0.28481  1.0000 0.1280490702
H   H5        1.0  0.79594  0.06893  0.43938  1.0000 0.1280490702
H   H6        1.0  0.25504  0.26885  0.69625  1.0000 0.1280490702
H   H7        1.0  0.76524  0.32298  0.64552  1.0000 0.1280490702
H   H8        1.0  0.59186  0.89032  0.46454  1.0000 0.1280490702
H   H9        1.0  0.40412  0.50341  0.57060  1.0000 0.1280490702
H   H10       1.0  0.55451  0.67142  0.46993  1.0000 0.1211635328
H   H11       1.0  0.62020  0.72320  0.45145  1.0000 0.1117740793
H   H12       1.0  0.64111  0.83009  0.45021  1.0000 0.1117740793
H   H13       1.0  0.15823  0.36857  0.67304  1.0000 0.1211635328
H   H14       1.0  0.36066  0.39869  0.63183  1.0000 0.1117740793
H   H15       1.0  0.93388  0.25582  0.59451  1.0000 0.1280490702
H   H16       1.0  0.65325  0.34565  0.63192  1.0000 0.1117740793
H   H17       1.0  0.66691  0.93762  0.38993  1.0000 0.1280490702
H   H18       1.0  0.12950  0.14919  0.53973  1.0000 0.1117740793
H   H19       1.0  0.69451  0.31389  0.72901  1.0000 0.1280490702
H   H20       1.0  0.86227  0.80153  0.28114  1.0000 0.1280490702
H   H21       1.0  0.36862  0.29383  0.68398  1.0000 0.1117740793
H   H22       1.0  0.08465  0.18603  0.63321  1.0000 0.1280490702
H   H23       1.0  0.93456  0.70229  0.31732  1.0000 0.1280490702
H   H24       1.0  0.23611  0.01661  0.47898  1.0000 0.1280490702
H   H25       1.0  0.91114  0.08939  0.45375  1.0000 0.1211635328
H   H26       1.0  0.96322  0.58204  0.20240  1.0000 0.1211635328
H   H27       1.0  0.66304  0.54586  0.31799  1.0000 0.1117740793
H   H28       1.0  0.22131  0.14562  0.50926  1.0000 0.1117740793
H   H29       1.0  0.58215  0.33782  0.71488  1.0000 0.1117740793
H   H30       1.0  0.88832  0.47487  0.24581  1.0000 0.1117740793
H   H31       1.0  0.90741  0.36436  0.20501  1.0000 0.1280490702
H   H32       1.0  0.33441  0.11675  0.50321  1.0000 0.1280490702
H   H33       1.0  0.27250  0.39568  0.66309  1.0000 0.1117740793
H   H34       1.0  0.57962  0.55322  0.35626  1.0000 0.1211635328
H   H35       1.0  0.91443  0.57331  0.30212  1.0000 0.1117740793
H   H36       1.0  0.73148  0.44506  0.35242  1.0000 0.1117740793
H   H37       1.0  0.12342  0.04571  0.48622  1.0000 0.1117740793
H   H38       1.0  0.76521  0.82400  0.36776  1.0000 0.1117740793
H   H39       1.0  0.56164  0.43209  0.53919  1.0000 0.1280490702
H   H40       1.0  0.72480  0.70912  0.36844  1.0000 0.1117740793
H   H41       1.0  0.65115  0.45184  0.39049  1.0000 0.1280490702
H   H42       1.0  0.70377  0.87799  0.37376  1.0000 0.1117740793
H   H43       1.0  0.39383  0.46315  0.61158  1.0000 0.1117740793
H   H44       1.0  0.46758  0.33189  0.68935  1.0000 0.1117740793
H   H45       1.0  0.58093  0.39526  0.63080  1.0000 0.1117740793
H   H46       1.0  0.72451  0.08287  0.52219  1.0000 0.1280490702
H   H47       1.0  0.94018  0.21807  0.55342  1.0000 0.1117740793
H   H48       1.0  0.83886  0.10374  0.53608  1.0000 0.1117740793
H   H49       1.0  0.91188  0.15381  0.53446  1.0000 0.1117740793
H   H50       1.0  0.82644  0.31631  0.27744  1.0000 0.1280490702
H   H51       1.0  0.85501  0.71017  0.35633  1.0000 0.1211635328
H   H52       1.0  0.52837  0.62951  0.38822  1.0000 0.1280490702
H   H53       1.0  0.61446  0.78040  0.42326  1.0000 0.1117740793
H   H54       1.0  0.79232  0.54577  0.30467  1.0000 0.1117740793
H   H55       1.0  0.77823  0.80912  0.31897  1.0000 0.1117740793
H   H56       1.0  0.89030  0.53129  0.22080  1.0000 0.1117740793
H   H57       1.0  0.55766  0.39684  0.58193  1.0000 0.1117740793
H   H58       1.0  0.79944  0.37795  0.29647  1.0000 0.1117740793
H   H59       1.0  0.73687  0.43276  0.30059  1.0000 0.1117740793
H   H60       1.0  0.60230  0.67884  0.36954  1.0000 0.1117740793
H   H61       1.0  0.09447  0.15176  0.58982  1.0000 0.1117740793
H   H62       1.0  0.86442  0.42427  0.22053  1.0000 0.1117740793
H   H63       1.0  0.86364  0.80483  0.21604  1.0000 0.4189738614
H   H64       1.0  0.36361  0.55303  0.97613  1.0000 0.4189738614
H   H65       1.0  0.97693  0.91650  0.98043  1.0000 0.1117740793
H   H66       1.0  0.01514  0.37611  0.78481  1.0000 0.1280490702
H   H67       1.0  0.20406  0.93107  0.93938  1.0000 0.1280490702
H   H68       1.0  0.74496  0.73115  0.19625  1.0000 0.1280490702
H   H69       1.0  0.23476  0.67702  0.14552  1.0000 0.1280490702
H   H70       1.0  0.40814  0.10968  0.96454  1.0000 0.1280490702
H   H71       1.0  0.59588  0.49659  0.07060  1.0000 0.1280490702
H   H72       1.0  0.44549  0.32858  0.96993  1.0000 0.1211635328
H   H73       1.0  0.37980  0.27680  0.95145  1.0000 0.1117740793
H   H74       1.0  0.35889  0.16991  0.95021  1.0000 0.1117740793
H   H75       1.0  0.84177  0.63143  0.17304  1.0000 0.1211635328
H   H76       1.0  0.63934  0.60131  0.13183  1.0000 0.1117740793
H   H77       1.0  0.06612  0.74418  0.09451  1.0000 0.1280490702
H   H78       1.0  0.34675  0.65435  0.13192  1.0000 0.1117740793
H   H79       1.0  0.33309  0.06238  0.88993  1.0000 0.1280490702
H   H80       1.0  0.87050  0.85081  0.03973  1.0000 0.1117740793
H   H81       1.0  0.30549  0.68611  0.22901  1.0000 0.1280490702
H   H82       1.0  0.13773  0.19847  0.78114  1.0000 0.1280490702
H   H83       1.0  0.63138  0.70617  0.18398  1.0000 0.1117740793
H   H84       1.0  0.91535  0.81397  0.13321  1.0000 0.1280490702
H   H85       1.0  0.06544  0.29771  0.81732  1.0000 0.1280490702
H   H86       1.0  0.76389  0.98339  0.97898  1.0000 0.1280490702
H   H87       1.0  0.08886  0.91061  0.95375  1.0000 0.1117740793
H   H88       1.0  0.03678  0.41796  0.70240  1.0000 0.1211635328
H   H89       1.0  0.33696  0.45414  0.81799  1.0000 0.1117740793
H   H90       1.0  0.77869  0.85438  0.00926  1.0000 0.1117740793
H   H91       1.0  0.41785  0.66218  0.21488  1.0000 0.1117740793
H   H92       1.0  0.11168  0.52513  0.74581  1.0000 0.1117740793
H   H93       1.0  0.09259  0.63564  0.70501  1.0000 0.1280490702
H   H94       1.0  0.66559  0.88325  0.00321  1.0000 0.1280490702
H   H95       1.0  0.72750  0.60432  0.16309  1.0000 0.1117740793
H   H96       1.0  0.42038  0.44678  0.85626  1.0000 0.1211635328
H   H97       1.0  0.08557  0.42669  0.80212  1.0000 0.1117740793
H   H98       1.0  0.26852  0.55494  0.85242  1.0000 0.1117740793
H   H99       1.0  0.87658  0.95429  0.98622  1.0000 0.1117740793
H   H100      1.0  0.23479  0.17600  0.86776  1.0000 0.1117740793
H   H101      1.0  0.43836  0.56791  0.03919  1.0000 0.1280490702
H   H102      1.0  0.27520  0.29088  0.86844  1.0000 0.1117740793
H   H103      1.0  0.34885  0.54816  0.89049  1.0000 0.1280490702
H   H104      1.0  0.29623  0.12201  0.87376  1.0000 0.1117740793
H   H105      1.0  0.60617  0.53685  0.11158  1.0000 0.1117740793
H   H106      1.0  0.53242  0.66811  0.18935  1.0000 0.1117740793
H   H107      1.0  0.41907  0.60474  0.13080  1.0000 0.1117740793
H   H108      1.0  0.27549  0.91713  0.02219  1.0000 0.1280490702
H   H109      1.0  0.05982  0.78193  0.05342  1.0000 0.1117740793
H   H110      1.0  0.16114  0.89626  0.03608  1.0000 0.1117740793
H   H111      1.0  0.08812  0.84619  0.03446  1.0000 0.1117740793
H   H112      1.0  0.17356  0.68369  0.77744  1.0000 0.1280490702
H   H113      1.0  0.14499  0.28983  0.85633  1.0000 0.1211635328
H   H114      1.0  0.47163  0.37049  0.88822  1.0000 0.1280490702
H   H115      1.0  0.38554  0.21960  0.92326  1.0000 0.1117740793
H   H116      1.0  0.20768  0.45423  0.80467  1.0000 0.1117740793
H   H117      1.0  0.22177  0.19088  0.81897  1.0000 0.1117740793
H   H118      1.0  0.10970  0.46871  0.72080  1.0000 0.1117740793
H   H119      1.0  0.44234  0.60316  0.08193  1.0000 0.1117740793
H   H120      1.0  0.20056  0.62205  0.79647  1.0000 0.1117740793
H   H121      1.0  0.26313  0.56724  0.80059  1.0000 0.1117740793
H   H122      1.0  0.39770  0.32116  0.86954  1.0000 0.1117740793
H   H123      1.0  0.90553  0.84824  0.08982  1.0000 0.1117740793
H   H124      1.0  0.13558  0.57573  0.72053  1.0000 0.1117740793
H   H125      1.0  0.86364  0.69517  0.71604  1.0000 0.4189738614
H   H126      1.0  0.36361  0.94697  0.47613  1.0000 0.425379828
H   H127      1.0  0.97693  0.58350  0.48043  1.0000 0.1117740793
H   H128      1.0  0.01514  0.12389  0.28481  1.0000 0.1280490702
H   H129      1.0  0.20406  0.56893  0.43938  1.0000 0.1280490702
H   H130      1.0  0.74496  0.76885  0.69625  1.0000 0.1280490702
H   H131      1.0  0.23476  0.82298  0.64552  1.0000 0.1280490702
H   H132      1.0  0.40814  0.39032  0.46454  1.0000 0.1280490702
H   H133      1.0  0.59588  0.00341  0.57060  1.0000 0.1280490702
H   H134      1.0  0.44549  0.17142  0.46993  1.0000 0.1211635328
H   H135      1.0  0.37980  0.22320  0.45145  1.0000 0.1117740793
H   H136      1.0  0.35889  0.33009  0.45021  1.0000 0.1117740793
H   H137      1.0  0.84177  0.86857  0.67304  1.0000 0.1211635328
H   H138      1.0  0.63934  0.89869  0.63183  1.0000 0.1117740793
H   H139      1.0  0.06612  0.75582  0.59451  1.0000 0.1280490702
H   H140      1.0  0.34675  0.84565  0.63192  1.0000 0.1117740793
H   H141      1.0  0.33309  0.43762  0.38993  1.0000 0.1280490702
H   H142      1.0  0.87050  0.64919  0.53973  1.0000 0.1117740793
H   H143      1.0  0.30549  0.81389  0.72901  1.0000 0.1280490702
H   H144      1.0  0.13773  0.30153  0.28114  1.0000 0.1280490702
H   H145      1.0  0.63138  0.79383  0.68398  1.0000 0.1117740793
H   H146      1.0  0.91535  0.68603  0.63321  1.0000 0.1280490702
H   H147      1.0  0.06544  0.20229  0.31732  1.0000 0.1280490702
H   H148      1.0  0.76389  0.51661  0.47898  1.0000 0.1280490702
H   H149      1.0  0.08886  0.58939  0.45375  1.0000 0.1211635328
H   H150      1.0  0.03678  0.08204  0.20240  1.0000 0.1211635328
H   H151      1.0  0.33696  0.04586  0.31799  1.0000 0.1117740793
H   H152      1.0  0.77869  0.64562  0.50926  1.0000 0.1117740793
H   H153      1.0  0.41785  0.83782  0.71488  1.0000 0.1117740793
H   H154      1.0  0.11168  0.97487  0.24581  1.0000 0.1117740793
H   H155      1.0  0.09259  0.86436  0.20501  1.0000 0.1280490702
H   H156      1.0  0.66559  0.61675  0.50321  1.0000 0.1280490702
H   H157      1.0  0.72750  0.89568  0.66309  1.0000 0.1117740793
H   H158      1.0  0.42038  0.05322  0.35626  1.0000 0.1211635328
H   H159      1.0  0.08557  0.07331  0.30212  1.0000 0.1117740793
H   H160      1.0  0.26852  0.94506  0.35242  1.0000 0.1117740793
H   H161      1.0  0.87658  0.54571  0.48622  1.0000 0.1117740793
H   H162      1.0  0.23479  0.32400  0.36776  1.0000 0.1117740793
H   H163      1.0  0.43836  0.93209  0.53919  1.0000 0.1280490702
H   H164      1.0  0.27520  0.20912  0.36844  1.0000 0.1117740793
H   H165      1.0  0.34885  0.95184  0.39049  1.0000 0.1280490702
H   H166      1.0  0.29623  0.37799  0.37376  1.0000 0.1117740793
H   H167      1.0  0.60617  0.96315  0.61158  1.0000 0.1117740793
H   H168      1.0  0.53242  0.83189  0.68935  1.0000 0.1117740793
H   H169      1.0  0.41907  0.89526  0.63080  1.0000 0.1117740793
H   H170      1.0  0.27549  0.58287  0.52219  1.0000 0.1280490702
H   H171      1.0  0.05982  0.71807  0.55342  1.0000 0.1117740793
H   H172      1.0  0.16114  0.60374  0.53608  1.0000 0.1117740793
H   H173      1.0  0.08812  0.65381  0.53446  1.0000 0.1117740793
H   H174      1.0  0.17356  0.81631  0.27744  1.0000 0.1280490702
H   H175      1.0  0.14499  0.21017  0.35633  1.0000 0.1211635328
H   H176      1.0  0.47163  0.12951  0.38822  1.0000 0.1280490702
H   H177      1.0  0.38554  0.28040  0.42326  1.0000 0.1117740793
H   H178      1.0  0.20768  0.04577  0.30467  1.0000 0.1117740793
H   H179      1.0  0.22177  0.30912  0.31897  1.0000 0.1117740793
H   H180      1.0  0.10970  0.03129  0.22080  1.0000 0.1117740793
H   H181      1.0  0.44234  0.89684  0.58193  1.0000 0.1117740793
H   H182      1.0  0.20056  0.87795  0.29647  1.0000 0.1117740793
H   H183      1.0  0.26313  0.93276  0.30059  1.0000 0.1117740793
H   H184      1.0  0.39770  0.17884  0.36954  1.0000 0.1117740793
H   H185      1.0  0.90553  0.65176  0.58982  1.0000 0.1117740793
H   H186      1.0  0.13558  0.92427  0.22053  1.0000 0.1117740793
H   H187      1.0  0.13636  0.30483  0.21604  1.0000 0.4189738614
H   H188      1.0  0.63639  0.05303  0.97613  1.0000 0.4189738614
H   H189      1.0  0.02307  0.41650  0.98043  1.0000 0.1117740793
H   H190      1.0  0.98486  0.87611  0.78481  1.0000 0.1280490702
H   H191      1.0  0.79594  0.43107  0.93938  1.0000 0.1280490702
H   H192      1.0  0.25504  0.23115  0.19625  1.0000 0.1280490702
H   H193      1.0  0.76524  0.17702  0.14552  1.0000 0.1280490702
H   H194      1.0  0.59186  0.60968  0.96454  1.0000 0.1280490702
H   H195      1.0  0.40412  0.99659  0.07060  1.0000 0.1280490702
H   H196      1.0  0.55451  0.82858  0.96993  1.0000 0.1211635328
H   H197      1.0  0.62020  0.77680  0.95145  1.0000 0.1117740793
H   H198      1.0  0.64111  0.66991  0.95021  1.0000 0.1117740793
H   H199      1.0  0.15823  0.13143  0.17304  1.0000 0.1211635328
H   H200      1.0  0.36066  0.10131  0.13183  1.0000 0.1117740793
H   H201      1.0  0.93388  0.24418  0.09451  1.0000 0.1280490702
H   H202      1.0  0.65325  0.15435  0.13192  1.0000 0.1117740793
H   H203      1.0  0.66691  0.56238  0.88993  1.0000 0.1280490702
H   H204      1.0  0.12950  0.35081  0.03973  1.0000 0.1117740793
H   H205      1.0  0.69451  0.18611  0.22901  1.0000 0.1280490702
H   H206      1.0  0.86227  0.69847  0.78114  1.0000 0.1280490702
H   H207      1.0  0.36862  0.20617  0.18398  1.0000 0.1117740793
H   H208      1.0  0.08465  0.31397  0.13321  1.0000 0.1280490702
H   H209      1.0  0.93456  0.79771  0.81732  1.0000 0.1280490702
H   H210      1.0  0.23611  0.48339  0.97898  1.0000 0.1280490702
H   H211      1.0  0.91114  0.41061  0.95375  1.0000 0.1211635328
H   H212      1.0  0.96322  0.91796  0.70240  1.0000 0.1211635328
H   H213      1.0  0.66304  0.95414  0.81799  1.0000 0.1117740793
H   H214      1.0  0.22131  0.35438  0.00926  1.0000 0.1117740793
H   H215      1.0  0.58215  0.16218  0.21488  1.0000 0.1117740793
H   H216      1.0  0.88832  0.02513  0.74581  1.0000 0.1117740793
H   H217      1.0  0.90741  0.13564  0.70501  1.0000 0.1280490702
H   H218      1.0  0.33441  0.38325  0.00321  1.0000 0.1280490702
H   H219      1.0  0.27250  0.10432  0.16309  1.0000 0.1117740793
H   H220      1.0  0.57962  0.94678  0.85626  1.0000 0.1211635328
H   H221      1.0  0.91443  0.92669  0.80212  1.0000 0.1117740793
H   H222      1.0  0.73148  0.05494  0.85242  1.0000 0.1117740793
H   H223      1.0  0.12342  0.45429  0.98622  1.0000 0.1117740793
H   H224      1.0  0.76521  0.67600  0.86776  1.0000 0.1117740793
H   H225      1.0  0.56164  0.06791  0.03919  1.0000 0.1280490702
H   H226      1.0  0.72480  0.79088  0.86844  1.0000 0.1117740793
H   H227      1.0  0.65115  0.04816  0.89049  1.0000 0.1280490702
H   H228      1.0  0.70377  0.62201  0.87376  1.0000 0.1117740793
H   H229      1.0  0.39383  0.03685  0.11158  1.0000 0.1117740793
H   H230      1.0  0.46758  0.16811  0.18935  1.0000 0.1117740793
H   H231      1.0  0.58093  0.10474  0.13080  1.0000 0.1117740793
H   H232      1.0  0.72451  0.41713  0.02219  1.0000 0.1280490702
H   H233      1.0  0.94018  0.28193  0.05342  1.0000 0.1117740793
H   H234      1.0  0.83886  0.39626  0.03608  1.0000 0.1117740793
H   H235      1.0  0.91188  0.34619  0.03446  1.0000 0.1117740793
H   H236      1.0  0.82644  0.18369  0.77744  1.0000 0.1280490702
H   H237      1.0  0.85501  0.78983  0.85633  1.0000 0.1211635328
H   H238      1.0  0.52837  0.87049  0.88822  1.0000 0.1280490702
H   H239      1.0  0.61446  0.71960  0.92326  1.0000 0.1117740793
H   H240      1.0  0.79232  0.95423  0.80467  1.0000 0.1117740793
H   H241      1.0  0.77823  0.69088  0.81897  1.0000 0.1117740793
H   H242      1.0  0.89030  0.96871  0.72080  1.0000 0.1117740793
H   H243      1.0  0.55766  0.10316  0.08193  1.0000 0.1117740793
H   H244      1.0  0.79944  0.12205  0.79647  1.0000 0.1117740793
H   H245      1.0  0.73687  0.06724  0.80059  1.0000 0.1117740793
H   H246      1.0  0.60230  0.82116  0.86954  1.0000 0.1117740793
H   H247      1.0  0.09447  0.34824  0.08982  1.0000 0.1117740793
H   H248      1.0  0.86442  0.07573  0.72053  1.0000 0.1117740793
C   C1        1.0  0.99913  0.24307  0.64740  1.0000 0.6198632777
C   C2        1.0  0.00523  0.22256  0.61969  1.0000 -0.0706401016
C   C3        1.0  0.36900  0.04602  0.48605  1.0000 0.6198632777
C   C4        1.0  0.55636  0.50744  0.40244  1.0000 0.6198632777
C   C5        1.0  0.74295  0.31862  0.68969  1.0000 -0.0516053926
C   C6        1.0  0.58488  0.95599  0.43618  1.0000 0.6198632777
C   C7        1.0  0.19613  0.31560  0.68461  1.0000 -0.0516053926
C   C8        1.0  0.90997  0.29761  0.23324  1.0000 0.6198632777
C   C9        1.0  0.12404  0.29784  0.68834  1.0000 0.6198632777
C   C10       1.0  0.53207  0.64638  0.43026  1.0000 -0.0566139082
C   C11       1.0  0.87639  0.33538  0.24158  1.0000 -0.0397519102
C   C12       1.0  0.95489  0.74592  0.27023  1.0000 0.6198632777
C   C13       1.0  0.67266  0.06409  0.47075  1.0000 0.6318957362
C   C14       1.0  0.62099  0.91949  0.42769  1.0000 -0.0566139082
C   C15       1.0  0.90735  0.75097  0.29606  1.0000 -0.0516053926
C   C16       1.0  0.29640  0.06429  0.49016  1.0000 -0.0302189319
C   C17       1.0  0.08846  0.11457  0.50799  1.0000 0.0790666722
C   C18       1.0  0.74796  0.07424  0.47952  1.0000 -0.0516053926
C   C19       1.0  0.15972  0.09791  0.49977  1.0000 0.0706591778
C   C20       1.0  0.02021  0.15656  0.54060  1.0000 0.0790666722
C   C21       1.0  0.02273  0.10185  0.49584  1.0000 -0.2091168708
C   C22       1.0  0.40339  0.36272  0.66175  1.0000 0.0790666722
C   C23       1.0  0.96641  0.60494  0.27176  1.0000 -0.0890093965
C   C24       1.0  0.60781  0.50340  0.37742  1.0000 -0.0397519102
C   C25       1.0  0.80446  0.07620  0.45907  1.0000 -0.0826368614
C   C26       1.0  0.25849  0.29434  0.68863  1.0000 -0.0890093965
C   C27       1.0  0.72841  0.32660  0.65978  1.0000 -0.0890093965
C   C28       1.0  0.61461  0.88765  0.44605  1.0000 -0.0826368614
C   C29       1.0  0.43414  0.48119  0.57243  1.0000 -0.0890093965
C   C30       1.0  0.61830  0.70681  0.40876  1.0000 0.0706591778
C   C31       1.0  0.98253  0.60682  0.24188  1.0000 -0.0516053926
C   C32       1.0  0.56209  0.67374  0.44951  1.0000 -0.0890093965
C   C33       1.0  0.60255  0.70390  0.43852  1.0000 -0.1592832895
C   C34       1.0  0.60540  0.34373  0.67151  1.0000 0.0706591778
C   C35       1.0  0.64190  0.85148  0.43720  1.0000 -0.1592832895
C   C36       1.0  0.20099  0.35345  0.67527  1.0000 -0.0890093965
C   C37       1.0  0.40513  0.38895  0.63938  1.0000 -0.200474997
C   C38       1.0  0.33183  0.34707  0.67177  1.0000 0.0790666722
C   C39       1.0  0.96442  0.23366  0.59414  1.0000 -0.0890093965
C   C40       1.0  0.66167  0.33941  0.65181  1.0000 -0.1515873855
C   C41       1.0  0.65758  0.91541  0.40154  1.0000 -0.0826368614
C   C42       1.0  0.08548  0.14123  0.53071  1.0000 -0.2091168708
C   C43       1.0  0.68686  0.32132  0.70930  1.0000 -0.0826368614
C   C44       1.0  0.86016  0.78303  0.29643  1.0000 -0.0890093965
C   C45       1.0  0.32627  0.30930  0.68181  1.0000 -0.1592832895
C   C46       1.0  0.48293  0.47169  0.55087  1.0000 -0.0397519102
C   C47       1.0  0.47412  0.42672  0.60133  1.0000 0.0706591778
C   C48       1.0  0.05463  0.19269  0.61712  1.0000 -0.0826368614
C   C49       1.0  0.75620  0.76555  0.36605  1.0000 0.0790666722
C   C50       1.0  0.01781  0.18179  0.56716  1.0000 0.0790666722
C   C51       1.0  0.90372  0.72432  0.31794  1.0000 -0.0890093965
C   C52       1.0  0.70540  0.49491  0.33130  1.0000 0.0790666722
C   C53       1.0  0.47112  0.40182  0.62731  1.0000 0.0790666722
C   C54       1.0  0.23325  0.04272  0.48532  1.0000 -0.098604146
C   C55       1.0  0.87273  0.08877  0.46759  1.0000 -0.1515873855
C   C56       1.0  0.95354  0.58021  0.22270  1.0000 -0.0890093965
C   C57       1.0  0.83096  0.40808  0.26008  1.0000 0.0790666722
C   C58       1.0  0.02479  0.63946  0.22986  1.0000 0.6318957362
C   C59       1.0  0.53492  0.36083  0.66230  1.0000 0.0790666722
C   C60       1.0  0.84943  0.51537  0.27375  1.0000 0.0790666722
C   C61       1.0  0.66035  0.52670  0.33279  1.0000 -0.1592832895
C   C62       1.0  0.22412  0.11920  0.50369  1.0000 -0.1515873855
C   C63       1.0  0.61948  0.33470  0.70075  1.0000 -0.1515873855
C   C64       1.0  0.48960  0.49403  0.52321  1.0000 0.6198632777
C   C65       1.0  0.85665  0.47852  0.26194  1.0000 -0.200474997
C   C66       1.0  0.88508  0.36697  0.22359  1.0000 -0.0890093965
C   C67       1.0  0.29144  0.10229  0.49958  1.0000 -0.098604146
C   C68       1.0  0.26898  0.36945  0.66911  1.0000 -0.1592832895
C   C69       1.0  0.61079  0.53133  0.35563  1.0000 -0.0890093965
C   C70       1.0  0.89364  0.54833  0.26274  1.0000 0.0706591778
C   C71       1.0  0.92374  0.57542  0.28181  1.0000 -0.1515873855
C   C72       1.0  0.70086  0.46716  0.35322  1.0000 -0.1515873855
C   C73       1.0  0.16634  0.06018  0.48994  1.0000 -0.1515873855
C   C74       1.0  0.74083  0.80237  0.37598  1.0000 -0.2091168708
C   C75       1.0  0.52871  0.43913  0.55424  1.0000 -0.0890093965
C   C76       1.0  0.71596  0.73413  0.37624  1.0000 -0.2091168708
C   C77       1.0  0.66323  0.73884  0.39757  1.0000 0.0790666722
C   C78       1.0  0.65336  0.47113  0.37577  1.0000 -0.0890093965
C   C79       1.0  0.68042  0.88015  0.39217  1.0000 -0.1515873855
C   C80       1.0  0.81012  0.75984  0.34187  1.0000 0.0790666722
C   C81       1.0  0.81974  0.44742  0.27276  1.0000 0.0790666722
C   C82       1.0  0.88582  0.10043  0.49598  1.0000 0.0790666722
C   C83       1.0  0.42947  0.45747  0.59721  1.0000 -0.1515873855
C   C84       1.0  0.95637  0.11622  0.50644  1.0000 0.0790666722
C   C85       1.0  0.46872  0.34937  0.67337  1.0000 -0.2091168708
C   C86       1.0  0.67025  0.84734  0.40899  1.0000 0.0790666722
C   C87       1.0  0.53577  0.38727  0.63884  1.0000 -0.2091168708
C   C88       1.0  0.76213  0.08453  0.50805  1.0000 -0.0890093965
C   C89       1.0  0.97034  0.21199  0.56960  1.0000 -0.1515873855
C   C90       1.0  0.83000  0.09717  0.51628  1.0000 -0.1592832895
C   C91       1.0  0.95690  0.14347  0.52795  1.0000 -0.200474997
C   C92       1.0  0.83943  0.33886  0.26681  1.0000 -0.0890093965
C   C93       1.0  0.85593  0.72873  0.34106  1.0000 -0.1592832895
C   C94       1.0  0.68948  0.80793  0.39810  1.0000 0.0790666722
C   C95       1.0  0.54760  0.64852  0.40104  1.0000 -0.0826368614
C   C96       1.0  0.65024  0.77658  0.40860  1.0000 -0.2091168708
C   C97       1.0  0.79854  0.52082  0.29637  1.0000 -0.2091168708
C   C98       1.0  0.81085  0.78782  0.31883  1.0000 -0.1592832895
C   C99       1.0  0.90931  0.55026  0.23370  1.0000 -0.1592832895
C   C100      1.0  0.52520  0.41791  0.57927  1.0000 -0.1515873855
C   C101      1.0  0.81992  0.37541  0.27755  1.0000 -0.1592832895
C   C102      1.0  0.76658  0.45368  0.29440  1.0000 -0.2091168708
C   C103      1.0  0.75708  0.48972  0.30672  1.0000 0.0790666722
C   C104      1.0  0.59112  0.67808  0.38976  1.0000 -0.1592832895
C   C105      1.0  0.06061  0.17243  0.59122  1.0000 -0.1515873855
C   C106      1.0  0.86047  0.40268  0.23324  1.0000 -0.1515873855
C   C107      1.0  0.49134  0.61367  0.44264  1.0000 0.6318957362
C   C108      1.0  0.81838  0.30803  0.69763  1.0000 0.6318957362
C   C109      1.0  0.00087  0.75693  0.14740  1.0000 0.6198632777
C   C110      1.0  0.99477  0.77744  0.11969  1.0000 -0.0706401016
C   C111      1.0  0.63100  0.95398  0.98605  1.0000 0.6198632777
C   C112      1.0  0.44364  0.49256  0.90244  1.0000 0.6198632777
C   C113      1.0  0.25705  0.68138  0.18969  1.0000 -0.0516053926
C   C114      1.0  0.41512  0.04401  0.93618  1.0000 0.6198632777
C   C115      1.0  0.80387  0.68440  0.18461  1.0000 -0.0516053926
C   C116      1.0  0.09003  0.70239  0.73324  1.0000 0.6198632777
C   C117      1.0  0.87596  0.70216  0.18834  1.0000 0.6198632777
C   C118      1.0  0.46793  0.35362  0.93026  1.0000 -0.0566139082
C   C119      1.0  0.12361  0.66462  0.74158  1.0000 -0.0397519102
C   C120      1.0  0.04511  0.25408  0.77023  1.0000 0.6198632777
C   C121      1.0  0.32734  0.93591  0.97075  1.0000 0.6318957362
C   C122      1.0  0.37901  0.08051  0.92769  1.0000 -0.0566139082
C   C123      1.0  0.09265  0.24903  0.79606  1.0000 -0.0516053926
C   C124      1.0  0.70360  0.93571  0.99016  1.0000 -0.0302189319
C   C125      1.0  0.91154  0.88543  0.00799  1.0000 0.0790666722
C   C126      1.0  0.25204  0.92576  0.97952  1.0000 -0.0516053926
C   C127      1.0  0.84028  0.90209  0.99977  1.0000 0.0706591778
C   C128      1.0  0.97979  0.84344  0.04060  1.0000 0.0790666722
C   C129      1.0  0.97727  0.89815  0.99584  1.0000 -0.2091168708
C   C130      1.0  0.59661  0.63728  0.16175  1.0000 0.0790666722
C   C131      1.0  0.03359  0.39506  0.77176  1.0000 -0.0890093965
C   C132      1.0  0.39219  0.49660  0.87742  1.0000 -0.0397519102
C   C133      1.0  0.19554  0.92380  0.95907  1.0000 -0.0826368614
C   C134      1.0  0.74151  0.70566  0.18863  1.0000 -0.0890093965
C   C135      1.0  0.27159  0.67340  0.15978  1.0000 -0.0890093965
C   C136      1.0  0.38539  0.11235  0.94605  1.0000 -0.0826368614
C   C137      1.0  0.56586  0.51881  0.07243  1.0000 -0.0890093965
C   C138      1.0  0.38170  0.29319  0.90876  1.0000 0.0790666722
C   C139      1.0  0.01747  0.39318  0.74188  1.0000 -0.0516053926
C   C140      1.0  0.43791  0.32626  0.94951  1.0000 -0.0890093965
C   C141      1.0  0.39745  0.29610  0.93852  1.0000 -0.1592832895
C   C142      1.0  0.39460  0.65627  0.17151  1.0000 0.0706591778
C   C143      1.0  0.35810  0.14852  0.93720  1.0000 -0.1592832895
C   C144      1.0  0.79901  0.64655  0.17527  1.0000 -0.0890093965
C   C145      1.0  0.59487  0.61105  0.13938  1.0000 -0.200474997
C   C146      1.0  0.66817  0.65293  0.17177  1.0000 0.0790666722
C   C147      1.0  0.03558  0.76634  0.09414  1.0000 -0.0890093965
C   C148      1.0  0.33833  0.66059  0.15181  1.0000 -0.1592832895
C   C149      1.0  0.34242  0.08459  0.90154  1.0000 -0.0826368614
C   C150      1.0  0.91452  0.85877  0.03071  1.0000 -0.2091168708
C   C151      1.0  0.31314  0.67868  0.20930  1.0000 -0.0826368614
C   C152      1.0  0.13984  0.21697  0.79643  1.0000 -0.0890093965
C   C153      1.0  0.67373  0.69070  0.18181  1.0000 -0.1592832895
C   C154      1.0  0.51707  0.52831  0.05087  1.0000 -0.0397519102
C   C155      1.0  0.52588  0.57328  0.10133  1.0000 0.0706591778
C   C156      1.0  0.94537  0.80731  0.11712  1.0000 -0.0826368614
C   C157      1.0  0.24380  0.23445  0.86605  1.0000 0.0790666722
C   C158      1.0  0.98219  0.81821  0.06716  1.0000 0.0790666722
C   C159      1.0  0.09628  0.27568  0.81794  1.0000 -0.0890093965
C   C160      1.0  0.29460  0.50509  0.83130  1.0000 0.0790666722
C   C161      1.0  0.52888  0.59818  0.12731  1.0000 0.0790666722
C   C162      1.0  0.76675  0.95728  0.98532  1.0000 -0.098604146
C   C163      1.0  0.12727  0.91123  0.96759  1.0000 -0.1515873855
C   C164      1.0  0.04646  0.41979  0.72270  1.0000 -0.0890093965
C   C165      1.0  0.16904  0.59192  0.76008  1.0000 0.0790666722
C   C166      1.0  0.97521  0.36054  0.72986  1.0000 0.6318957362
C   C167      1.0  0.46508  0.63917  0.16230  1.0000 0.0790666722
C   C168      1.0  0.15057  0.48463  0.77375  1.0000 0.0790666722
C   C169      1.0  0.33965  0.47330  0.83279  1.0000 -0.1592832895
C   C170      1.0  0.77588  0.88080  0.00369  1.0000 -0.1515873855
C   C171      1.0  0.38052  0.66530  0.20075  1.0000 -0.1592832895
C   C172      1.0  0.51040  0.50597  0.02321  1.0000 0.6198632777
C   C173      1.0  0.14335  0.52148  0.76194  1.0000 -0.200474997
C   C174      1.0  0.11492  0.63303  0.72359  1.0000 -0.0890093965
C   C175      1.0  0.70856  0.89771  0.99958  1.0000 -0.098604146
C   C176      1.0  0.73102  0.63055  0.16911  1.0000 -0.1592832895
C   C177      1.0  0.38921  0.46867  0.85563  1.0000 -0.0890093965
C   C178      1.0  0.10636  0.45167  0.76274  1.0000 0.0706591778
C   C179      1.0  0.07626  0.42458  0.78181  1.0000 -0.1515873855
C   C180      1.0  0.29914  0.53284  0.85322  1.0000 -0.1515873855
C   C181      1.0  0.83366  0.93982  0.98994  1.0000 -0.1515873855
C   C182      1.0  0.25917  0.19763  0.87598  1.0000 -0.2091168708
C   C183      1.0  0.47129  0.56087  0.05424  1.0000 -0.0890093965
C   C184      1.0  0.28404  0.26587  0.87624  1.0000 -0.2091168708
C   C185      1.0  0.33677  0.26116  0.89757  1.0000 0.0790666722
C   C186      1.0  0.34664  0.52887  0.87577  1.0000 -0.0890093965
C   C187      1.0  0.31958  0.11985  0.89217  1.0000 -0.1515873855
C   C188      1.0  0.18988  0.24016  0.84187  1.0000 0.0790666722
C   C189      1.0  0.18026  0.55258  0.77276  1.0000 0.0790666722
C   C190      1.0  0.11418  0.89957  0.99598  1.0000 0.0790666722
C   C191      1.0  0.57053  0.54253  0.09721  1.0000 -0.1515873855
C   C192      1.0  0.04363  0.88378  0.00644  1.0000 0.0790666722
C   C193      1.0  0.53128  0.65063  0.17337  1.0000 -0.2091168708
C   C194      1.0  0.32975  0.15266  0.90899  1.0000 0.0790666722
C   C195      1.0  0.46423  0.61273  0.13884  1.0000 -0.2091168708
C   C196      1.0  0.23787  0.91547  0.00805  1.0000 -0.0890093965
C   C197      1.0  0.02966  0.78801  0.06960  1.0000 -0.1515873855
C   C198      1.0  0.17000  0.90283  0.01628  1.0000 -0.1592832895
C   C199      1.0  0.04310  0.85653  0.02795  1.0000 -0.200474997
C   C200      1.0  0.16057  0.66114  0.76681  1.0000 -0.0890093965
C   C201      1.0  0.14407  0.27127  0.84106  1.0000 -0.1592832895
C   C202      1.0  0.31052  0.19207  0.89810  1.0000 0.0790666722
C   C203      1.0  0.45240  0.35148  0.90104  1.0000 -0.0826368614
C   C204      1.0  0.34976  0.22342  0.90860  1.0000 -0.2091168708
C   C205      1.0  0.20146  0.47918  0.79637  1.0000 -0.2091168708
C   C206      1.0  0.18915  0.21218  0.81883  1.0000 -0.1592832895
C   C207      1.0  0.09069  0.44974  0.73370  1.0000 -0.1592832895
C   C208      1.0  0.47480  0.58209  0.07927  1.0000 -0.1515873855
C   C209      1.0  0.18008  0.62459  0.77755  1.0000 -0.1592832895
C   C210      1.0  0.23342  0.54632  0.79440  1.0000 -0.2091168708
C   C211      1.0  0.24292  0.51028  0.80672  1.0000 0.0790666722
C   C212      1.0  0.40888  0.32192  0.88976  1.0000 -0.1592832895
C   C213      1.0  0.93939  0.82757  0.09122  1.0000 -0.1515873855
C   C214      1.0  0.13953  0.59732  0.73324  1.0000 -0.1515873855
C   C215      1.0  0.50866  0.38633  0.94264  1.0000 0.6318957362
C   C216      1.0  0.18162  0.69197  0.19763  1.0000 0.6318957362
C   C217      1.0  0.00087  0.74307  0.64740  1.0000 0.6198632777
C   C218      1.0  0.99477  0.72256  0.61969  1.0000 -0.0706401016
C   C219      1.0  0.63100  0.54602  0.48605  1.0000 0.6198632777
C   C220      1.0  0.44364  0.00744  0.40244  1.0000 0.6198632777
C   C221      1.0  0.25705  0.81862  0.68969  1.0000 -0.0516053926
C   C222      1.0  0.41512  0.45599  0.43618  1.0000 0.6198632777
C   C223      1.0  0.80387  0.81560  0.68461  1.0000 -0.0516053926
C   C224      1.0  0.09003  0.79761  0.23324  1.0000 0.6198632777
C   C225      1.0  0.87596  0.79784  0.68834  1.0000 0.6198632777
C   C226      1.0  0.46793  0.14638  0.43026  1.0000 -0.0566139082
C   C227      1.0  0.12361  0.83538  0.24158  1.0000 -0.0397519102
C   C228      1.0  0.04511  0.24592  0.27023  1.0000 0.6198632777
C   C229      1.0  0.32734  0.56409  0.47075  1.0000 0.6318957362
C   C230      1.0  0.37901  0.41949  0.42769  1.0000 -0.0566139082
C   C231      1.0  0.09265  0.25097  0.29606  1.0000 -0.0516053926
C   C232      1.0  0.70360  0.56429  0.49016  1.0000 -0.0302189319
C   C233      1.0  0.91154  0.61457  0.50799  1.0000 0.0790666722
C   C234      1.0  0.25204  0.57424  0.47952  1.0000 -0.0516053926
C   C235      1.0  0.84028  0.59791  0.49977  1.0000 0.0706591778
C   C236      1.0  0.97979  0.65656  0.54060  1.0000 0.0790666722
C   C237      1.0  0.97727  0.60185  0.49584  1.0000 -0.2091168708
C   C238      1.0  0.59661  0.86272  0.66175  1.0000 0.0790666722
C   C239      1.0  0.03359  0.10494  0.27176  1.0000 -0.0890093965
C   C240      1.0  0.39219  0.00340  0.37742  1.0000 -0.0397519102
C   C241      1.0  0.19554  0.57620  0.45907  1.0000 -0.0826368614
C   C242      1.0  0.74151  0.79434  0.68863  1.0000 -0.0890093965
C   C243      1.0  0.27159  0.82660  0.65978  1.0000 -0.0890093965
C   C244      1.0  0.38539  0.38765  0.44605  1.0000 -0.0826368614
C   C245      1.0  0.56586  0.98119  0.57243  1.0000 -0.0890093965
C   C246      1.0  0.38170  0.20681  0.40876  1.0000 0.0706591778
C   C247      1.0  0.01747  0.10682  0.24188  1.0000 -0.0516053926
C   C248      1.0  0.43791  0.17374  0.44951  1.0000 -0.0890093965
C   C249      1.0  0.39745  0.20390  0.43852  1.0000 -0.1592832895
C   C250      1.0  0.39460  0.84373  0.67151  1.0000 0.0706591778
C   C251      1.0  0.35810  0.35148  0.43720  1.0000 -0.1592832895
C   C252      1.0  0.79901  0.85345  0.67527  1.0000 -0.0890093965
C   C253      1.0  0.59487  0.88895  0.63938  1.0000 -0.200474997
C   C254      1.0  0.66817  0.84707  0.67177  1.0000 0.0790666722
C   C255      1.0  0.03558  0.73366  0.59414  1.0000 -0.0890093965
C   C256      1.0  0.33833  0.83941  0.65181  1.0000 -0.1515873855
C   C257      1.0  0.34242  0.41541  0.40154  1.0000 -0.0826368614
C   C258      1.0  0.91452  0.64123  0.53071  1.0000 -0.2091168708
C   C259      1.0  0.31314  0.82132  0.70930  1.0000 -0.0826368614
C   C260      1.0  0.13984  0.28303  0.29643  1.0000 -0.0890093965
C   C261      1.0  0.67373  0.80930  0.68181  1.0000 -0.1515873855
C   C262      1.0  0.51707  0.97169  0.55087  1.0000 -0.0397519102
C   C263      1.0  0.52588  0.92672  0.60133  1.0000 0.0706591778
C   C264      1.0  0.94537  0.69269  0.61712  1.0000 -0.0826368614
C   C265      1.0  0.24380  0.26555  0.36605  1.0000 0.0790666722
C   C266      1.0  0.98219  0.68179  0.56716  1.0000 0.0790666722
C   C267      1.0  0.09628  0.22432  0.31794  1.0000 -0.0890093965
C   C268      1.0  0.29460  0.99491  0.33130  1.0000 0.0790666722
C   C269      1.0  0.52888  0.90182  0.62731  1.0000 0.0790666722
C   C270      1.0  0.76675  0.54272  0.48532  1.0000 -0.098604146
C   C271      1.0  0.12727  0.58877  0.46759  1.0000 -0.1515873855
C   C272      1.0  0.04646  0.08021  0.22270  1.0000 -0.0890093965
C   C273      1.0  0.16904  0.90808  0.26008  1.0000 0.0790666722
C   C274      1.0  0.97521  0.13946  0.22986  1.0000 0.6318957362
C   C275      1.0  0.46508  0.86083  0.66230  1.0000 0.0790666722
C   C276      1.0  0.15057  0.01537  0.27375  1.0000 0.0790666722
C   C277      1.0  0.33965  0.02670  0.33279  1.0000 -0.1592832895
C   C278      1.0  0.77588  0.61920  0.50369  1.0000 -0.1592832895
C   C279      1.0  0.38052  0.83470  0.70075  1.0000 -0.1515873855
C   C280      1.0  0.51040  0.99403  0.52321  1.0000 0.6198632777
C   C281      1.0  0.14335  0.97852  0.26194  1.0000 -0.200474997
C   C282      1.0  0.11492  0.86697  0.22359  1.0000 -0.0890093965
C   C283      1.0  0.70856  0.60229  0.49958  1.0000 -0.098604146
C   C284      1.0  0.73102  0.86945  0.66911  1.0000 -0.1592832895
C   C285      1.0  0.38921  0.03133  0.35563  1.0000 -0.0890093965
C   C286      1.0  0.10636  0.04833  0.26274  1.0000 0.0706591778
C   C287      1.0  0.07626  0.07542  0.28181  1.0000 -0.1515873855
C   C288      1.0  0.29914  0.96716  0.35322  1.0000 -0.1515873855
C   C289      1.0  0.83366  0.56018  0.48994  1.0000 -0.1515873855
C   C290      1.0  0.25917  0.30237  0.37598  1.0000 -0.2091168708
C   C291      1.0  0.47129  0.93913  0.55424  1.0000 -0.0890093965
C   C292      1.0  0.28404  0.23413  0.37624  1.0000 -0.2091168708
C   C293      1.0  0.33677  0.23884  0.39757  1.0000 0.0790666722
C   C294      1.0  0.34664  0.97113  0.37577  1.0000 -0.0890093965
C   C295      1.0  0.31958  0.38015  0.39217  1.0000 -0.1515873855
C   C296      1.0  0.18988  0.25984  0.34187  1.0000 0.0790666722
C   C297      1.0  0.18026  0.94742  0.27276  1.0000 0.0790666722
C   C298      1.0  0.11418  0.60043  0.49598  1.0000 0.0790666722
C   C299      1.0  0.57053  0.95747  0.59721  1.0000 -0.1515873855
C   C300      1.0  0.04363  0.61622  0.50644  1.0000 0.0790666722
C   C301      1.0  0.53128  0.84937  0.67337  1.0000 -0.2091168708
C   C302      1.0  0.32975  0.34734  0.40899  1.0000 0.0790666722
C   C303      1.0  0.46423  0.88727  0.63884  1.0000 -0.2091168708
C   C304      1.0  0.23787  0.58453  0.50805  1.0000 -0.0890093965
C   C305      1.0  0.02966  0.71199  0.56960  1.0000 -0.1515873855
C   C306      1.0  0.17000  0.59717  0.51628  1.0000 -0.1592832895
C   C307      1.0  0.04310  0.64347  0.52795  1.0000 -0.200474997
C   C308      1.0  0.16057  0.83886  0.26681  1.0000 -0.0890093965
C   C309      1.0  0.14407  0.22873  0.34106  1.0000 -0.1592832895
C   C310      1.0  0.31052  0.30793  0.39810  1.0000 0.0790666722
C   C311      1.0  0.45240  0.14852  0.40104  1.0000 -0.0826368614
C   C312      1.0  0.34976  0.27658  0.40860  1.0000 -0.2091168708
C   C313      1.0  0.20146  0.02082  0.29637  1.0000 -0.2091168708
C   C314      1.0  0.18915  0.28782  0.31883  1.0000 -0.1592832895
C   C315      1.0  0.09069  0.05026  0.23370  1.0000 -0.1592832895
C   C316      1.0  0.47480  0.91791  0.57927  1.0000 -0.1515873855
C   C317      1.0  0.18008  0.87541  0.27755  1.0000 -0.1592832895
C   C318      1.0  0.23342  0.95368  0.29440  1.0000 -0.2091168708
C   C319      1.0  0.24292  0.98972  0.30672  1.0000 0.0790666722
C   C320      1.0  0.40888  0.17808  0.38976  1.0000 -0.1592832895
C   C321      1.0  0.93939  0.67243  0.59122  1.0000 -0.1515873855
C   C322      1.0  0.13953  0.90268  0.23324  1.0000 -0.1515873855
C   C323      1.0  0.50866  0.11367  0.44264  1.0000 0.6318957362
C   C324      1.0  0.18162  0.80803  0.69763  1.0000 0.6318957362
C   C325      1.0  0.99913  0.25693  0.14740  1.0000 0.6198632777
C   C326      1.0  0.00523  0.27744  0.11969  1.0000 -0.0706401016
C   C327      1.0  0.36900  0.45398  0.98605  1.0000 0.6198632777
C   C328      1.0  0.55636  0.99256  0.90244  1.0000 0.6198632777
C   C329      1.0  0.74295  0.18138  0.18969  1.0000 -0.0516053926
C   C330      1.0  0.58488  0.54401  0.93618  1.0000 0.6198632777
C   C331      1.0  0.19613  0.18440  0.18461  1.0000 -0.0516053926
C   C332      1.0  0.90997  0.20239  0.73324  1.0000 0.6198632777
C   C333      1.0  0.12404  0.20216  0.18834  1.0000 0.6198632777
C   C334      1.0  0.53207  0.85362  0.93026  1.0000 -0.0566139082
C   C335      1.0  0.87639  0.16462  0.74158  1.0000 -0.0397519102
C   C336      1.0  0.95489  0.75408  0.77023  1.0000 0.6198632777
C   C337      1.0  0.67266  0.43591  0.97075  1.0000 0.6318957362
C   C338      1.0  0.62099  0.58051  0.92769  1.0000 -0.0566139082
C   C339      1.0  0.90735  0.74903  0.79606  1.0000 -0.0516053926
C   C340      1.0  0.29640  0.43571  0.99016  1.0000 -0.0302189319
C   C341      1.0  0.08846  0.38543  0.00799  1.0000 0.0790666722
C   C342      1.0  0.74796  0.42576  0.97952  1.0000 -0.0516053926
C   C343      1.0  0.15972  0.40209  0.99977  1.0000 0.0706591778
C   C344      1.0  0.02021  0.34344  0.04060  1.0000 0.0790666722
C   C345      1.0  0.02273  0.39815  0.99584  1.0000 -0.2091168708
C   C346      1.0  0.40339  0.13728  0.16175  1.0000 0.0790666722
C   C347      1.0  0.96641  0.89506  0.77176  1.0000 -0.0890093965
C   C348      1.0  0.60781  0.99660  0.87742  1.0000 -0.0397519102
C   C349      1.0  0.80446  0.42380  0.95907  1.0000 -0.0826368614
C   C350      1.0  0.25849  0.20566  0.18863  1.0000 -0.0890093965
C   C351      1.0  0.72841  0.17340  0.15978  1.0000 -0.0890093965
C   C352      1.0  0.61461  0.61235  0.94605  1.0000 -0.0826368614
C   C353      1.0  0.43414  0.01881  0.07243  1.0000 -0.0890093965
C   C354      1.0  0.61830  0.79319  0.90876  1.0000 0.0790666722
C   C355      1.0  0.98253  0.89318  0.74188  1.0000 -0.0516053926
C   C356      1.0  0.56209  0.82626  0.94951  1.0000 -0.0890093965
C   C357      1.0  0.60255  0.79610  0.93852  1.0000 -0.1592832895
C   C358      1.0  0.60540  0.15627  0.17151  1.0000 0.0706591778
C   C359      1.0  0.64190  0.64852  0.93720  1.0000 -0.1592832895
C   C360      1.0  0.20099  0.14655  0.17527  1.0000 -0.0890093965
C   C361      1.0  0.40513  0.11105  0.13938  1.0000 -0.200474997
C   C362      1.0  0.33183  0.15293  0.17177  1.0000 0.0790666722
C   C363      1.0  0.96442  0.26634  0.09414  1.0000 -0.0890093965
C   C364      1.0  0.66167  0.16059  0.15181  1.0000 -0.1515873855
C   C365      1.0  0.65758  0.58459  0.90154  1.0000 -0.0826368614
C   C366      1.0  0.08548  0.35877  0.03071  1.0000 -0.2091168708
C   C367      1.0  0.68686  0.17868  0.20930  1.0000 -0.0826368614
C   C368      1.0  0.86016  0.71697  0.79643  1.0000 -0.0890093965
C   C369      1.0  0.32627  0.19070  0.18181  1.0000 -0.1592832895
C   C370      1.0  0.48293  0.02831  0.05087  1.0000 -0.0397519102
C   C371      1.0  0.47412  0.07328  0.10133  1.0000 0.0706591778
C   C372      1.0  0.05463  0.30731  0.11712  1.0000 -0.0826368614
C   C373      1.0  0.75620  0.73445  0.86605  1.0000 0.0790666722
C   C374      1.0  0.01781  0.31821  0.06716  1.0000 0.0706591778
C   C375      1.0  0.90372  0.77568  0.81794  1.0000 -0.0890093965
C   C376      1.0  0.70540  0.00509  0.83130  1.0000 0.0790666722
C   C377      1.0  0.47112  0.09818  0.12731  1.0000 0.0790666722
C   C378      1.0  0.23325  0.45728  0.98532  1.0000 -0.098604146
C   C379      1.0  0.87273  0.41123  0.96759  1.0000 -0.1515873855
C   C380      1.0  0.95354  0.91979  0.72270  1.0000 -0.0890093965
C   C381      1.0  0.83096  0.09192  0.76008  1.0000 0.0790666722
C   C382      1.0  0.02479  0.86054  0.72986  1.0000 0.6318957362
C   C383      1.0  0.53492  0.13917  0.16230  1.0000 0.0790666722
C   C384      1.0  0.84943  0.98463  0.77375  1.0000 0.0790666722
C   C385      1.0  0.66035  0.97330  0.83279  1.0000 -0.1592832895
C   C386      1.0  0.22412  0.38080  0.00369  1.0000 -0.1592832895
C   C387      1.0  0.61948  0.16530  0.20075  1.0000 -0.1515873855
C   C388      1.0  0.48960  0.00597  0.02321  1.0000 0.6198632777
C   C389      1.0  0.85665  0.02148  0.76194  1.0000 -0.200474997
C   C390      1.0  0.88508  0.13303  0.72359  1.0000 -0.0826368614
C   C391      1.0  0.29144  0.39771  0.99958  1.0000 -0.098604146
C   C392      1.0  0.26898  0.13055  0.16911  1.0000 -0.1592832895
C   C393      1.0  0.61079  0.96867  0.85563  1.0000 -0.0890093965
C   C394      1.0  0.89364  0.95167  0.76274  1.0000 0.0706591778
C   C395      1.0  0.92374  0.92458  0.78181  1.0000 -0.1515873855
C   C396      1.0  0.70086  0.03284  0.85322  1.0000 -0.1515873855
C   C397      1.0  0.16634  0.43982  0.98994  1.0000 -0.1515873855
C   C398      1.0  0.74083  0.69763  0.87598  1.0000 -0.2091168708
C   C399      1.0  0.52871  0.06087  0.05424  1.0000 -0.0890093965
C   C400      1.0  0.71596  0.76587  0.87624  1.0000 -0.2091168708
C   C401      1.0  0.66323  0.76116  0.89757  1.0000 0.0790666722
C   C402      1.0  0.65336  0.02887  0.87577  1.0000 -0.0890093965
C   C403      1.0  0.68042  0.61985  0.89217  1.0000 -0.1515873855
C   C404      1.0  0.81012  0.74016  0.84187  1.0000 0.0790666722
C   C405      1.0  0.81974  0.05258  0.77276  1.0000 0.0790666722
C   C406      1.0  0.88582  0.39957  0.99598  1.0000 0.0790666722
C   C407      1.0  0.42947  0.04253  0.09721  1.0000 -0.1515873855
C   C408      1.0  0.95637  0.38378  0.00644  1.0000 0.0790666722
C   C409      1.0  0.46872  0.15063  0.17337  1.0000 -0.2091168708
C   C410      1.0  0.67025  0.65266  0.90899  1.0000 0.0790666722
C   C411      1.0  0.53577  0.11273  0.13884  1.0000 -0.2091168708
C   C412      1.0  0.76213  0.41547  0.00805  1.0000 -0.0890093965
C   C413      1.0  0.97034  0.28801  0.06960  1.0000 -0.1515873855
C   C414      1.0  0.83000  0.40283  0.01628  1.0000 -0.1592832895
C   C415      1.0  0.95690  0.35653  0.02795  1.0000 -0.200474997
C   C416      1.0  0.83943  0.16114  0.76681  1.0000 -0.0890093965
C   C417      1.0  0.85593  0.77127  0.84106  1.0000 -0.1592832895
C   C418      1.0  0.68948  0.69207  0.89810  1.0000 0.0790666722
C   C419      1.0  0.54760  0.85148  0.90104  1.0000 -0.0826368614
C   C420      1.0  0.65024  0.72342  0.90860  1.0000 -0.2091168708
C   C421      1.0  0.79854  0.97918  0.79637  1.0000 -0.2091168708
C   C422      1.0  0.81085  0.71218  0.81883  1.0000 -0.1592832895
C   C423      1.0  0.90931  0.94974  0.73370  1.0000 -0.1592832895
C   C424      1.0  0.52520  0.08209  0.07927  1.0000 -0.1515873855
C   C425      1.0  0.81992  0.12459  0.77755  1.0000 -0.1592832895
C   C426      1.0  0.76658  0.04632  0.79440  1.0000 -0.2091168708
C   C427      1.0  0.75708  0.01028  0.80672  1.0000 0.0790666722
C   C428      1.0  0.59112  0.82192  0.88976  1.0000 -0.1592832895
C   C429      1.0  0.06061  0.32757  0.09122  1.0000 -0.1515873855
C   C430      1.0  0.86047  0.09732  0.73324  1.0000 -0.1515873855
C   C431      1.0  0.49134  0.88633  0.94264  1.0000 0.6318957362
C   C432      1.0  0.81838  0.19197  0.19763  1.0000 0.6318957362
O   O1        1.0  0.49588  0.60841  0.46910  1.0000 -0.568908393
O   O2        1.0  0.48169  0.53054  0.46063  1.0000 -1.2379524704
O   O3        1.0  0.82910  0.29622  0.72356  1.0000 -0.6007607327
O   O4        1.0  0.53862  0.95352  0.45667  1.0000 -0.5532571648
O   O5        1.0  0.56646  0.48438  0.42351  1.0000 -0.5627283003
O   O6        1.0  0.37387  0.01702  0.46959  1.0000 -0.568908393
O   O7        1.0  0.03143  0.22805  0.66823  1.0000 -0.5398471202
O   O8        1.0  0.62509  0.07102  0.48953  1.0000 -0.5886301155
O   O9        1.0  0.50716  0.53292  0.40059  1.0000 -0.5886301155
O   O10       1.0  0.66132  0.04968  0.44620  1.0000 -0.5815164711
O   O11       1.0  0.86658  0.31297  0.67905  1.0000 -0.5815164711
O   O12       1.0  0.59961  0.98661  0.42264  1.0000 -0.5815164711
O   O13       1.0  0.45676  0.52554  0.52106  1.0000 -0.568908393
O   O14       1.0  0.96178  0.27395  0.64913  1.0000 -0.5886301155
O   O15       1.0  0.89011  0.26767  0.24654  1.0000 -0.5815164711
O   O16       1.0  0.97414  0.27822  0.71098  1.0000 -1.2379524704
O   O17       1.0  0.94384  0.76783  0.24870  1.0000 -0.5815164711
O   O18       1.0  0.45361  0.59298  0.42512  1.0000 -0.6007607327
O   O19       1.0  0.11956  0.26785  0.70400  1.0000 -0.568908393
O   O20       1.0  0.09875  0.19143  0.70604  1.0000 -0.8815751966
O   O21       1.0  0.95692  0.29916  0.21291  1.0000 -0.5532571648
O   O22       1.0  0.00540  0.72179  0.27149  1.0000 -0.568908393
O   O23       1.0  0.07068  0.31303  0.67538  1.0000 -0.5886301155
O   O24       1.0  0.05831  0.66124  0.24714  1.0000 -0.5886301155
O   O25       1.0  0.52892  0.47958  0.50334  1.0000 -0.5815164711
O   O26       1.0  0.42120  0.06189  0.49937  1.0000 -0.5886301155
O   O27       1.0  0.59974  0.44223  0.46580  1.0000 -0.8815751966
O   O28       1.0  0.02375  0.64354  0.20256  1.0000 -0.6007607327
O   O29       1.0  0.50412  0.39159  0.96910  1.0000 -0.568908393
O   O30       1.0  0.51831  0.46946  0.96063  1.0000 -1.2379524704
O   O31       1.0  0.17090  0.70378  0.22356  1.0000 -0.6007607327
O   O32       1.0  0.46138  0.04648  0.95667  1.0000 -0.5532571648
O   O33       1.0  0.43354  0.51562  0.92351  1.0000 -0.5627283003
O   O34       1.0  0.62613  0.98298  0.96959  1.0000 -0.568908393
O   O35       1.0  0.96857  0.77195  0.16823  1.0000 -0.5398471202
O   O36       1.0  0.37491  0.92898  0.98953  1.0000 -0.5886301155
O   O37       1.0  0.49284  0.46708  0.90059  1.0000 -0.5886301155
O   O38       1.0  0.33868  0.95032  0.94620  1.0000 -0.5815164711
O   O39       1.0  0.13342  0.68703  0.17905  1.0000 -0.5815164711
O   O40       1.0  0.40039  0.01339  0.92264  1.0000 -0.5815164711
O   O41       1.0  0.54324  0.47446  0.02106  1.0000 -0.568908393
O   O42       1.0  0.03822  0.72605  0.14913  1.0000 -0.5886301155
O   O43       1.0  0.10989  0.73233  0.74654  1.0000 -0.5815164711
O   O44       1.0  0.02586  0.72178  0.21098  1.0000 -1.2379524704
O   O45       1.0  0.05616  0.23217  0.74870  1.0000 -0.5815164711
O   O46       1.0  0.54639  0.40702  0.92512  1.0000 -0.6007607327
O   O47       1.0  0.88044  0.73215  0.20400  1.0000 -0.568908393
O   O48       1.0  0.90125  0.80857  0.20604  1.0000 -0.8815751966
O   O49       1.0  0.04308  0.70084  0.71291  1.0000 -0.5532571648
O   O50       1.0  0.99460  0.27821  0.77149  1.0000 -0.568908393
O   O51       1.0  0.92932  0.68697  0.17538  1.0000 -0.5886301155
O   O52       1.0  0.94169  0.33876  0.74714  1.0000 -0.5815164711
O   O53       1.0  0.47108  0.52042  0.00334  1.0000 -0.5815164711
O   O54       1.0  0.57880  0.93811  0.99937  1.0000 -0.5886301155
O   O55       1.0  0.40026  0.55777  0.96580  1.0000 -0.8815751966
O   O56       1.0  0.97625  0.35646  0.70256  1.0000 -0.6007607327
O   O57       1.0  0.50412  0.10841  0.46910  1.0000 -0.568908393
O   O58       1.0  0.51831  0.03054  0.46063  1.0000 -1.2379524704
O   O59       1.0  0.17090  0.79622  0.72356  1.0000 -0.6007607327
O   O60       1.0  0.46138  0.45352  0.45667  1.0000 -0.5532571648
O   O61       1.0  0.43354  0.98438  0.42351  1.0000 -0.5627283003
O   O62       1.0  0.62613  0.51702  0.46959  1.0000 -0.568908393
O   O63       1.0  0.96857  0.72805  0.66823  1.0000 -0.5398471202
O   O64       1.0  0.37491  0.57102  0.48953  1.0000 -0.5886301155
O   O65       1.0  0.49284  0.03292  0.40059  1.0000 -0.5886301155
O   O66       1.0  0.33868  0.54968  0.44620  1.0000 -0.5815164711
O   O67       1.0  0.13342  0.81297  0.67905  1.0000 -0.5815164711
O   O68       1.0  0.40039  0.48661  0.42264  1.0000 -0.5815164711
O   O69       1.0  0.54324  0.02554  0.52106  1.0000 -0.568908393
O   O70       1.0  0.03822  0.77395  0.64913  1.0000 -0.5886301155
O   O71       1.0  0.10989  0.76767  0.24654  1.0000 -0.5815164711
O   O72       1.0  0.02586  0.77822  0.71098  1.0000 -1.2379524704
O   O73       1.0  0.05616  0.26783  0.24870  1.0000 -0.5815164711
O   O74       1.0  0.54639  0.09298  0.42512  1.0000 -0.6007607327
O   O75       1.0  0.88044  0.76785  0.70400  1.0000 -0.568908393
O   O76       1.0  0.90125  0.69143  0.70604  1.0000 -0.8815751966
O   O77       1.0  0.04308  0.79916  0.21291  1.0000 -0.5532571648
O   O78       1.0  0.99460  0.22179  0.27149  1.0000 -0.568908393
O   O79       1.0  0.92932  0.81303  0.67538  1.0000 -0.5886301155
O   O80       1.0  0.94169  0.16124  0.24714  1.0000 -0.5886301155
O   O81       1.0  0.47108  0.97958  0.50334  1.0000 -0.5815164711
O   O82       1.0  0.57880  0.56189  0.49937  1.0000 -0.5886301155
O   O83       1.0  0.40026  0.94223  0.46580  1.0000 -0.8815751966
O   O84       1.0  0.97625  0.14354  0.20256  1.0000 -0.6007607327
O   O85       1.0  0.49588  0.89159  0.96910  1.0000 -0.568908393
O   O86       1.0  0.48169  0.96946  0.96063  1.0000 -1.2379524704
O   O87       1.0  0.82910  0.20378  0.22356  1.0000 -0.6007607327
O   O88       1.0  0.53862  0.54648  0.95667  1.0000 -0.5627283003
O   O89       1.0  0.56646  0.01562  0.92351  1.0000 -0.5627283003
O   O90       1.0  0.37387  0.48298  0.96959  1.0000 -0.568908393
O   O91       1.0  0.03143  0.27195  0.16823  1.0000 -0.5398471202
O   O92       1.0  0.62509  0.42898  0.98953  1.0000 -0.5886301155
O   O93       1.0  0.50716  0.96708  0.90059  1.0000 -0.5886301155
O   O94       1.0  0.66132  0.45032  0.94620  1.0000 -0.5815164711
O   O95       1.0  0.86658  0.18703  0.17905  1.0000 -0.5815164711
O   O96       1.0  0.59961  0.51339  0.92264  1.0000 -0.5815164711
O   O97       1.0  0.45676  0.97446  0.02106  1.0000 -0.568908393
O   O98       1.0  0.96178  0.22605  0.14913  1.0000 -0.5886301155
O   O99       1.0  0.89011  0.23233  0.74654  1.0000 -0.5815164711
O   O100      1.0  0.97414  0.22178  0.21098  1.0000 -1.2379524704
O   O101      1.0  0.94384  0.73217  0.74870  1.0000 -0.5815164711
O   O102      1.0  0.45361  0.90702  0.92512  1.0000 -0.6007607327
O   O103      1.0  0.11956  0.23215  0.20400  1.0000 -0.568908393
O   O104      1.0  0.09875  0.30857  0.20604  1.0000 -0.8815751966
O   O105      1.0  0.95692  0.20084  0.71291  1.0000 -0.5532571648
O   O106      1.0  0.00540  0.77821  0.77149  1.0000 -0.568908393
O   O107      1.0  0.07068  0.18697  0.17538  1.0000 -0.5886301155
O   O108      1.0  0.05831  0.83876  0.74714  1.0000 -0.5886301155
O   O109      1.0  0.52892  0.02042  0.00334  1.0000 -0.5815164711
O   O110      1.0  0.42120  0.43811  0.99937  1.0000 -0.5886301155
O   O111      1.0  0.59974  0.05777  0.96580  1.0000 -0.8815751966
O   O112      1.0  0.02375  0.85646  0.70256  1.0000 -0.6007607327
