# DDEC6 charges by PACMAN v1.1 (https://github.com/mtap-research/PACMAN-charge/)
data_2022[In][nan]3[ASR]3
_chemical_formula_sum              "In5 H20 C60 N4 O32"
_cell_length_a       17.7284
_cell_length_b       17.7284
_cell_length_c       17.7284
_cell_angle_alpha    92.1189
_cell_angle_beta     92.1189
_cell_angle_gamma    157.828

_symmetry_space_group_name_H-M    "P 1"
_symmetry_Int_Tables_number       1

loop_
  _symmetry_equiv_pos_as_xyz
  'x, y, z'

loop_
  _atom_site_type_symbol
  _atom_site_label
  _atom_site_symmetry_multiplicity
  _atom_site_fract_x
  _atom_site_fract_y
  _atom_site_fract_z
  _atom_site_occupancy
  _atom_site_charge
In  In1       1.0  0.80893  0.33747  0.12742  1.0000 1.359759896
In  In2       1.0  0.21005  0.68151  0.87258  1.0000 1.359759896
In  In3       1.0  0.31849  0.19107  0.52854  1.0000 1.359759896
In  In4       1.0  0.66253  0.78995  0.47146  1.0000 1.359759896
In  In5       1.0  0.00000  0.00000  0.00000  1.0000 1.3443095972
H   H1        1.0  0.61109  0.41587  0.96648  1.0000 0.1273399209
H   H2        1.0  0.69660  0.43078  0.75446  1.0000 0.1273399209
H   H3        1.0  0.19842  0.09039  0.78453  1.0000 0.1273399209
H   H4        1.0  0.99922  0.79320  0.96086  1.0000 0.1431773145
H   H5        1.0  0.30333  0.02190  0.01765  1.0000 0.1566843082
H   H6        1.0  0.44939  0.64461  0.03352  1.0000 0.1273399209
H   H7        1.0  0.67632  0.94214  0.24554  1.0000 0.1273399209
H   H8        1.0  0.30586  0.41389  0.21547  1.0000 0.1273399209
H   H9        1.0  0.83234  0.03836  0.03914  1.0000 0.1431773145
H   H10       1.0  0.00425  0.28568  0.98235  1.0000 0.1566843082
H   H11       1.0  0.35539  0.38891  0.80478  1.0000 0.1273399209
H   H12       1.0  0.05786  0.30340  0.73418  1.0000 0.1273399209
H   H13       1.0  0.58611  0.80158  0.89197  1.0000 0.1273399209
H   H14       1.0  0.96164  0.00078  0.79398  1.0000 0.1431773145
H   H15       1.0  0.71432  0.69667  0.71857  1.0000 0.1566843082
H   H16       1.0  0.58413  0.55061  0.19522  1.0000 0.1273399209
H   H17       1.0  0.56922  0.32368  0.26582  1.0000 0.1273399209
H   H18       1.0  0.90961  0.69414  0.10803  1.0000 0.1273399209
H   H19       1.0  0.20680  0.16766  0.20602  1.0000 0.1431773145
H   H20       1.0  0.97810  0.99575  0.28143  1.0000 0.1566843082
C   C1        1.0  0.56730  0.37410  0.91340  1.0000 -0.1177688568
C   C2        1.0  0.68450  0.44460  0.86710  1.0000 0.083384334
C   C3        1.0  0.62100  0.38560  0.78660  1.0000 -0.1355140257
C   C4        1.0  0.43830  0.25470  0.75500  1.0000 0.001445379
C   C5        1.0  0.32130  0.18150  0.80480  1.0000 -0.1093943129
C   C6        1.0  0.38840  0.24450  0.88290  1.0000 -0.0283070571
C   C7        1.0  0.27300  0.17800  0.93300  1.0000 0.5481608798
C   C8        1.0  0.37710  0.20500  0.67010  1.0000 0.5400320877
C   C9        1.0  0.88490  0.59600  0.90090  1.0000 0.0482620186
C   C10       1.0  0.02570  0.76760  0.94930  1.0000 -0.0817181702
C   C11       1.0  0.20920  0.90690  0.98210  1.0000 -0.1013263809
C   C12       1.0  0.24970  0.87100  0.96070  1.0000 0.1273399209
C   C13       1.0  0.93290  0.56370  0.88260  1.0000 0.0869079296
C   C14       1.0  0.80100  0.38060  0.83760  1.0000 0.556720226
C   C15       1.0  0.44320  0.01070  0.98990  1.0000 0.5685802688
C   C16       1.0  0.46070  0.65390  0.08660  1.0000 -0.1177688568
C   C17       1.0  0.57750  0.81740  0.13290  1.0000 0.083384334
C   C18       1.0  0.59900  0.83440  0.21340  1.0000 -0.1355140257
C   C19       1.0  0.49970  0.68330  0.24500  1.0000 0.001445379
C   C20       1.0  0.37670  0.51650  0.19520  1.0000 -0.1093943129
C   C21       1.0  0.36160  0.50550  0.11710  1.0000 -0.0283070571
C   C22       1.0  0.24500  0.34000  0.06700  1.0000 0.5481608798
C   C23       1.0  0.53490  0.70700  0.32990  1.0000 0.5400320877
C   C24       1.0  0.69510  0.98400  0.09910  1.0000 0.0482620186
C   C25       1.0  0.81830  0.07640  0.05070  1.0000 -0.0817181702
C   C26       1.0  0.92480  0.22710  0.01790  1.0000 -0.1013263809
C   C27       1.0  0.91030  0.28900  0.03930  1.0000 0.1273399209
C   C28       1.0  0.68110  0.05030  0.11740  1.0000 0.0869079296
C   C29       1.0  0.54300  0.96340  0.16240  1.0000 0.556720226
C   C30       1.0  0.02080  0.45330  0.01010  1.0000 0.5685802688
C   C31       1.0  0.34610  0.43270  0.80680  1.0000 -0.1177688568
C   C32       1.0  0.18260  0.31550  0.76010  1.0000 0.083384334
C   C33       1.0  0.16560  0.37900  0.76460  1.0000 -0.1355140257
C   C34       1.0  0.31670  0.56170  0.81640  1.0000 0.001445379
C   C35       1.0  0.48350  0.67870  0.86020  1.0000 -0.1093943129
C   C36       1.0  0.49450  0.61160  0.85610  1.0000 -0.0283070571
C   C37       1.0  0.66000  0.72700  0.90500  1.0000 0.5481608798
C   C38       1.0  0.29300  0.62290  0.82790  1.0000 0.5400320877
C   C39       1.0  0.01600  0.11510  0.71110  1.0000 0.0482620186
C   C40       1.0  0.92360  0.97430  0.74190  1.0000 -0.0817181702
C   C41       1.0  0.77290  0.79080  0.69770  1.0000 -0.1013263809
C   C42       1.0  0.71100  0.75030  0.62130  1.0000 0.1273399209
C   C43       1.0  0.94970  0.06710  0.63080  1.0000 0.0869079296
C   C44       1.0  0.03660  0.19900  0.57960  1.0000 0.556720226
C   C45       1.0  0.54670  0.55680  0.56750  1.0000 0.5685802688
C   C46       1.0  0.62590  0.53930  0.19320  1.0000 -0.1177688568
C   C47       1.0  0.55540  0.42250  0.23990  1.0000 0.083384334
C   C48       1.0  0.61440  0.40100  0.23540  1.0000 -0.1355140257
C   C49       1.0  0.74530  0.50030  0.18360  1.0000 0.001445379
C   C50       1.0  0.81850  0.62330  0.13980  1.0000 -0.1093943129
C   C51       1.0  0.75550  0.63840  0.14390  1.0000 -0.0283070571
C   C52       1.0  0.82200  0.75500  0.09500  1.0000 0.5481608798
C   C53       1.0  0.79500  0.46510  0.17210  1.0000 0.5400320877
C   C54       1.0  0.40400  0.30490  0.28890  1.0000 0.0482620186
C   C55       1.0  0.23240  0.18170  0.25810  1.0000 -0.0817181702
C   C56       1.0  0.09310  0.07520  0.30230  1.0000 -0.1013263809
C   C57       1.0  0.12900  0.08970  0.37870  1.0000 0.1273399209
C   C58       1.0  0.43630  0.31890  0.36920  1.0000 0.0869079296
C   C59       1.0  0.61940  0.45700  0.42040  1.0000 0.556720226
C   C60       1.0  0.98930  0.97920  0.43250  1.0000 0.5685802688
N   N1        1.0  0.11870  0.71080  0.91050  1.0000 -0.2868501331
N   N2        1.0  0.80030  0.20820  0.08950  1.0000 -0.2868501331
N   N3        1.0  0.79180  0.88130  0.59210  1.0000 -0.2868501331
N   N4        1.0  0.28920  0.19970  0.40790  1.0000 -0.2868501331
O   O1        1.0  0.32720  0.23100  0.00440  1.0000 -0.5008778682
O   O2        1.0  0.11040  0.06000  0.90240  1.0000 -0.5211185128
O   O3        1.0  0.49650  0.29310  0.62700  1.0000 -0.5008778682
O   O4        1.0  0.21940  0.09140  0.64220  1.0000 -0.489418314
O   O5        1.0  0.60950  0.21300  0.82250  1.0000 -0.5211185128
O   O6        1.0  0.88720  0.40200  0.82060  1.0000 -0.5211185128
O   O7        1.0  0.56810  0.15850  0.04380  1.0000 -0.5008778682
O   O8        1.0  0.46590  0.96670  0.96120  1.0000 -0.5211185128
O   O9        1.0  0.22660  0.32280  0.99560  1.0000 -0.5008778682
O   O10       1.0  0.15760  0.20800  0.09760  1.0000 -0.5211185128
O   O11       1.0  0.66610  0.86950  0.37300  1.0000 -0.5008778682
O   O12       1.0  0.44920  0.57720  0.35780  1.0000 -0.489418314
O   O13       1.0  0.39050  0.78700  0.17750  1.0000 -0.5211185128
O   O14       1.0  0.58140  0.06660  0.17940  1.0000 -0.5211185128
O   O15       1.0  0.11470  0.52430  0.95620  1.0000 -0.5008778682
O   O16       1.0  0.00550  0.50470  0.03880  1.0000 -0.5211185128
O   O17       1.0  0.67720  0.67280  0.90380  1.0000 -0.5008778682
O   O18       1.0  0.79200  0.88960  0.94960  1.0000 -0.5211185128
O   O19       1.0  0.13050  0.50350  0.79660  1.0000 -0.5008778682
O   O20       1.0  0.42280  0.78060  0.87200  1.0000 -0.489418314
O   O21       1.0  0.21300  0.39050  0.60350  1.0000 -0.5211185128
O   O22       1.0  0.93340  0.11280  0.51480  1.0000 -0.5211185128
O   O23       1.0  0.47570  0.43190  0.59040  1.0000 -0.5008778682
O   O24       1.0  0.49530  0.53410  0.50080  1.0000 -0.5257057856
O   O25       1.0  0.76900  0.77340  0.09620  1.0000 -0.5008778682
O   O26       1.0  0.94000  0.84240  0.05040  1.0000 -0.5211185128
O   O27       1.0  0.70690  0.33390  0.20340  1.0000 -0.5008778682
O   O28       1.0  0.90860  0.55080  0.12800  1.0000 -0.489418314
O   O29       1.0  0.78700  0.60950  0.39650  1.0000 -0.5211185128
O   O30       1.0  0.59800  0.41860  0.48520  1.0000 -0.5211185128
O   O31       1.0  0.84150  0.88530  0.40960  1.0000 -0.5008778682
O   O32       1.0  0.03330  0.99450  0.49920  1.0000 -0.5211185128
