# DDEC6 charges by PACMAN v1.1 (https://github.com/mtap-research/PACMAN-charge/)
data_2022[Cd][hms]3[ASR]1
_chemical_formula_sum              "Cd8 H168 C256 N20 O32 F12"
_cell_length_a       22.7936
_cell_length_b       14.0464
_cell_length_c       23.5625
_cell_angle_alpha    90
_cell_angle_beta     108.374
_cell_angle_gamma    90

_symmetry_space_group_name_H-M    "P 1"
_symmetry_Int_Tables_number       1

loop_
  _symmetry_equiv_pos_as_xyz
  'x, y, z'

loop_
  _atom_site_type_symbol
  _atom_site_label
  _atom_site_symmetry_multiplicity
  _atom_site_fract_x
  _atom_site_fract_y
  _atom_site_fract_z
  _atom_site_occupancy
  _atom_site_charge
Cd  Cd1       1.0  0.12004  0.92926  0.50053  1.0000 0.7897219051
Cd  Cd2       1.0  0.26465  0.89295  0.68167  1.0000 0.8123230775
Cd  Cd3       1.0  0.37996  0.42926  0.49947  1.0000 0.7897219051
Cd  Cd4       1.0  0.23535  0.39295  0.31833  1.0000 0.8123230775
Cd  Cd5       1.0  0.87996  0.07074  0.49947  1.0000 0.7897219051
Cd  Cd6       1.0  0.73535  0.10705  0.31833  1.0000 0.8123230775
Cd  Cd7       1.0  0.62004  0.57074  0.50053  1.0000 0.7897219051
Cd  Cd8       1.0  0.76465  0.60705  0.68167  1.0000 0.8123230775
H   H1        1.0  0.59840  0.88522  0.72979  1.0000 0.1404335505
H   H2        1.0  0.55812  0.88839  0.88333  1.0000 0.1186063411
H   H3        1.0  0.45585  0.89766  0.82973  1.0000 0.1186063411
H   H4        1.0  0.68741  0.97428  0.79436  1.0000 0.1092033474
H   H5        1.0  0.79098  0.96911  0.84836  1.0000 0.1294746572
H   H6        1.0  0.75616  0.78506  0.96212  1.0000 0.1294746572
H   H7        1.0  0.65174  0.79553  0.91180  1.0000 0.1186063411
H   H8        1.0  0.95082  0.96373  0.96282  1.0000 0.1186063411
H   H9        1.0  0.84564  0.78583  0.84129  1.0000 0.1404335505
H   H10       1.0  0.97011  0.85678  0.73034  1.0000 0.1404335505
H   H11       1.0  0.09930  0.88101  0.88892  1.0000 0.1092033474
H   H12       1.0  0.91536  0.78953  0.78865  1.0000 0.1186063411
H   H13       1.0  0.02335  0.96403  0.91196  1.0000 0.1092033474
H   H14       1.0  0.08626  0.90005  0.29135  1.0000 0.1092033474
H   H15       1.0  0.03944  0.87935  0.19275  1.0000 0.1186063411
H   H16       1.0  0.87471  0.86818  0.21941  1.0000 0.1294746572
H   H17       1.0  0.98653  0.78074  0.11120  1.0000 0.1186063411
H   H18       1.0  0.94762  0.78189  0.00882  1.0000 0.1294746572
H   H19       1.0  0.80422  0.93863  0.02139  1.0000 0.1294746572
H   H20       1.0  0.84434  0.93128  0.12301  1.0000 0.1186063411
H   H21       1.0  0.20980  0.07377  0.73078  1.0000 0.1092033474
H   H22       1.0  0.20569  0.23454  0.73263  1.0000 0.1404335505
H   H23       1.0  0.32335  0.24442  0.64015  1.0000 0.1404335505
H   H24       1.0  0.32609  0.08271  0.64251  1.0000 0.0995435084
H   H25       1.0  0.23896  0.39020  0.71200  1.0000 0.1092033474
H   H26       1.0  0.29698  0.40141  0.62701  1.0000 0.1404335505
H   H27       1.0  0.32489  0.56187  0.60891  1.0000 0.1404335505
H   H28       1.0  0.06650  0.10826  0.41674  1.0000 0.1092033474
H   H29       1.0  0.06726  0.27359  0.40909  1.0000 0.1404335505
H   H30       1.0  0.14241  0.27880  0.58119  1.0000 0.1294746572
H   H31       1.0  0.15314  0.11601  0.58065  1.0000 0.1092033474
H   H32       1.0  0.10499  0.42054  0.45587  1.0000 0.1404335505
H   H33       1.0  0.32468  0.72317  0.62341  1.0000 0.0995435084
H   H34       1.0  0.22143  0.69751  0.71987  1.0000 0.0995435084
H   H35       1.0  0.22588  0.53701  0.71696  1.0000 0.1186063411
H   H36       1.0  0.07171  0.75820  0.56925  1.0000 0.1186063411
H   H37       1.0  0.16123  0.73467  0.46156  1.0000 0.1092033474
H   H38       1.0  0.15982  0.56985  0.46759  1.0000 0.1294746572
H   H39       1.0  0.07741  0.59799  0.58632  1.0000 0.1404335505
H   H40       1.0  0.11860  0.43721  0.56758  1.0000 0.1404335505
H   H41       1.0  0.29010  0.90935  0.56153  1.0000 0.1186063411
H   H42       1.0  0.17517  0.88280  0.84365  1.0000 0.1092033474
H   H43       1.0  0.90160  0.38522  0.27021  1.0000 0.1294746572
H   H44       1.0  0.94188  0.38839  0.11667  1.0000 0.1186063411
H   H45       1.0  0.04415  0.39766  0.17027  1.0000 0.1186063411
H   H46       1.0  0.81259  0.47428  0.20564  1.0000 0.1092033474
H   H47       1.0  0.70902  0.46911  0.15164  1.0000 0.1294746572
H   H48       1.0  0.74384  0.28506  0.03788  1.0000 0.1294746572
H   H49       1.0  0.84826  0.29553  0.08820  1.0000 0.1186063411
H   H50       1.0  0.54918  0.46373  0.03718  1.0000 0.1186063411
H   H51       1.0  0.65436  0.28583  0.15871  1.0000 0.1404335505
H   H52       1.0  0.52989  0.35678  0.26966  1.0000 0.1404335505
H   H53       1.0  0.40070  0.38101  0.11108  1.0000 0.1092033474
H   H54       1.0  0.58464  0.28953  0.21135  1.0000 0.1186063411
H   H55       1.0  0.47665  0.46403  0.08804  1.0000 0.1092033474
H   H56       1.0  0.41374  0.40005  0.70865  1.0000 0.1092033474
H   H57       1.0  0.46056  0.37935  0.80725  1.0000 0.1186063411
H   H58       1.0  0.62529  0.36818  0.78059  1.0000 0.1294746572
H   H59       1.0  0.51347  0.28074  0.88880  1.0000 0.1186063411
H   H60       1.0  0.55238  0.28189  0.99118  1.0000 0.1294746572
H   H61       1.0  0.69578  0.43863  0.97861  1.0000 0.1294746572
H   H62       1.0  0.65566  0.43128  0.87699  1.0000 0.1186063411
H   H63       1.0  0.29020  0.57377  0.26922  1.0000 0.1092033474
H   H64       1.0  0.29431  0.73454  0.26737  1.0000 0.1404335505
H   H65       1.0  0.17665  0.74442  0.35985  1.0000 0.1404335505
H   H66       1.0  0.17391  0.58271  0.35749  1.0000 0.0995435084
H   H67       1.0  0.26104  0.89020  0.28800  1.0000 0.1092033474
H   H68       1.0  0.20302  0.90141  0.37299  1.0000 0.1404335505
H   H69       1.0  0.17511  0.06187  0.39109  1.0000 0.1404335505
H   H70       1.0  0.43350  0.60826  0.58326  1.0000 0.1092033474
H   H71       1.0  0.43274  0.77359  0.59091  1.0000 0.1404335505
H   H72       1.0  0.35759  0.77880  0.41881  1.0000 0.1294746572
H   H73       1.0  0.34686  0.61601  0.41935  1.0000 0.1092033474
H   H74       1.0  0.39501  0.92054  0.54413  1.0000 0.1404335505
H   H75       1.0  0.17532  0.22317  0.37659  1.0000 0.0995435084
H   H76       1.0  0.27857  0.19751  0.28013  1.0000 0.0995435084
H   H77       1.0  0.27412  0.03701  0.28304  1.0000 0.1186063411
H   H78       1.0  0.42829  0.25820  0.43075  1.0000 0.1186063411
H   H79       1.0  0.33877  0.23467  0.53844  1.0000 0.1092033474
H   H80       1.0  0.34018  0.06985  0.53241  1.0000 0.1294746572
H   H81       1.0  0.42259  0.09799  0.41368  1.0000 0.1404335505
H   H82       1.0  0.38140  0.93721  0.43242  1.0000 0.1404335505
H   H83       1.0  0.20990  0.40935  0.43847  1.0000 0.1186063411
H   H84       1.0  0.32483  0.38280  0.15635  1.0000 0.1092033474
H   H85       1.0  0.40160  0.11478  0.27021  1.0000 0.1294746572
H   H86       1.0  0.44188  0.11161  0.11667  1.0000 0.1186063411
H   H87       1.0  0.54415  0.10234  0.17027  1.0000 0.1186063411
H   H88       1.0  0.31259  0.02572  0.20564  1.0000 0.1092033474
H   H89       1.0  0.20902  0.03089  0.15164  1.0000 0.1294746572
H   H90       1.0  0.24384  0.21494  0.03788  1.0000 0.1294746572
H   H91       1.0  0.34826  0.20447  0.08820  1.0000 0.1186063411
H   H92       1.0  0.04918  0.03627  0.03718  1.0000 0.1186063411
H   H93       1.0  0.15436  0.21417  0.15871  1.0000 0.1404335505
H   H94       1.0  0.02989  0.14322  0.26966  1.0000 0.1404335505
H   H95       1.0  0.90070  0.11899  0.11108  1.0000 0.1092033474
H   H96       1.0  0.08464  0.21047  0.21135  1.0000 0.1186063411
H   H97       1.0  0.97665  0.03597  0.08804  1.0000 0.1092033474
H   H98       1.0  0.91374  0.09995  0.70865  1.0000 0.1092033474
H   H99       1.0  0.96056  0.12065  0.80725  1.0000 0.1186063411
H   H100      1.0  0.12529  0.13182  0.78059  1.0000 0.1294746572
H   H101      1.0  0.01347  0.21926  0.88880  1.0000 0.1186063411
H   H102      1.0  0.05238  0.21811  0.99118  1.0000 0.1294746572
H   H103      1.0  0.19578  0.06137  0.97861  1.0000 0.1294746572
H   H104      1.0  0.15566  0.06872  0.87699  1.0000 0.1186063411
H   H105      1.0  0.79020  0.92623  0.26922  1.0000 0.1092033474
H   H106      1.0  0.79431  0.76546  0.26737  1.0000 0.1404335505
H   H107      1.0  0.67665  0.75558  0.35985  1.0000 0.1404335505
H   H108      1.0  0.67391  0.91729  0.35749  1.0000 0.0995435084
H   H109      1.0  0.76104  0.60980  0.28800  1.0000 0.1092033474
H   H110      1.0  0.70302  0.59859  0.37299  1.0000 0.1404335505
H   H111      1.0  0.67511  0.43813  0.39109  1.0000 0.1404335505
H   H112      1.0  0.93350  0.89174  0.58326  1.0000 0.1092033474
H   H113      1.0  0.93274  0.72641  0.59091  1.0000 0.1404335505
H   H114      1.0  0.85759  0.72120  0.41881  1.0000 0.1294746572
H   H115      1.0  0.84686  0.88399  0.41935  1.0000 0.1092033474
H   H116      1.0  0.89501  0.57946  0.54413  1.0000 0.1404335505
H   H117      1.0  0.67532  0.27683  0.37659  1.0000 0.0995435084
H   H118      1.0  0.77857  0.30249  0.28013  1.0000 0.0995435084
H   H119      1.0  0.77412  0.46299  0.28304  1.0000 0.1186063411
H   H120      1.0  0.92829  0.24180  0.43075  1.0000 0.1186063411
H   H121      1.0  0.83877  0.26533  0.53844  1.0000 0.1092033474
H   H122      1.0  0.84018  0.43015  0.53241  1.0000 0.1294746572
H   H123      1.0  0.92259  0.40201  0.41368  1.0000 0.1404335505
H   H124      1.0  0.88140  0.56279  0.43242  1.0000 0.1404335505
H   H125      1.0  0.70990  0.09065  0.43847  1.0000 0.1186063411
H   H126      1.0  0.82483  0.11720  0.15635  1.0000 0.1092033474
H   H127      1.0  0.09840  0.61478  0.72979  1.0000 0.1404335505
H   H128      1.0  0.05812  0.61161  0.88333  1.0000 0.1186063411
H   H129      1.0  0.95585  0.60234  0.82973  1.0000 0.1186063411
H   H130      1.0  0.18741  0.52572  0.79436  1.0000 0.1092033474
H   H131      1.0  0.29098  0.53089  0.84836  1.0000 0.1294746572
H   H132      1.0  0.25616  0.71494  0.96212  1.0000 0.1294746572
H   H133      1.0  0.15174  0.70447  0.91180  1.0000 0.1186063411
H   H134      1.0  0.45082  0.53627  0.96282  1.0000 0.1186063411
H   H135      1.0  0.34564  0.71417  0.84129  1.0000 0.1404335505
H   H136      1.0  0.47011  0.64322  0.73034  1.0000 0.1404335505
H   H137      1.0  0.59930  0.61899  0.88892  1.0000 0.1092033474
H   H138      1.0  0.41536  0.71047  0.78865  1.0000 0.1186063411
H   H139      1.0  0.52335  0.53597  0.91196  1.0000 0.1092033474
H   H140      1.0  0.58626  0.59995  0.29135  1.0000 0.1092033474
H   H141      1.0  0.53944  0.62065  0.19275  1.0000 0.1186063411
H   H142      1.0  0.37471  0.63182  0.21941  1.0000 0.1294746572
H   H143      1.0  0.48653  0.71926  0.11120  1.0000 0.1186063411
H   H144      1.0  0.44762  0.71811  0.00882  1.0000 0.1294746572
H   H145      1.0  0.30422  0.56137  0.02139  1.0000 0.1294746572
H   H146      1.0  0.34434  0.56872  0.12301  1.0000 0.1186063411
H   H147      1.0  0.70980  0.42623  0.73078  1.0000 0.1092033474
H   H148      1.0  0.70569  0.26546  0.73263  1.0000 0.1404335505
H   H149      1.0  0.82335  0.25558  0.64015  1.0000 0.1404335505
H   H150      1.0  0.82609  0.41729  0.64251  1.0000 0.0995435084
H   H151      1.0  0.73896  0.10980  0.71200  1.0000 0.1092033474
H   H152      1.0  0.79698  0.09859  0.62701  1.0000 0.1404335505
H   H153      1.0  0.82489  0.93813  0.60891  1.0000 0.1404335505
H   H154      1.0  0.56650  0.39174  0.41674  1.0000 0.1092033474
H   H155      1.0  0.56726  0.22641  0.40909  1.0000 0.1404335505
H   H156      1.0  0.64241  0.22120  0.58119  1.0000 0.1294746572
H   H157      1.0  0.65314  0.38399  0.58065  1.0000 0.1092033474
H   H158      1.0  0.60499  0.07946  0.45587  1.0000 0.1404335505
H   H159      1.0  0.82468  0.77683  0.62341  1.0000 0.0995435084
H   H160      1.0  0.72143  0.80249  0.71987  1.0000 0.0995435084
H   H161      1.0  0.72588  0.96299  0.71696  1.0000 0.1186063411
H   H162      1.0  0.57171  0.74180  0.56925  1.0000 0.1186063411
H   H163      1.0  0.66123  0.76533  0.46156  1.0000 0.1092033474
H   H164      1.0  0.65982  0.93015  0.46759  1.0000 0.1294746572
H   H165      1.0  0.57741  0.90201  0.58632  1.0000 0.1404335505
H   H166      1.0  0.61860  0.06279  0.56758  1.0000 0.1404335505
H   H167      1.0  0.79010  0.59065  0.56153  1.0000 0.1186063411
H   H168      1.0  0.67517  0.61720  0.84365  1.0000 0.1092033474
C   C1        1.0  0.39450  0.89420  0.71560  1.0000 0.555570348
C   C2        1.0  0.46280  0.89380  0.74670  1.0000 -0.1576219497
C   C3        1.0  0.50870  0.89360  0.72010  1.0000 0.2680340324
C   C4        1.0  0.57000  0.88840  0.75070  1.0000 -0.2786573331
C   C5        1.0  0.59090  0.88790  0.81280  1.0000 0.1092033474
C   C6        1.0  0.54620  0.88990  0.84180  1.0000 -0.1706152494
C   C7        1.0  0.48460  0.89430  0.80920  1.0000 -0.0910928111
C   C8        1.0  0.65810  0.88480  0.84640  1.0000 0.0593705477
C   C9        1.0  0.70080  0.93630  0.82830  1.0000 -0.1369597326
C   C10       1.0  0.76310  0.93200  0.86020  1.0000 -0.1805510212
C   C11       1.0  0.78430  0.87340  0.90900  1.0000 0.1676626977
C   C12       1.0  0.74230  0.82330  0.92830  1.0000 -0.1805510212
C   C13       1.0  0.67960  0.82900  0.89790  1.0000 -0.1311351583
C   C14       1.0  0.87120  0.86250  0.00290  1.0000 0.1831394721
C   C15       1.0  0.94440  0.92730  0.92840  1.0000 -0.1890563566
C   C16       1.0  0.89170  0.87160  0.90680  1.0000 0.1625054021
C   C17       1.0  0.88150  0.82180  0.85570  1.0000 -0.1706152494
C   C18       1.0  0.16870  0.87750  0.73000  1.0000 0.5348085006
C   C19       1.0  0.11770  0.87060  0.75810  1.0000 -0.1369597326
C   C20       1.0  0.05640  0.86250  0.72690  1.0000 0.2586887021
C   C21       1.0  0.01130  0.86260  0.75370  1.0000 -0.2697456042
C   C22       1.0  0.02610  0.87130  0.81560  1.0000 0.0995435084
C   C23       1.0  0.08780  0.87720  0.84750  1.0000 -0.1805510212
C   C24       1.0  0.97810  0.87430  0.84440  1.0000 0.0593705477
C   C25       1.0  0.92390  0.82350  0.82420  1.0000 -0.1190642688
C   C26       1.0  0.98760  0.92780  0.89740  1.0000 -0.1311351583
C   C27       1.0  0.04330  0.90900  0.38330  1.0000 0.5481484969
C   C28       1.0  0.01000  0.89610  0.31770  1.0000 -0.1521831116
C   C29       1.0  0.04350  0.89320  0.27720  1.0000 -0.102191263
C   C30       1.0  0.01550  0.88090  0.21820  1.0000 -0.1576219497
C   C31       1.0  0.95200  0.87040  0.19430  1.0000 0.1092033474
C   C32       1.0  0.91750  0.87410  0.23360  1.0000 -0.2786573331
C   C33       1.0  0.94720  0.88660  0.29300  1.0000 0.2680340324
C   C34       1.0  0.92190  0.86220  0.12870  1.0000 0.0437786494
C   C35       1.0  0.95020  0.81410  0.09290  1.0000 -0.1311351583
C   C36       1.0  0.92690  0.81380  0.03140  1.0000 -0.1805510212
C   C37       1.0  0.84130  0.90680  0.03880  1.0000 -0.1805510212
C   C38       1.0  0.86630  0.90370  0.10010  1.0000 -0.1311351583
C   C39       1.0  0.23340  0.10820  0.71220  1.0000 0.083516308
C   C40       1.0  0.23040  0.20480  0.71310  1.0000 -0.2103622864
C   C41       1.0  0.26390  0.25920  0.68520  1.0000 0.1495943506
C   C42       1.0  0.29950  0.21140  0.65920  1.0000 -0.1890563566
C   C43       1.0  0.30070  0.11370  0.66070  1.0000 0.0593705477
C   C44       1.0  0.25840  0.36480  0.68620  1.0000 -0.1576219497
C   C45       1.0  0.27850  0.42550  0.65400  1.0000 -0.1190642688
C   C46       1.0  0.27340  0.52780  0.65840  1.0000 0.1495943506
C   C47       1.0  0.30250  0.58670  0.63240  1.0000 -0.1980700168
C   C48       1.0  0.08820  0.14310  0.45040  1.0000 0.0853297104
C   C49       1.0  0.08610  0.24320  0.44530  1.0000 -0.2697456042
C   C50       1.0  0.11450  0.29500  0.49880  1.0000 0.1294746572
C   C51       1.0  0.13170  0.24750  0.54460  1.0000 -0.1805510212
C   C52       1.0  0.13590  0.14660  0.54420  1.0000 0.0995435084
C   C53       1.0  0.11090  0.39810  0.49440  1.0000 -0.1096225019
C   C54       1.0  0.30030  0.68540  0.63940  1.0000 0.0723085691
C   C55       1.0  0.24220  0.67040  0.69570  1.0000 0.083516308
C   C56       1.0  0.24430  0.57290  0.69400  1.0000 -0.2313107739
C   C57       1.0  0.09130  0.72110  0.54790  1.0000 0.0995435084
C   C58       1.0  0.14070  0.70770  0.48600  1.0000 0.0995435084
C   C59       1.0  0.14000  0.60600  0.48910  1.0000 -0.2375572079
C   C60       1.0  0.11130  0.56410  0.52240  1.0000 0.1404335505
C   C61       1.0  0.09150  0.62270  0.55630  1.0000 -0.2375572079
C   C62       1.0  0.11380  0.45860  0.52900  1.0000 -0.1096225019
C   C63       1.0  0.24750  0.91740  0.54610  1.0000 0.4111353893
C   C64       1.0  0.13390  0.87770  0.82050  1.0000 -0.102191263
C   C65       1.0  0.10550  0.39420  0.28440  1.0000 0.555570348
C   C66       1.0  0.03720  0.39380  0.25330  1.0000 -0.1576219497
C   C67       1.0  0.99130  0.39360  0.27990  1.0000 0.2680340324
C   C68       1.0  0.93000  0.38840  0.24930  1.0000 -0.2786573331
C   C69       1.0  0.90910  0.38790  0.18720  1.0000 0.1092033474
C   C70       1.0  0.95380  0.38990  0.15820  1.0000 -0.1706152494
C   C71       1.0  0.01540  0.39430  0.19080  1.0000 -0.0910928111
C   C72       1.0  0.84190  0.38480  0.15360  1.0000 0.0593705477
C   C73       1.0  0.79920  0.43630  0.17170  1.0000 -0.1369597326
C   C74       1.0  0.73690  0.43200  0.13980  1.0000 -0.1805510212
C   C75       1.0  0.71570  0.37340  0.09100  1.0000 0.1676626977
C   C76       1.0  0.75770  0.32330  0.07170  1.0000 -0.1805510212
C   C77       1.0  0.82040  0.32900  0.10210  1.0000 -0.1311351583
C   C78       1.0  0.62880  0.36250  0.99710  1.0000 0.1831394721
C   C79       1.0  0.55560  0.42730  0.07160  1.0000 -0.1890563566
C   C80       1.0  0.60830  0.37160  0.09320  1.0000 0.1625054021
C   C81       1.0  0.61850  0.32180  0.14430  1.0000 -0.1706152494
C   C82       1.0  0.33130  0.37750  0.27000  1.0000 0.5348085006
C   C83       1.0  0.38230  0.37060  0.24190  1.0000 -0.1369597326
C   C84       1.0  0.44360  0.36250  0.27310  1.0000 0.2586887021
C   C85       1.0  0.48870  0.36260  0.24630  1.0000 -0.2697456042
C   C86       1.0  0.47390  0.37130  0.18440  1.0000 0.0995435084
C   C87       1.0  0.41220  0.37720  0.15250  1.0000 -0.1805510212
C   C88       1.0  0.52190  0.37430  0.15560  1.0000 0.0593705477
C   C89       1.0  0.57610  0.32350  0.17580  1.0000 -0.1190642688
C   C90       1.0  0.51240  0.42780  0.10260  1.0000 -0.1311351583
C   C91       1.0  0.45670  0.40900  0.61670  1.0000 0.5481484969
C   C92       1.0  0.49000  0.39610  0.68230  1.0000 -0.1521831116
C   C93       1.0  0.45650  0.39320  0.72280  1.0000 -0.102191263
C   C94       1.0  0.48450  0.38090  0.78180  1.0000 -0.1576219497
C   C95       1.0  0.54800  0.37040  0.80570  1.0000 0.1092033474
C   C96       1.0  0.58250  0.37410  0.76640  1.0000 -0.2786573331
C   C97       1.0  0.55280  0.38660  0.70700  1.0000 0.2680340324
C   C98       1.0  0.57810  0.36220  0.87130  1.0000 0.0437786494
C   C99       1.0  0.54980  0.31410  0.90710  1.0000 -0.1311351583
C   C100      1.0  0.57310  0.31380  0.96860  1.0000 -0.1805510212
C   C101      1.0  0.65870  0.40680  0.96120  1.0000 -0.1805510212
C   C102      1.0  0.63370  0.40370  0.89990  1.0000 -0.1311351583
C   C103      1.0  0.26660  0.60820  0.28780  1.0000 0.083516308
C   C104      1.0  0.26960  0.70480  0.28690  1.0000 -0.2103622864
C   C105      1.0  0.23610  0.75920  0.31480  1.0000 0.1495943506
C   C106      1.0  0.20050  0.71140  0.34080  1.0000 -0.1890563566
C   C107      1.0  0.19930  0.61370  0.33930  1.0000 0.0593705477
C   C108      1.0  0.24160  0.86480  0.31380  1.0000 -0.1576219497
C   C109      1.0  0.22150  0.92550  0.34600  1.0000 -0.1190642688
C   C110      1.0  0.22660  0.02780  0.34160  1.0000 0.1495943506
C   C111      1.0  0.19750  0.08670  0.36760  1.0000 -0.1980700168
C   C112      1.0  0.41180  0.64310  0.54960  1.0000 0.0853297104
C   C113      1.0  0.41390  0.74320  0.55470  1.0000 -0.2697456042
C   C114      1.0  0.38550  0.79500  0.50120  1.0000 0.1294746572
C   C115      1.0  0.36830  0.74750  0.45540  1.0000 -0.1805510212
C   C116      1.0  0.36410  0.64660  0.45580  1.0000 0.0995435084
C   C117      1.0  0.38910  0.89810  0.50560  1.0000 -0.1096225019
C   C118      1.0  0.19970  0.18540  0.36060  1.0000 0.0723085691
C   C119      1.0  0.25780  0.17040  0.30430  1.0000 0.083516308
C   C120      1.0  0.25570  0.07290  0.30600  1.0000 -0.2313107739
C   C121      1.0  0.40870  0.22110  0.45210  1.0000 0.0995435084
C   C122      1.0  0.35930  0.20770  0.51400  1.0000 0.0995435084
C   C123      1.0  0.36000  0.10600  0.51090  1.0000 -0.2313107739
C   C124      1.0  0.38870  0.06410  0.47760  1.0000 0.1404335505
C   C125      1.0  0.40850  0.12270  0.44370  1.0000 -0.2375572079
C   C126      1.0  0.38620  0.95860  0.47100  1.0000 -0.1096225019
C   C127      1.0  0.25250  0.41740  0.45390  1.0000 0.4111353893
C   C128      1.0  0.36610  0.37770  0.17950  1.0000 -0.102191263
C   C129      1.0  0.60550  0.10580  0.28440  1.0000 0.555570348
C   C130      1.0  0.53720  0.10620  0.25330  1.0000 -0.1576219497
C   C131      1.0  0.49130  0.10640  0.27990  1.0000 0.2680340324
C   C132      1.0  0.43000  0.11160  0.24930  1.0000 -0.2786573331
C   C133      1.0  0.40910  0.11210  0.18720  1.0000 0.1092033474
C   C134      1.0  0.45380  0.11010  0.15820  1.0000 -0.1706152494
C   C135      1.0  0.51540  0.10570  0.19080  1.0000 -0.0910928111
C   C136      1.0  0.34190  0.11520  0.15360  1.0000 0.0593705477
C   C137      1.0  0.29920  0.06370  0.17170  1.0000 -0.1369597326
C   C138      1.0  0.23690  0.06800  0.13980  1.0000 -0.1805510212
C   C139      1.0  0.21570  0.12660  0.09100  1.0000 0.1676626977
C   C140      1.0  0.25770  0.17670  0.07170  1.0000 -0.1805510212
C   C141      1.0  0.32040  0.17100  0.10210  1.0000 -0.1311351583
C   C142      1.0  0.12880  0.13750  0.99710  1.0000 0.1831394721
C   C143      1.0  0.05560  0.07270  0.07160  1.0000 -0.1890563566
C   C144      1.0  0.10830  0.12840  0.09320  1.0000 0.1625054021
C   C145      1.0  0.11850  0.17820  0.14430  1.0000 -0.1706152494
C   C146      1.0  0.83130  0.12250  0.27000  1.0000 0.5348085006
C   C147      1.0  0.88230  0.12940  0.24190  1.0000 -0.1369597326
C   C148      1.0  0.94360  0.13750  0.27310  1.0000 0.2586887021
C   C149      1.0  0.98870  0.13740  0.24630  1.0000 -0.2697456042
C   C150      1.0  0.97390  0.12870  0.18440  1.0000 0.0995435084
C   C151      1.0  0.91220  0.12280  0.15250  1.0000 -0.1805510212
C   C152      1.0  0.02190  0.12570  0.15560  1.0000 0.0593705477
C   C153      1.0  0.07610  0.17650  0.17580  1.0000 -0.1190642688
C   C154      1.0  0.01240  0.07220  0.10260  1.0000 -0.1311351583
C   C155      1.0  0.95670  0.09100  0.61670  1.0000 0.5481484969
C   C156      1.0  0.99000  0.10390  0.68230  1.0000 -0.1521831116
C   C157      1.0  0.95650  0.10680  0.72280  1.0000 -0.102191263
C   C158      1.0  0.98450  0.11910  0.78180  1.0000 -0.1576219497
C   C159      1.0  0.04800  0.12960  0.80570  1.0000 0.1092033474
C   C160      1.0  0.08250  0.12590  0.76640  1.0000 -0.2786573331
C   C161      1.0  0.05280  0.11340  0.70700  1.0000 0.2680340324
C   C162      1.0  0.07810  0.13780  0.87130  1.0000 0.0437786494
C   C163      1.0  0.04980  0.18590  0.90710  1.0000 -0.1311351583
C   C164      1.0  0.07310  0.18620  0.96860  1.0000 -0.1805510212
C   C165      1.0  0.15870  0.09320  0.96120  1.0000 -0.1805510212
C   C166      1.0  0.13370  0.09630  0.89990  1.0000 -0.1311351583
C   C167      1.0  0.76660  0.89180  0.28780  1.0000 0.083516308
C   C168      1.0  0.76960  0.79520  0.28690  1.0000 -0.2103622864
C   C169      1.0  0.73610  0.74080  0.31480  1.0000 0.1495943506
C   C170      1.0  0.70050  0.78860  0.34080  1.0000 -0.1890563566
C   C171      1.0  0.69930  0.88630  0.33930  1.0000 0.0593705477
C   C172      1.0  0.74160  0.63520  0.31380  1.0000 -0.1576219497
C   C173      1.0  0.72150  0.57450  0.34600  1.0000 -0.1190642688
C   C174      1.0  0.72660  0.47220  0.34160  1.0000 0.1495943506
C   C175      1.0  0.69750  0.41330  0.36760  1.0000 -0.1980700168
C   C176      1.0  0.91180  0.85690  0.54960  1.0000 0.0853297104
C   C177      1.0  0.91390  0.75680  0.55470  1.0000 -0.2697456042
C   C178      1.0  0.88550  0.70500  0.50120  1.0000 0.1294746572
C   C179      1.0  0.86830  0.75250  0.45540  1.0000 -0.1805510212
C   C180      1.0  0.86410  0.85340  0.45580  1.0000 0.0995435084
C   C181      1.0  0.88910  0.60190  0.50560  1.0000 -0.1096225019
C   C182      1.0  0.69970  0.31460  0.36060  1.0000 0.0723085691
C   C183      1.0  0.75780  0.32960  0.30430  1.0000 0.083516308
C   C184      1.0  0.75570  0.42710  0.30600  1.0000 -0.2313107739
C   C185      1.0  0.90870  0.27890  0.45210  1.0000 0.0995435084
C   C186      1.0  0.85930  0.29230  0.51400  1.0000 0.0995435084
C   C187      1.0  0.86000  0.39400  0.51090  1.0000 -0.2375572079
C   C188      1.0  0.88870  0.43590  0.47760  1.0000 0.1404335505
C   C189      1.0  0.90850  0.37730  0.44370  1.0000 -0.2375572079
C   C190      1.0  0.88620  0.54140  0.47100  1.0000 -0.1096225019
C   C191      1.0  0.75250  0.08260  0.45390  1.0000 0.4111353893
C   C192      1.0  0.86610  0.12230  0.17950  1.0000 -0.102191263
C   C193      1.0  0.89450  0.60580  0.71560  1.0000 0.555570348
C   C194      1.0  0.96280  0.60620  0.74670  1.0000 -0.1576219497
C   C195      1.0  0.00870  0.60640  0.72010  1.0000 0.2680340324
C   C196      1.0  0.07000  0.61160  0.75070  1.0000 -0.2786573331
C   C197      1.0  0.09090  0.61210  0.81280  1.0000 0.1092033474
C   C198      1.0  0.04620  0.61010  0.84180  1.0000 -0.1706152494
C   C199      1.0  0.98460  0.60570  0.80920  1.0000 -0.0910928111
C   C200      1.0  0.15810  0.61520  0.84640  1.0000 0.0593705477
C   C201      1.0  0.20080  0.56370  0.82830  1.0000 -0.1369597326
C   C202      1.0  0.26310  0.56800  0.86020  1.0000 -0.1805510212
C   C203      1.0  0.28430  0.62660  0.90900  1.0000 0.1676626977
C   C204      1.0  0.24230  0.67670  0.92830  1.0000 -0.1805510212
C   C205      1.0  0.17960  0.67100  0.89790  1.0000 -0.1311351583
C   C206      1.0  0.37120  0.63750  0.00290  1.0000 0.1831394721
C   C207      1.0  0.44440  0.57270  0.92840  1.0000 -0.1890563566
C   C208      1.0  0.39170  0.62840  0.90680  1.0000 0.1625054021
C   C209      1.0  0.38150  0.67820  0.85570  1.0000 -0.1706152494
C   C210      1.0  0.66870  0.62250  0.73000  1.0000 0.5348085006
C   C211      1.0  0.61770  0.62940  0.75810  1.0000 -0.1369597326
C   C212      1.0  0.55640  0.63750  0.72690  1.0000 0.2586887021
C   C213      1.0  0.51130  0.63740  0.75370  1.0000 -0.2697456042
C   C214      1.0  0.52610  0.62870  0.81560  1.0000 0.0995435084
C   C215      1.0  0.58780  0.62280  0.84750  1.0000 -0.1805510212
C   C216      1.0  0.47810  0.62570  0.84440  1.0000 0.0593705477
C   C217      1.0  0.42390  0.67650  0.82420  1.0000 -0.1190642688
C   C218      1.0  0.48760  0.57220  0.89740  1.0000 -0.1311351583
C   C219      1.0  0.54330  0.59100  0.38330  1.0000 0.5481484969
C   C220      1.0  0.51000  0.60390  0.31770  1.0000 -0.1521831116
C   C221      1.0  0.54350  0.60680  0.27720  1.0000 -0.102191263
C   C222      1.0  0.51550  0.61910  0.21820  1.0000 -0.1576219497
C   C223      1.0  0.45200  0.62960  0.19430  1.0000 0.1092033474
C   C224      1.0  0.41750  0.62590  0.23360  1.0000 -0.2786573331
C   C225      1.0  0.44720  0.61340  0.29300  1.0000 0.2680340324
C   C226      1.0  0.42190  0.63780  0.12870  1.0000 0.0437786494
C   C227      1.0  0.45020  0.68590  0.09290  1.0000 -0.1311351583
C   C228      1.0  0.42690  0.68620  0.03140  1.0000 -0.1805510212
C   C229      1.0  0.34130  0.59320  0.03880  1.0000 -0.1805510212
C   C230      1.0  0.36630  0.59630  0.10010  1.0000 -0.1311351583
C   C231      1.0  0.73340  0.39180  0.71220  1.0000 0.083516308
C   C232      1.0  0.73040  0.29520  0.71310  1.0000 -0.2103622864
C   C233      1.0  0.76390  0.24080  0.68520  1.0000 0.1495943506
C   C234      1.0  0.79950  0.28860  0.65920  1.0000 -0.1890563566
C   C235      1.0  0.80070  0.38630  0.66070  1.0000 0.0593705477
C   C236      1.0  0.75840  0.13520  0.68620  1.0000 -0.1576219497
C   C237      1.0  0.77850  0.07450  0.65400  1.0000 -0.1190642688
C   C238      1.0  0.77340  0.97220  0.65840  1.0000 0.1495943506
C   C239      1.0  0.80250  0.91330  0.63240  1.0000 -0.1980700168
C   C240      1.0  0.58820  0.35690  0.45040  1.0000 0.0853297104
C   C241      1.0  0.58610  0.25680  0.44530  1.0000 -0.2697456042
C   C242      1.0  0.61450  0.20500  0.49880  1.0000 0.1294746572
C   C243      1.0  0.63170  0.25250  0.54460  1.0000 -0.1805510212
C   C244      1.0  0.63590  0.35340  0.54420  1.0000 0.0995435084
C   C245      1.0  0.61090  0.10190  0.49440  1.0000 -0.1096225019
C   C246      1.0  0.80030  0.81460  0.63940  1.0000 0.0723085691
C   C247      1.0  0.74220  0.82960  0.69570  1.0000 0.083516308
C   C248      1.0  0.74430  0.92710  0.69400  1.0000 -0.2313107739
C   C249      1.0  0.59130  0.77890  0.54790  1.0000 0.0995435084
C   C250      1.0  0.64070  0.79230  0.48600  1.0000 0.0995435084
C   C251      1.0  0.64000  0.89400  0.48910  1.0000 -0.2375572079
C   C252      1.0  0.61130  0.93590  0.52240  1.0000 0.1404335505
C   C253      1.0  0.59150  0.87730  0.55630  1.0000 -0.2375572079
C   C254      1.0  0.61380  0.04140  0.52900  1.0000 -0.1096225019
C   C255      1.0  0.74750  0.58260  0.54610  1.0000 0.4111353893
C   C256      1.0  0.63390  0.62230  0.82050  1.0000 -0.102191263
N   N1        1.0  0.11580  0.76440  0.51340  1.0000 -0.1890563566
N   N2        1.0  0.11780  0.09580  0.49800  1.0000 -0.1980700168
N   N3        1.0  0.26640  0.72760  0.66680  1.0000 -0.2163752104
N   N4        1.0  0.26790  0.06040  0.68640  1.0000 -0.2163752104
N   N5        1.0  0.84880  0.86850  0.94030  1.0000 -0.1805510212
N   N6        1.0  0.38420  0.26440  0.48660  1.0000 -0.1890563566
N   N7        1.0  0.38220  0.59580  0.50200  1.0000 -0.1980700168
N   N8        1.0  0.23360  0.22760  0.33320  1.0000 -0.2163752104
N   N9        1.0  0.23210  0.56040  0.31360  1.0000 -0.2163752104
N   N10       1.0  0.65120  0.36850  0.05970  1.0000 -0.1805510212
N   N11       1.0  0.88420  0.23560  0.48660  1.0000 -0.1890563566
N   N12       1.0  0.88220  0.90420  0.50200  1.0000 -0.1980700168
N   N13       1.0  0.73360  0.27240  0.33320  1.0000 -0.2163752104
N   N14       1.0  0.73210  0.93960  0.31360  1.0000 -0.2163752104
N   N15       1.0  0.15120  0.13150  0.05970  1.0000 -0.1805510212
N   N16       1.0  0.61580  0.73560  0.51340  1.0000 -0.1890563566
N   N17       1.0  0.61780  0.40420  0.49800  1.0000 -0.1980700168
N   N18       1.0  0.76640  0.77240  0.66680  1.0000 -0.2163752104
N   N19       1.0  0.76790  0.43960  0.68640  1.0000 -0.2163752104
N   N20       1.0  0.34880  0.63150  0.94030  1.0000 -0.1805510212
O   O1        1.0  0.01570  0.92690  0.41980  1.0000 -0.5325596082
O   O2        1.0  0.10190  0.90400  0.40010  1.0000 -0.5568549793
O   O3        1.0  0.36140  0.88520  0.74920  1.0000 -0.5325596082
O   O4        1.0  0.37360  0.90550  0.66120  1.0000 -0.5710451017
O   O5        1.0  0.15570  0.88150  0.67470  1.0000 -0.5325596082
O   O6        1.0  0.22340  0.87900  0.76270  1.0000 -0.5325596082
O   O7        1.0  0.22520  0.92640  0.49110  1.0000 -0.4709911431
O   O8        1.0  0.21990  0.91800  0.58050  1.0000 -0.4393088605
O   O9        1.0  0.48430  0.42690  0.58020  1.0000 -0.5325596082
O   O10       1.0  0.39810  0.40400  0.59990  1.0000 -0.5568549793
O   O11       1.0  0.13860  0.38520  0.25080  1.0000 -0.5325596082
O   O12       1.0  0.12640  0.40550  0.33880  1.0000 -0.5710451017
O   O13       1.0  0.34430  0.38150  0.32530  1.0000 -0.5325596082
O   O14       1.0  0.27660  0.37900  0.23730  1.0000 -0.5325596082
O   O15       1.0  0.27480  0.42640  0.50890  1.0000 -0.4709911431
O   O16       1.0  0.28010  0.41800  0.41950  1.0000 -0.4393088605
O   O17       1.0  0.98430  0.07310  0.58020  1.0000 -0.5325596082
O   O18       1.0  0.89810  0.09600  0.59990  1.0000 -0.5568549793
O   O19       1.0  0.63860  0.11480  0.25080  1.0000 -0.5325596082
O   O20       1.0  0.62640  0.09450  0.33880  1.0000 -0.5710451017
O   O21       1.0  0.84430  0.11850  0.32530  1.0000 -0.5325596082
O   O22       1.0  0.77660  0.12100  0.23730  1.0000 -0.5325596082
O   O23       1.0  0.77480  0.07360  0.50890  1.0000 -0.4709911431
O   O24       1.0  0.78010  0.08200  0.41950  1.0000 -0.4393088605
O   O25       1.0  0.51570  0.57310  0.41980  1.0000 -0.5325596082
O   O26       1.0  0.60190  0.59600  0.40010  1.0000 -0.5568549793
O   O27       1.0  0.86140  0.61480  0.74920  1.0000 -0.5325596082
O   O28       1.0  0.87360  0.59450  0.66120  1.0000 -0.5710451017
O   O29       1.0  0.65570  0.61850  0.67470  1.0000 -0.5325596082
O   O30       1.0  0.72340  0.62100  0.76270  1.0000 -0.5325596082
O   O31       1.0  0.72520  0.57360  0.49110  1.0000 -0.4709911431
O   O32       1.0  0.71990  0.58200  0.58050  1.0000 -0.4393088605
F   F1        1.0  0.49350  0.89260  0.65950  1.0000 -0.1706152494
F   F2        1.0  0.91120  0.88760  0.32940  1.0000 -0.1521831116
F   F3        1.0  0.03570  0.85210  0.66640  1.0000 -0.1521831116
F   F4        1.0  0.00650  0.39260  0.34050  1.0000 -0.1706152494
F   F5        1.0  0.58880  0.38760  0.67060  1.0000 -0.1521831116
F   F6        1.0  0.46430  0.35210  0.33360  1.0000 -0.1521831116
F   F7        1.0  0.50650  0.10740  0.34050  1.0000 -0.1706152494
F   F8        1.0  0.08880  0.11240  0.67060  1.0000 -0.1521831116
F   F9        1.0  0.96430  0.14790  0.33360  1.0000 -0.1521831116
F   F10       1.0  0.99350  0.60740  0.65950  1.0000 -0.1706152494
F   F11       1.0  0.41120  0.61240  0.32940  1.0000 -0.1521831116
F   F12       1.0  0.53570  0.64790  0.66640  1.0000 -0.1521831116
