# DDEC6 charges by PACMAN v1.1 (https://github.com/mtap-research/PACMAN-charge/)
data_2022[Zn][nan]3[ASR]17
_chemical_formula_sum              "Zn24 H198 C312 N72 O72"
_cell_length_a       29.3156
_cell_length_b       29.3156
_cell_length_c       29.3156
_cell_angle_alpha    58.5976
_cell_angle_beta     58.5976
_cell_angle_gamma    58.5976

_symmetry_space_group_name_H-M    "P 1"
_symmetry_Int_Tables_number       1

loop_
  _symmetry_equiv_pos_as_xyz
  'x, y, z'

loop_
  _atom_site_type_symbol
  _atom_site_label
  _atom_site_symmetry_multiplicity
  _atom_site_fract_x
  _atom_site_fract_y
  _atom_site_fract_z
  _atom_site_occupancy
  _atom_site_charge
Zn  Zn1       1.0  0.02712  0.48726  0.94628  1.0000 0.8491394464
Zn  Zn2       1.0  0.00984  0.48141  0.55373  1.0000 0.8603503151
Zn  Zn3       1.0  0.03913  0.36518  0.83066  1.0000 0.7266891602
Zn  Zn4       1.0  0.13007  0.41771  0.69793  1.0000 0.7611513876
Zn  Zn5       1.0  0.94628  0.02712  0.48726  1.0000 0.8491394464
Zn  Zn6       1.0  0.55373  0.00984  0.48141  1.0000 0.8603503151
Zn  Zn7       1.0  0.83066  0.03913  0.36518  1.0000 0.7266891602
Zn  Zn8       1.0  0.69793  0.13007  0.41771  1.0000 0.7611513876
Zn  Zn9       1.0  0.48726  0.94628  0.02712  1.0000 0.8491394464
Zn  Zn10      1.0  0.48141  0.55373  0.00984  1.0000 0.8603503151
Zn  Zn11      1.0  0.36518  0.83066  0.03913  1.0000 0.7266891602
Zn  Zn12      1.0  0.41771  0.69793  0.13007  1.0000 0.7611513876
Zn  Zn13      1.0  0.97288  0.51274  0.05372  1.0000 0.8491394464
Zn  Zn14      1.0  0.99016  0.51859  0.44627  1.0000 0.8603503151
Zn  Zn15      1.0  0.96087  0.63482  0.16934  1.0000 0.7266891602
Zn  Zn16      1.0  0.86993  0.58229  0.30207  1.0000 0.7611513876
Zn  Zn17      1.0  0.05372  0.97288  0.51274  1.0000 0.8491394464
Zn  Zn18      1.0  0.44627  0.99016  0.51859  1.0000 0.8603503151
Zn  Zn19      1.0  0.16934  0.96087  0.63482  1.0000 0.724463785
Zn  Zn20      1.0  0.30207  0.86993  0.58229  1.0000 0.7611513876
Zn  Zn21      1.0  0.51274  0.05372  0.97288  1.0000 0.8491394464
Zn  Zn22      1.0  0.51859  0.44627  0.99016  1.0000 0.8603503151
Zn  Zn23      1.0  0.63482  0.16934  0.96087  1.0000 0.7266891602
Zn  Zn24      1.0  0.58229  0.30207  0.86993  1.0000 0.7611513876
H   H1        1.0  0.08992  0.46758  0.59690  1.0000 0.1197810223
H   H2        1.0  0.86954  0.42970  0.70845  1.0000 0.3175886747
H   H3        1.0  0.91083  0.45216  0.65267  1.0000 0.3133427146
H   H4        1.0  0.87356  0.69089  0.98430  1.0000 0.1294365386
H   H5        1.0  0.01407  0.41295  0.91545  1.0000 0.110086918
H   H6        1.0  0.83352  0.78419  0.93864  1.0000 0.1294365386
H   H7        1.0  0.03906  0.63772  0.50443  1.0000 0.1197810223
H   H8        1.0  0.16553  0.44790  0.35291  1.0000 0.110086918
H   H9        1.0  0.98125  0.89154  0.44282  1.0000 0.1197810223
H   H10       1.0  0.26265  0.40671  0.30517  1.0000 0.1197810223
H   H11       1.0  0.08050  0.70805  0.45876  1.0000 0.1294365386
H   H12       1.0  0.95003  0.65696  0.84246  1.0000 0.1197810223
H   H13       1.0  0.13812  0.85182  0.42442  1.0000 0.110086918
H   H14       1.0  0.05263  0.65533  0.35623  1.0000 0.1197810223
H   H15       1.0  0.19596  0.38330  0.49426  1.0000 0.1197810223
H   H16       1.0  0.29137  0.34801  0.44908  1.0000 0.1197810223
H   H17       1.0  0.90310  0.74759  0.79691  1.0000 0.1294365386
H   H18       1.0  0.01100  0.83208  0.39562  1.0000 0.1294365386
H   H19       1.0  0.09549  0.72114  0.31004  1.0000 0.1294365386
H   H20       1.0  0.93648  0.36792  0.83807  1.0000 0.0931597221
H   H21       1.0  0.16862  0.78728  0.38314  1.0000 0.1294365386
H   H22       1.0  0.13125  0.85992  0.26639  1.0000 0.1355751101
H   H23       1.0  0.20352  0.68963  0.31839  1.0000 0.1294365386
H   H24       1.0  0.19735  0.86548  0.18206  1.0000 0.1197810223
H   H25       1.0  0.37268  0.34060  0.48565  1.0000 0.1197810223
H   H26       1.0  0.10019  0.60626  0.77966  1.0000 0.2984104398
H   H27       1.0  0.07845  0.57137  0.84033  1.0000 0.3175886747
H   H28       1.0  0.34408  0.49862  0.46313  1.0000 0.1294365386
H   H29       1.0  0.27640  0.70179  0.22992  1.0000 0.1294365386
H   H30       1.0  0.26310  0.49406  0.54032  1.0000 0.1197810223
H   H31       1.0  0.13602  0.52896  0.67005  1.0000 0.1294365386
H   H32       1.0  0.29178  0.33771  0.56338  1.0000 0.1197810223
H   H33       1.0  0.13314  0.57849  0.70930  1.0000 0.2741073612
H   H34       1.0  0.59690  0.08992  0.46758  1.0000 0.1197810223
H   H35       1.0  0.70845  0.86954  0.42970  1.0000 0.3175886747
H   H36       1.0  0.65267  0.91083  0.45216  1.0000 0.3133427146
H   H37       1.0  0.98430  0.87356  0.69089  1.0000 0.1294365386
H   H38       1.0  0.91545  0.01407  0.41295  1.0000 0.110086918
H   H39       1.0  0.93864  0.83352  0.78419  1.0000 0.1294365386
H   H40       1.0  0.50443  0.03906  0.63772  1.0000 0.1197810223
H   H41       1.0  0.35291  0.16553  0.44790  1.0000 0.110086918
H   H42       1.0  0.44282  0.98125  0.89154  1.0000 0.1197810223
H   H43       1.0  0.30517  0.26265  0.40671  1.0000 0.1197810223
H   H44       1.0  0.45876  0.08050  0.70805  1.0000 0.1294365386
H   H45       1.0  0.84246  0.95003  0.65696  1.0000 0.1197810223
H   H46       1.0  0.42442  0.13812  0.85182  1.0000 0.110086918
H   H47       1.0  0.35623  0.05263  0.65533  1.0000 0.1197810223
H   H48       1.0  0.49426  0.19596  0.38330  1.0000 0.1197810223
H   H49       1.0  0.44908  0.29137  0.34801  1.0000 0.1197810223
H   H50       1.0  0.79691  0.90310  0.74759  1.0000 0.1294365386
H   H51       1.0  0.39562  0.01100  0.83208  1.0000 0.1294365386
H   H52       1.0  0.31004  0.09549  0.72114  1.0000 0.1294365386
H   H53       1.0  0.83807  0.93648  0.36792  1.0000 0.0931597221
H   H54       1.0  0.38314  0.16862  0.78728  1.0000 0.1294365386
H   H55       1.0  0.26639  0.13125  0.85992  1.0000 0.1355751101
H   H56       1.0  0.31839  0.20352  0.68963  1.0000 0.1294365386
H   H57       1.0  0.18206  0.19735  0.86548  1.0000 0.1197810223
H   H58       1.0  0.48565  0.37268  0.34060  1.0000 0.1197810223
H   H59       1.0  0.77966  0.10019  0.60626  1.0000 0.2984104398
H   H60       1.0  0.84033  0.07845  0.57137  1.0000 0.3175886747
H   H61       1.0  0.46313  0.34408  0.49862  1.0000 0.1294365386
H   H62       1.0  0.22992  0.27640  0.70179  1.0000 0.1294365386
H   H63       1.0  0.54032  0.26310  0.49406  1.0000 0.1197810223
H   H64       1.0  0.67005  0.13602  0.52896  1.0000 0.1294365386
H   H65       1.0  0.56338  0.29178  0.33771  1.0000 0.1197810223
H   H66       1.0  0.70930  0.13314  0.57849  1.0000 0.2741073612
H   H67       1.0  0.46758  0.59690  0.08992  1.0000 0.1197810223
H   H68       1.0  0.42970  0.70845  0.86954  1.0000 0.3175886747
H   H69       1.0  0.45216  0.65267  0.91083  1.0000 0.3133427146
H   H70       1.0  0.69089  0.98430  0.87356  1.0000 0.1294365386
H   H71       1.0  0.41295  0.91545  0.01407  1.0000 0.110086918
H   H72       1.0  0.78419  0.93864  0.83352  1.0000 0.1294365386
H   H73       1.0  0.63772  0.50443  0.03906  1.0000 0.1197810223
H   H74       1.0  0.44790  0.35291  0.16553  1.0000 0.110086918
H   H75       1.0  0.89154  0.44282  0.98125  1.0000 0.1197810223
H   H76       1.0  0.40671  0.30517  0.26265  1.0000 0.1197810223
H   H77       1.0  0.70805  0.45876  0.08050  1.0000 0.1294365386
H   H78       1.0  0.65696  0.84246  0.95003  1.0000 0.1197810223
H   H79       1.0  0.85182  0.42442  0.13812  1.0000 0.110086918
H   H80       1.0  0.65533  0.35623  0.05263  1.0000 0.1197810223
H   H81       1.0  0.38330  0.49426  0.19596  1.0000 0.1197810223
H   H82       1.0  0.34801  0.44908  0.29137  1.0000 0.1197810223
H   H83       1.0  0.74759  0.79691  0.90310  1.0000 0.1294365386
H   H84       1.0  0.83208  0.39562  0.01100  1.0000 0.1294365386
H   H85       1.0  0.72114  0.31004  0.09549  1.0000 0.1294365386
H   H86       1.0  0.36792  0.83807  0.93648  1.0000 0.0931597221
H   H87       1.0  0.78728  0.38314  0.16862  1.0000 0.1294365386
H   H88       1.0  0.85992  0.26639  0.13125  1.0000 0.1355751101
H   H89       1.0  0.68963  0.31839  0.20352  1.0000 0.1294365386
H   H90       1.0  0.86548  0.18206  0.19735  1.0000 0.1197810223
H   H91       1.0  0.34060  0.48565  0.37268  1.0000 0.1197810223
H   H92       1.0  0.60626  0.77966  0.10019  1.0000 0.2984104398
H   H93       1.0  0.57137  0.84033  0.07845  1.0000 0.3175886747
H   H94       1.0  0.49862  0.46313  0.34408  1.0000 0.1294365386
H   H95       1.0  0.70179  0.22992  0.27640  1.0000 0.1294365386
H   H96       1.0  0.49406  0.54032  0.26310  1.0000 0.1197810223
H   H97       1.0  0.52896  0.67005  0.13602  1.0000 0.1294365386
H   H98       1.0  0.33771  0.56338  0.29178  1.0000 0.1197810223
H   H99       1.0  0.57849  0.70930  0.13314  1.0000 0.2741073612
H   H100      1.0  0.91008  0.53242  0.40310  1.0000 0.1197810223
H   H101      1.0  0.13046  0.57030  0.29155  1.0000 0.3175886747
H   H102      1.0  0.08917  0.54784  0.34733  1.0000 0.3133427146
H   H103      1.0  0.12644  0.30911  0.01570  1.0000 0.1294365386
H   H104      1.0  0.98593  0.58705  0.08455  1.0000 0.110086918
H   H105      1.0  0.16648  0.21581  0.06136  1.0000 0.1294365386
H   H106      1.0  0.96094  0.36228  0.49557  1.0000 0.1197810223
H   H107      1.0  0.83447  0.55210  0.64709  1.0000 0.110086918
H   H108      1.0  0.01875  0.10846  0.55718  1.0000 0.1197810223
H   H109      1.0  0.73735  0.59329  0.69483  1.0000 0.1197810223
H   H110      1.0  0.91950  0.29195  0.54124  1.0000 0.1294365386
H   H111      1.0  0.04997  0.34304  0.15754  1.0000 0.1197810223
H   H112      1.0  0.86188  0.14818  0.57558  1.0000 0.110086918
H   H113      1.0  0.94737  0.34467  0.64377  1.0000 0.1197810223
H   H114      1.0  0.80404  0.61670  0.50574  1.0000 0.1197810223
H   H115      1.0  0.70863  0.65199  0.55092  1.0000 0.1197810223
H   H116      1.0  0.09690  0.25241  0.20309  1.0000 0.1294365386
H   H117      1.0  0.98900  0.16792  0.60438  1.0000 0.1294365386
H   H118      1.0  0.90451  0.27886  0.68996  1.0000 0.1294365386
H   H119      1.0  0.06352  0.63208  0.16193  1.0000 0.0931597221
H   H120      1.0  0.83138  0.21272  0.61686  1.0000 0.1294365386
H   H121      1.0  0.86875  0.14008  0.73361  1.0000 0.1355751101
H   H122      1.0  0.79648  0.31037  0.68161  1.0000 0.1294365386
H   H123      1.0  0.80265  0.13452  0.81794  1.0000 0.1197810223
H   H124      1.0  0.62732  0.65940  0.51435  1.0000 0.1197810223
H   H125      1.0  0.89981  0.39374  0.22034  1.0000 0.2984104398
H   H126      1.0  0.92155  0.42863  0.15967  1.0000 0.3175886747
H   H127      1.0  0.65592  0.50138  0.53687  1.0000 0.1294365386
H   H128      1.0  0.72360  0.29821  0.77008  1.0000 0.1294365386
H   H129      1.0  0.73690  0.50594  0.45968  1.0000 0.1197810223
H   H130      1.0  0.86398  0.47104  0.32995  1.0000 0.1294365386
H   H131      1.0  0.70822  0.66229  0.43662  1.0000 0.1197810223
H   H132      1.0  0.86686  0.42151  0.29070  1.0000 0.2741073612
H   H133      1.0  0.40310  0.91008  0.53242  1.0000 0.1197810223
H   H134      1.0  0.29155  0.13046  0.57030  1.0000 0.3175886747
H   H135      1.0  0.34733  0.08917  0.54784  1.0000 0.3133427146
H   H136      1.0  0.01570  0.12644  0.30911  1.0000 0.1294365386
H   H137      1.0  0.08455  0.98593  0.58705  1.0000 0.110086918
H   H138      1.0  0.06136  0.16648  0.21581  1.0000 0.1294365386
H   H139      1.0  0.49557  0.96094  0.36228  1.0000 0.1197810223
H   H140      1.0  0.64709  0.83447  0.55210  1.0000 0.110086918
H   H141      1.0  0.55718  0.01875  0.10846  1.0000 0.1197810223
H   H142      1.0  0.69483  0.73735  0.59329  1.0000 0.1197810223
H   H143      1.0  0.54124  0.91950  0.29195  1.0000 0.1294365386
H   H144      1.0  0.15754  0.04997  0.34304  1.0000 0.1197810223
H   H145      1.0  0.57558  0.86188  0.14818  1.0000 0.110086918
H   H146      1.0  0.64377  0.94737  0.34467  1.0000 0.1197810223
H   H147      1.0  0.50574  0.80404  0.61670  1.0000 0.1197810223
H   H148      1.0  0.55092  0.70863  0.65199  1.0000 0.1197810223
H   H149      1.0  0.20309  0.09690  0.25241  1.0000 0.1294365386
H   H150      1.0  0.60438  0.98900  0.16792  1.0000 0.1294365386
H   H151      1.0  0.68996  0.90451  0.27886  1.0000 0.1294365386
H   H152      1.0  0.16193  0.06352  0.63208  1.0000 0.0931597221
H   H153      1.0  0.61686  0.83138  0.21272  1.0000 0.1294365386
H   H154      1.0  0.73361  0.86875  0.14008  1.0000 0.1355751101
H   H155      1.0  0.68161  0.79648  0.31037  1.0000 0.1294365386
H   H156      1.0  0.81794  0.80265  0.13452  1.0000 0.1197810223
H   H157      1.0  0.51435  0.62732  0.65940  1.0000 0.1197810223
H   H158      1.0  0.22034  0.89981  0.39374  1.0000 0.2984104398
H   H159      1.0  0.15967  0.92155  0.42863  1.0000 0.3175886747
H   H160      1.0  0.53687  0.65592  0.50138  1.0000 0.1294365386
H   H161      1.0  0.77008  0.72360  0.29821  1.0000 0.1294365386
H   H162      1.0  0.45968  0.73690  0.50594  1.0000 0.1197810223
H   H163      1.0  0.32995  0.86398  0.47104  1.0000 0.1294365386
H   H164      1.0  0.43662  0.70822  0.66229  1.0000 0.1197810223
H   H165      1.0  0.29070  0.86686  0.42151  1.0000 0.2776269558
H   H166      1.0  0.53242  0.40310  0.91008  1.0000 0.1197810223
H   H167      1.0  0.57030  0.29155  0.13046  1.0000 0.3175886747
H   H168      1.0  0.54784  0.34733  0.08917  1.0000 0.3133427146
H   H169      1.0  0.30911  0.01570  0.12644  1.0000 0.1294365386
H   H170      1.0  0.58705  0.08455  0.98593  1.0000 0.110086918
H   H171      1.0  0.21581  0.06136  0.16648  1.0000 0.1294365386
H   H172      1.0  0.36228  0.49557  0.96094  1.0000 0.1197810223
H   H173      1.0  0.55210  0.64709  0.83447  1.0000 0.110086918
H   H174      1.0  0.10846  0.55718  0.01875  1.0000 0.1197810223
H   H175      1.0  0.59329  0.69483  0.73735  1.0000 0.1197810223
H   H176      1.0  0.29195  0.54124  0.91950  1.0000 0.1294365386
H   H177      1.0  0.34304  0.15754  0.04997  1.0000 0.1197810223
H   H178      1.0  0.14818  0.57558  0.86188  1.0000 0.110086918
H   H179      1.0  0.34467  0.64377  0.94737  1.0000 0.1197810223
H   H180      1.0  0.61670  0.50574  0.80404  1.0000 0.1197810223
H   H181      1.0  0.65199  0.55092  0.70863  1.0000 0.1197810223
H   H182      1.0  0.25241  0.20309  0.09690  1.0000 0.1294365386
H   H183      1.0  0.16792  0.60438  0.98900  1.0000 0.1294365386
H   H184      1.0  0.27886  0.68996  0.90451  1.0000 0.1294365386
H   H185      1.0  0.63208  0.16193  0.06352  1.0000 0.0931597221
H   H186      1.0  0.21272  0.61686  0.83138  1.0000 0.1294365386
H   H187      1.0  0.14008  0.73361  0.86875  1.0000 0.1355751101
H   H188      1.0  0.31037  0.68161  0.79648  1.0000 0.1294365386
H   H189      1.0  0.13452  0.81794  0.80265  1.0000 0.1197810223
H   H190      1.0  0.65940  0.51435  0.62732  1.0000 0.1197810223
H   H191      1.0  0.39374  0.22034  0.89981  1.0000 0.2984104398
H   H192      1.0  0.42863  0.15967  0.92155  1.0000 0.3175886747
H   H193      1.0  0.50138  0.53687  0.65592  1.0000 0.1294365386
H   H194      1.0  0.29821  0.77008  0.72360  1.0000 0.1294365386
H   H195      1.0  0.50594  0.45968  0.73690  1.0000 0.1197810223
H   H196      1.0  0.47104  0.32995  0.86398  1.0000 0.1294365386
H   H197      1.0  0.66229  0.43662  0.70822  1.0000 0.1197810223
H   H198      1.0  0.42151  0.29070  0.86686  1.0000 0.2741073612
C   C1        1.0  0.04550  0.63560  0.43510  1.0000 -0.0809191135
C   C2        1.0  0.06206  0.45456  0.62976  1.0000 0.2067690435
C   C3        1.0  0.91578  0.66288  0.91998  1.0000 -0.0619219658
C   C4        1.0  0.17103  0.42023  0.42873  1.0000 -0.0420881989
C   C5        1.0  0.03864  0.91524  0.46604  1.0000 0.5628319624
C   C6        1.0  0.10882  0.44662  0.45792  1.0000 0.5891166869
C   C7        1.0  0.28693  0.37163  0.37433  1.0000 0.1800217883
C   C8        1.0  0.05641  0.87611  0.44111  1.0000 -0.0991507361
C   C9        1.0  0.86168  0.77588  0.86228  1.0000 0.1674004774
C   C10       1.0  0.88061  0.70271  0.94571  1.0000 -0.0919190081
C   C11       1.0  0.94587  0.60307  0.94967  1.0000 0.5807392839
C   C12       1.0  0.03800  0.43060  0.88160  1.0000 0.1878817025
C   C13       1.0  0.01706  0.41766  0.71856  1.0000 0.2984104398
C   C14       1.0  0.98816  0.43236  0.68626  1.0000 -0.0619219658
C   C15       1.0  0.85495  0.75835  0.91945  1.0000 -0.1811521648
C   C16       1.0  0.02584  0.58864  0.46044  1.0000 0.5891166869
C   C17       1.0  0.09009  0.72529  0.37969  1.0000 0.1963576469
C   C18       1.0  0.05097  0.65387  0.46497  1.0000 -0.0809191135
C   C19       1.0  0.19105  0.42685  0.37245  1.0000 -0.0991507361
C   C20       1.0  0.93541  0.42141  0.71561  1.0000 0.4175346388
C   C21       1.0  0.01973  0.87053  0.43063  1.0000 -0.0809191135
C   C22       1.0  0.24947  0.40257  0.34317  1.0000 -0.1913236109
C   C23       1.0  0.07512  0.69802  0.43702  1.0000 -0.2095361346
C   C24       1.0  0.92471  0.68211  0.86251  1.0000 -0.0991507361
C   C25       1.0  0.11144  0.84694  0.42074  1.0000 -0.0809191135
C   C26       1.0  0.05961  0.66441  0.37751  1.0000 -0.0809191135
C   C27       1.0  0.09291  0.80371  0.38431  1.0000 0.1605293844
C   C28       1.0  0.20918  0.38948  0.45568  1.0000 -0.0809191135
C   C29       1.0  0.26659  0.36679  0.42909  1.0000 -0.1913236109
C   C30       1.0  0.15780  0.77370  0.30140  1.0000 0.1674004774
C   C31       1.0  0.36990  0.41860  0.46450  1.0000 0.1800217883
C   C32       1.0  0.89751  0.73661  0.83491  1.0000 -0.1811521648
C   C33       1.0  0.08877  0.45457  0.79537  1.0000 0.3175886747
C   C34       1.0  0.03741  0.83451  0.40211  1.0000 -0.200328796
C   C35       1.0  0.08356  0.70586  0.34946  1.0000 -0.200328796
C   C36       1.0  0.95027  0.38447  0.79877  1.0000 0.2263275875
C   C37       1.0  0.08527  0.48627  0.81967  1.0000 -0.0619219658
C   C38       1.0  0.13020  0.80900  0.39420  1.0000 -0.1913236109
C   C39       1.0  0.25060  0.78710  0.19550  1.0000 -0.0619219658
C   C40       1.0  0.15960  0.82670  0.25950  1.0000 -0.1639664826
C   C41       1.0  0.10084  0.53514  0.78784  1.0000 0.343855435
C   C42       1.0  0.20240  0.72580  0.29150  1.0000 -0.200328796
C   C43       1.0  0.20160  0.82970  0.21030  1.0000 -0.0809191135
C   C44       1.0  0.26430  0.41730  0.56240  1.0000 -0.0420881989
C   C45       1.0  0.35060  0.37250  0.49660  1.0000 -0.200328796
C   C46       1.0  0.33480  0.46580  0.48210  1.0000 -0.2095361346
C   C47       1.0  0.24700  0.73410  0.23770  1.0000 -0.0991507361
C   C48       1.0  0.28520  0.46210  0.52940  1.0000 -0.0991507361
C   C49       1.0  0.21010  0.41850  0.61300  1.0000 0.5131084962
C   C50       1.0  0.12563  0.51583  0.70943  1.0000 0.1294365386
C   C51       1.0  0.30090  0.37070  0.54390  1.0000 -0.0991507361
C   C52       1.0  0.29750  0.79470  0.13860  1.0000 0.5807392839
C   C53       1.0  0.43510  0.04550  0.63560  1.0000 -0.0809191135
C   C54       1.0  0.62976  0.06206  0.45456  1.0000 0.2067690435
C   C55       1.0  0.91998  0.91578  0.66288  1.0000 -0.0619219658
C   C56       1.0  0.42873  0.17103  0.42023  1.0000 -0.0420881989
C   C57       1.0  0.46604  0.03864  0.91524  1.0000 0.5628319624
C   C58       1.0  0.45792  0.10882  0.44662  1.0000 0.5891166869
C   C59       1.0  0.37433  0.28693  0.37163  1.0000 0.1800217883
C   C60       1.0  0.44111  0.05641  0.87611  1.0000 -0.0991507361
C   C61       1.0  0.86228  0.86168  0.77588  1.0000 0.1674004774
C   C62       1.0  0.94571  0.88061  0.70271  1.0000 -0.0919190081
C   C63       1.0  0.94967  0.94587  0.60307  1.0000 0.5807392839
C   C64       1.0  0.88160  0.03800  0.43060  1.0000 0.1878817025
C   C65       1.0  0.71856  0.01706  0.41766  1.0000 0.2984104398
C   C66       1.0  0.68626  0.98816  0.43236  1.0000 -0.0619219658
C   C67       1.0  0.91945  0.85495  0.75835  1.0000 -0.1811521648
C   C68       1.0  0.46044  0.02584  0.58864  1.0000 0.5891166869
C   C69       1.0  0.37969  0.09009  0.72529  1.0000 0.1963576469
C   C70       1.0  0.46497  0.05097  0.65387  1.0000 -0.0809191135
C   C71       1.0  0.37245  0.19105  0.42685  1.0000 -0.0991507361
C   C72       1.0  0.71561  0.93541  0.42141  1.0000 0.4175346388
C   C73       1.0  0.43063  0.01973  0.87053  1.0000 -0.0809191135
C   C74       1.0  0.34317  0.24947  0.40257  1.0000 -0.1913236109
C   C75       1.0  0.43702  0.07512  0.69802  1.0000 -0.2095361346
C   C76       1.0  0.86251  0.92471  0.68211  1.0000 -0.0991507361
C   C77       1.0  0.42074  0.11144  0.84694  1.0000 -0.0809191135
C   C78       1.0  0.37751  0.05961  0.66441  1.0000 -0.0809191135
C   C79       1.0  0.38431  0.09291  0.80371  1.0000 0.1605293844
C   C80       1.0  0.45568  0.20918  0.38948  1.0000 -0.0809191135
C   C81       1.0  0.42909  0.26659  0.36679  1.0000 -0.1913236109
C   C82       1.0  0.30140  0.15780  0.77370  1.0000 0.1674004774
C   C83       1.0  0.46450  0.36990  0.41860  1.0000 0.1800217883
C   C84       1.0  0.83491  0.89751  0.73661  1.0000 -0.1811521648
C   C85       1.0  0.79537  0.08877  0.45457  1.0000 0.3175886747
C   C86       1.0  0.40211  0.03741  0.83451  1.0000 -0.1913236109
C   C87       1.0  0.34946  0.08356  0.70586  1.0000 -0.200328796
C   C88       1.0  0.79877  0.95027  0.38447  1.0000 0.2263275875
C   C89       1.0  0.81967  0.08527  0.48627  1.0000 -0.0619219658
C   C90       1.0  0.39420  0.13020  0.80900  1.0000 -0.1913236109
C   C91       1.0  0.19550  0.25060  0.78710  1.0000 -0.0619219658
C   C92       1.0  0.25950  0.15960  0.82670  1.0000 -0.1639664826
C   C93       1.0  0.78784  0.10084  0.53514  1.0000 0.343855435
C   C94       1.0  0.29150  0.20240  0.72580  1.0000 -0.200328796
C   C95       1.0  0.21030  0.20160  0.82970  1.0000 -0.0809191135
C   C96       1.0  0.56240  0.26430  0.41730  1.0000 -0.0420881989
C   C97       1.0  0.49660  0.35060  0.37250  1.0000 -0.200328796
C   C98       1.0  0.48210  0.33480  0.46580  1.0000 -0.2095361346
C   C99       1.0  0.23770  0.24700  0.73410  1.0000 -0.0991507361
C   C100      1.0  0.52940  0.28520  0.46210  1.0000 -0.0991507361
C   C101      1.0  0.61300  0.21010  0.41850  1.0000 0.5131084962
C   C102      1.0  0.70943  0.12563  0.51583  1.0000 0.1294365386
C   C103      1.0  0.54390  0.30090  0.37070  1.0000 -0.0991507361
C   C104      1.0  0.13860  0.29750  0.79470  1.0000 0.5807392839
C   C105      1.0  0.63560  0.43510  0.04550  1.0000 -0.0809191135
C   C106      1.0  0.45456  0.62976  0.06206  1.0000 0.2067690435
C   C107      1.0  0.66288  0.91998  0.91578  1.0000 -0.0619219658
C   C108      1.0  0.42023  0.42873  0.17103  1.0000 -0.0420881989
C   C109      1.0  0.91524  0.46604  0.03864  1.0000 0.5628319624
C   C110      1.0  0.44662  0.45792  0.10882  1.0000 0.5891166869
C   C111      1.0  0.37163  0.37433  0.28693  1.0000 0.1800217883
C   C112      1.0  0.87611  0.44111  0.05641  1.0000 -0.0991507361
C   C113      1.0  0.77588  0.86228  0.86168  1.0000 0.1674004774
C   C114      1.0  0.70271  0.94571  0.88061  1.0000 -0.0919190081
C   C115      1.0  0.60307  0.94967  0.94587  1.0000 0.5807392839
C   C116      1.0  0.43060  0.88160  0.03800  1.0000 0.1878817025
C   C117      1.0  0.41766  0.71856  0.01706  1.0000 0.2984104398
C   C118      1.0  0.43236  0.68626  0.98816  1.0000 -0.0619219658
C   C119      1.0  0.75835  0.91945  0.85495  1.0000 -0.1811521648
C   C120      1.0  0.58864  0.46044  0.02584  1.0000 0.5891166869
C   C121      1.0  0.72529  0.37969  0.09009  1.0000 0.1963576469
C   C122      1.0  0.65387  0.46497  0.05097  1.0000 -0.0809191135
C   C123      1.0  0.42685  0.37245  0.19105  1.0000 -0.0991507361
C   C124      1.0  0.42141  0.71561  0.93541  1.0000 0.4175346388
C   C125      1.0  0.87053  0.43063  0.01973  1.0000 -0.0809191135
C   C126      1.0  0.40257  0.34317  0.24947  1.0000 -0.1913236109
C   C127      1.0  0.69802  0.43702  0.07512  1.0000 -0.2095361346
C   C128      1.0  0.68211  0.86251  0.92471  1.0000 -0.0991507361
C   C129      1.0  0.84694  0.42074  0.11144  1.0000 -0.0809191135
C   C130      1.0  0.66441  0.37751  0.05961  1.0000 -0.0809191135
C   C131      1.0  0.80371  0.38431  0.09291  1.0000 0.1605293844
C   C132      1.0  0.38948  0.45568  0.20918  1.0000 -0.0809191135
C   C133      1.0  0.36679  0.42909  0.26659  1.0000 -0.1913236109
C   C134      1.0  0.77370  0.30140  0.15780  1.0000 0.1674004774
C   C135      1.0  0.41860  0.46450  0.36990  1.0000 0.1800217883
C   C136      1.0  0.73661  0.83491  0.89751  1.0000 -0.1811521648
C   C137      1.0  0.45457  0.79537  0.08877  1.0000 0.3175886747
C   C138      1.0  0.83451  0.40211  0.03741  1.0000 -0.200328796
C   C139      1.0  0.70586  0.34946  0.08356  1.0000 -0.200328796
C   C140      1.0  0.38447  0.79877  0.95027  1.0000 0.2263275875
C   C141      1.0  0.48627  0.81967  0.08527  1.0000 -0.0619219658
C   C142      1.0  0.80900  0.39420  0.13020  1.0000 -0.1913236109
C   C143      1.0  0.78710  0.19550  0.25060  1.0000 -0.0619219658
C   C144      1.0  0.82670  0.25950  0.15960  1.0000 -0.1704894465
C   C145      1.0  0.53514  0.78784  0.10084  1.0000 0.343855435
C   C146      1.0  0.72580  0.29150  0.20240  1.0000 -0.200328796
C   C147      1.0  0.82970  0.21030  0.20160  1.0000 -0.0809191135
C   C148      1.0  0.41730  0.56240  0.26430  1.0000 -0.0420881989
C   C149      1.0  0.37250  0.49660  0.35060  1.0000 -0.200328796
C   C150      1.0  0.46580  0.48210  0.33480  1.0000 -0.2095361346
C   C151      1.0  0.73410  0.23770  0.24700  1.0000 -0.0991507361
C   C152      1.0  0.46210  0.52940  0.28520  1.0000 -0.0991507361
C   C153      1.0  0.41850  0.61300  0.21010  1.0000 0.5131084962
C   C154      1.0  0.51583  0.70943  0.12563  1.0000 0.1294365386
C   C155      1.0  0.37070  0.54390  0.30090  1.0000 -0.0991507361
C   C156      1.0  0.79470  0.13860  0.29750  1.0000 0.5807392839
C   C157      1.0  0.95450  0.36440  0.56490  1.0000 -0.0809191135
C   C158      1.0  0.93794  0.54544  0.37024  1.0000 0.2067690435
C   C159      1.0  0.08422  0.33712  0.08002  1.0000 -0.0619219658
C   C160      1.0  0.82897  0.57977  0.57127  1.0000 -0.0420881989
C   C161      1.0  0.96136  0.08476  0.53396  1.0000 0.5628319624
C   C162      1.0  0.89118  0.55338  0.54208  1.0000 0.5891166869
C   C163      1.0  0.71307  0.62837  0.62567  1.0000 0.1800217883
C   C164      1.0  0.94359  0.12389  0.55889  1.0000 -0.0991507361
C   C165      1.0  0.13832  0.22412  0.13772  1.0000 0.1674004774
C   C166      1.0  0.11939  0.29729  0.05429  1.0000 -0.0919190081
C   C167      1.0  0.05413  0.39693  0.05033  1.0000 0.5807392839
C   C168      1.0  0.96200  0.56940  0.11840  1.0000 0.1878817025
C   C169      1.0  0.98294  0.58234  0.28144  1.0000 0.2984104398
C   C170      1.0  0.01184  0.56764  0.31374  1.0000 -0.0619219658
C   C171      1.0  0.14505  0.24165  0.08055  1.0000 -0.1811521648
C   C172      1.0  0.97416  0.41136  0.53956  1.0000 0.5891166869
C   C173      1.0  0.90991  0.27471  0.62031  1.0000 0.1963576469
C   C174      1.0  0.94903  0.34613  0.53503  1.0000 -0.0809191135
C   C175      1.0  0.80895  0.57315  0.62755  1.0000 -0.0991507361
C   C176      1.0  0.06459  0.57859  0.28439  1.0000 0.4175346388
C   C177      1.0  0.98027  0.12947  0.56937  1.0000 -0.0809191135
C   C178      1.0  0.75053  0.59743  0.65683  1.0000 -0.1913236109
C   C179      1.0  0.92488  0.30198  0.56298  1.0000 -0.2095361346
C   C180      1.0  0.07529  0.31789  0.13749  1.0000 -0.0991507361
C   C181      1.0  0.88856  0.15306  0.57926  1.0000 -0.0809191135
C   C182      1.0  0.94039  0.33559  0.62249  1.0000 -0.0809191135
C   C183      1.0  0.90709  0.19629  0.61569  1.0000 0.1605293844
C   C184      1.0  0.79082  0.61052  0.54432  1.0000 -0.0809191135
C   C185      1.0  0.73341  0.63321  0.57091  1.0000 -0.1913236109
C   C186      1.0  0.84220  0.22630  0.69860  1.0000 0.1674004774
C   C187      1.0  0.63010  0.58140  0.53550  1.0000 0.1800217883
C   C188      1.0  0.10249  0.26339  0.16509  1.0000 -0.1811521648
C   C189      1.0  0.91123  0.54543  0.20463  1.0000 0.3175886747
C   C190      1.0  0.96259  0.16549  0.59789  1.0000 -0.1913236109
C   C191      1.0  0.91644  0.29414  0.65054  1.0000 -0.200328796
C   C192      1.0  0.04973  0.61553  0.20123  1.0000 0.2241576754
C   C193      1.0  0.91473  0.51373  0.18033  1.0000 -0.0619219658
C   C194      1.0  0.86980  0.19100  0.60580  1.0000 -0.1913236109
C   C195      1.0  0.74940  0.21290  0.80450  1.0000 -0.0619219658
C   C196      1.0  0.84040  0.17330  0.74050  1.0000 -0.1639664826
C   C197      1.0  0.89916  0.46486  0.21216  1.0000 0.343855435
C   C198      1.0  0.79760  0.27420  0.70850  1.0000 -0.200328796
C   C199      1.0  0.79840  0.17030  0.78970  1.0000 -0.0809191135
C   C200      1.0  0.73570  0.58270  0.43760  1.0000 -0.0420881989
C   C201      1.0  0.64940  0.62750  0.50340  1.0000 -0.200328796
C   C202      1.0  0.66520  0.53420  0.51790  1.0000 -0.2095361346
C   C203      1.0  0.75300  0.26590  0.76230  1.0000 -0.0991507361
C   C204      1.0  0.71480  0.53790  0.47060  1.0000 -0.0991507361
C   C205      1.0  0.78990  0.58150  0.38700  1.0000 0.5131084962
C   C206      1.0  0.87437  0.48417  0.29057  1.0000 0.1294365386
C   C207      1.0  0.69910  0.62930  0.45610  1.0000 -0.0991507361
C   C208      1.0  0.70250  0.20530  0.86140  1.0000 0.5807392839
C   C209      1.0  0.56490  0.95450  0.36440  1.0000 -0.0809191135
C   C210      1.0  0.37024  0.93794  0.54544  1.0000 0.2067690435
C   C211      1.0  0.08002  0.08422  0.33712  1.0000 -0.0619219658
C   C212      1.0  0.57127  0.82897  0.57977  1.0000 -0.0420881989
C   C213      1.0  0.53396  0.96136  0.08476  1.0000 0.5628319624
C   C214      1.0  0.54208  0.89118  0.55338  1.0000 0.5891166869
C   C215      1.0  0.62567  0.71307  0.62837  1.0000 0.1800217883
C   C216      1.0  0.55889  0.94359  0.12389  1.0000 -0.0991507361
C   C217      1.0  0.13772  0.13832  0.22412  1.0000 0.1674004774
C   C218      1.0  0.05429  0.11939  0.29729  1.0000 -0.0919190081
C   C219      1.0  0.05033  0.05413  0.39693  1.0000 0.5807392839
C   C220      1.0  0.11840  0.96200  0.56940  1.0000 0.1878817025
C   C221      1.0  0.28144  0.98294  0.58234  1.0000 0.2984104398
C   C222      1.0  0.31374  0.01184  0.56764  1.0000 -0.0619219658
C   C223      1.0  0.08055  0.14505  0.24165  1.0000 -0.1811521648
C   C224      1.0  0.53956  0.97416  0.41136  1.0000 0.5891166869
C   C225      1.0  0.62031  0.90991  0.27471  1.0000 0.1963576469
C   C226      1.0  0.53503  0.94903  0.34613  1.0000 -0.0809191135
C   C227      1.0  0.62755  0.80895  0.57315  1.0000 -0.0991507361
C   C228      1.0  0.28439  0.06459  0.57859  1.0000 0.4175346388
C   C229      1.0  0.56937  0.98027  0.12947  1.0000 -0.0809191135
C   C230      1.0  0.65683  0.75053  0.59743  1.0000 -0.1913236109
C   C231      1.0  0.56298  0.92488  0.30198  1.0000 -0.2095361346
C   C232      1.0  0.13749  0.07529  0.31789  1.0000 -0.0991507361
C   C233      1.0  0.57926  0.88856  0.15306  1.0000 -0.0809191135
C   C234      1.0  0.62249  0.94039  0.33559  1.0000 -0.0809191135
C   C235      1.0  0.61569  0.90709  0.19629  1.0000 0.1605293844
C   C236      1.0  0.54432  0.79082  0.61052  1.0000 -0.0809191135
C   C237      1.0  0.57091  0.73341  0.63321  1.0000 -0.1913236109
C   C238      1.0  0.69860  0.84220  0.22630  1.0000 0.1674004774
C   C239      1.0  0.53550  0.63010  0.58140  1.0000 0.1800217883
C   C240      1.0  0.16509  0.10249  0.26339  1.0000 -0.1811521648
C   C241      1.0  0.20463  0.91123  0.54543  1.0000 0.3175886747
C   C242      1.0  0.59789  0.96259  0.16549  1.0000 -0.200328796
C   C243      1.0  0.65054  0.91644  0.29414  1.0000 -0.200328796
C   C244      1.0  0.20123  0.04973  0.61553  1.0000 0.2241576754
C   C245      1.0  0.18033  0.91473  0.51373  1.0000 -0.0619219658
C   C246      1.0  0.60580  0.86980  0.19100  1.0000 -0.1913236109
C   C247      1.0  0.80450  0.74940  0.21290  1.0000 -0.0619219658
C   C248      1.0  0.74050  0.84040  0.17330  1.0000 -0.1704894465
C   C249      1.0  0.21216  0.89916  0.46486  1.0000 0.343855435
C   C250      1.0  0.70850  0.79760  0.27420  1.0000 -0.200328796
C   C251      1.0  0.78970  0.79840  0.17030  1.0000 -0.0809191135
C   C252      1.0  0.43760  0.73570  0.58270  1.0000 -0.0420881989
C   C253      1.0  0.50340  0.64940  0.62750  1.0000 -0.200328796
C   C254      1.0  0.51790  0.66520  0.53420  1.0000 -0.2095361346
C   C255      1.0  0.76230  0.75300  0.26590  1.0000 -0.0991507361
C   C256      1.0  0.47060  0.71480  0.53790  1.0000 -0.0991507361
C   C257      1.0  0.38700  0.78990  0.58150  1.0000 0.5131084962
C   C258      1.0  0.29057  0.87437  0.48417  1.0000 0.1294365386
C   C259      1.0  0.45610  0.69910  0.62930  1.0000 -0.0991507361
C   C260      1.0  0.86140  0.70250  0.20530  1.0000 0.5807392839
C   C261      1.0  0.36440  0.56490  0.95450  1.0000 -0.0809191135
C   C262      1.0  0.54544  0.37024  0.93794  1.0000 0.2067690435
C   C263      1.0  0.33712  0.08002  0.08422  1.0000 -0.0619219658
C   C264      1.0  0.57977  0.57127  0.82897  1.0000 -0.045351239
C   C265      1.0  0.08476  0.53396  0.96136  1.0000 0.5628319624
C   C266      1.0  0.55338  0.54208  0.89118  1.0000 0.5891166869
C   C267      1.0  0.62837  0.62567  0.71307  1.0000 0.1800217883
C   C268      1.0  0.12389  0.55889  0.94359  1.0000 -0.0991507361
C   C269      1.0  0.22412  0.13772  0.13832  1.0000 0.1674004774
C   C270      1.0  0.29729  0.05429  0.11939  1.0000 -0.0919190081
C   C271      1.0  0.39693  0.05033  0.05413  1.0000 0.5807392839
C   C272      1.0  0.56940  0.11840  0.96200  1.0000 0.1878817025
C   C273      1.0  0.58234  0.28144  0.98294  1.0000 0.2984104398
C   C274      1.0  0.56764  0.31374  0.01184  1.0000 -0.0619219658
C   C275      1.0  0.24165  0.08055  0.14505  1.0000 -0.1811521648
C   C276      1.0  0.41136  0.53956  0.97416  1.0000 0.5891166869
C   C277      1.0  0.27471  0.62031  0.90991  1.0000 0.1963576469
C   C278      1.0  0.34613  0.53503  0.94903  1.0000 -0.0809191135
C   C279      1.0  0.57315  0.62755  0.80895  1.0000 -0.0991507361
C   C280      1.0  0.57859  0.28439  0.06459  1.0000 0.4175346388
C   C281      1.0  0.12947  0.56937  0.98027  1.0000 -0.0809191135
C   C282      1.0  0.59743  0.65683  0.75053  1.0000 -0.1811521648
C   C283      1.0  0.30198  0.56298  0.92488  1.0000 -0.2095361346
C   C284      1.0  0.31789  0.13749  0.07529  1.0000 -0.0991507361
C   C285      1.0  0.15306  0.57926  0.88856  1.0000 -0.0809191135
C   C286      1.0  0.33559  0.62249  0.94039  1.0000 -0.0809191135
C   C287      1.0  0.19629  0.61569  0.90709  1.0000 0.1605293844
C   C288      1.0  0.61052  0.54432  0.79082  1.0000 -0.0809191135
C   C289      1.0  0.63321  0.57091  0.73341  1.0000 -0.1913236109
C   C290      1.0  0.22630  0.69860  0.84220  1.0000 0.1674004774
C   C291      1.0  0.58140  0.53550  0.63010  1.0000 0.1800217883
C   C292      1.0  0.26339  0.16509  0.10249  1.0000 -0.1811521648
C   C293      1.0  0.54543  0.20463  0.91123  1.0000 0.3175886747
C   C294      1.0  0.16549  0.59789  0.96259  1.0000 -0.200328796
C   C295      1.0  0.29414  0.65054  0.91644  1.0000 -0.200328796
C   C296      1.0  0.61553  0.20123  0.04973  1.0000 0.2241576754
C   C297      1.0  0.51373  0.18033  0.91473  1.0000 -0.0619219658
C   C298      1.0  0.19100  0.60580  0.86980  1.0000 -0.1913236109
C   C299      1.0  0.21290  0.80450  0.74940  1.0000 -0.0619219658
C   C300      1.0  0.17330  0.74050  0.84040  1.0000 -0.1639664826
C   C301      1.0  0.46486  0.21216  0.89916  1.0000 0.343855435
C   C302      1.0  0.27420  0.70850  0.79760  1.0000 -0.200328796
C   C303      1.0  0.17030  0.78970  0.79840  1.0000 -0.0809191135
C   C304      1.0  0.58270  0.43760  0.73570  1.0000 -0.0420881989
C   C305      1.0  0.62750  0.50340  0.64940  1.0000 -0.200328796
C   C306      1.0  0.53420  0.51790  0.66520  1.0000 -0.2095361346
C   C307      1.0  0.26590  0.76230  0.75300  1.0000 -0.0991507361
C   C308      1.0  0.53790  0.47060  0.71480  1.0000 -0.0991507361
C   C309      1.0  0.58150  0.38700  0.78990  1.0000 0.5131084962
C   C310      1.0  0.48417  0.29057  0.87437  1.0000 0.1294365386
C   C311      1.0  0.62930  0.45610  0.69910  1.0000 -0.0991507361
C   C312      1.0  0.20530  0.86140  0.70250  1.0000 0.5807392839
N   N1        1.0  0.01866  0.45576  0.62816  1.0000 -0.294379841
N   N2        1.0  0.05320  0.46690  0.87930  1.0000 -0.317676525
N   N3        1.0  0.06533  0.43303  0.68243  1.0000 -0.4083741794
N   N4        1.0  0.00086  0.39266  0.77686  1.0000 -0.4346594172
N   N5        1.0  0.05799  0.41879  0.83319  1.0000 -0.4361002303
N   N6        1.0  0.90116  0.43626  0.68896  1.0000 -0.5469860143
N   N7        1.0  0.11175  0.76705  0.35575  1.0000 -0.1704894465
N   N8        1.0  0.91892  0.39682  0.77202  1.0000 -0.4083741794
N   N9        1.0  0.11553  0.46373  0.73893  1.0000 -0.4083741794
N   N10       1.0  0.12220  0.54950  0.73100  1.0000 -0.3062404867
N   N11       1.0  0.09200  0.57610  0.80480  1.0000 -0.5831719743
N   N12       1.0  0.62816  0.01866  0.45576  1.0000 -0.294379841
N   N13       1.0  0.87930  0.05320  0.46690  1.0000 -0.317676525
N   N14       1.0  0.68243  0.06533  0.43303  1.0000 -0.4083741794
N   N15       1.0  0.77686  0.00086  0.39266  1.0000 -0.4361002303
N   N16       1.0  0.83319  0.05799  0.41879  1.0000 -0.4361002303
N   N17       1.0  0.68896  0.90116  0.43626  1.0000 -0.5469860143
N   N18       1.0  0.35575  0.11175  0.76705  1.0000 -0.1704894465
N   N19       1.0  0.77202  0.91892  0.39682  1.0000 -0.4083741794
N   N20       1.0  0.73893  0.11553  0.46373  1.0000 -0.4083741794
N   N21       1.0  0.73100  0.12220  0.54950  1.0000 -0.3043017444
N   N22       1.0  0.80480  0.09200  0.57610  1.0000 -0.5831719743
N   N23       1.0  0.45576  0.62816  0.01866  1.0000 -0.294379841
N   N24       1.0  0.46690  0.87930  0.05320  1.0000 -0.317676525
N   N25       1.0  0.43303  0.68243  0.06533  1.0000 -0.4083741794
N   N26       1.0  0.39266  0.77686  0.00086  1.0000 -0.4361002303
N   N27       1.0  0.41879  0.83319  0.05799  1.0000 -0.4361002303
N   N28       1.0  0.43626  0.68896  0.90116  1.0000 -0.5469860143
N   N29       1.0  0.76705  0.35575  0.11175  1.0000 -0.1704894465
N   N30       1.0  0.39682  0.77202  0.91892  1.0000 -0.4083741794
N   N31       1.0  0.46373  0.73893  0.11553  1.0000 -0.4083741794
N   N32       1.0  0.54950  0.73100  0.12220  1.0000 -0.3062404867
N   N33       1.0  0.57610  0.80480  0.09200  1.0000 -0.5831719743
N   N34       1.0  0.98134  0.54424  0.37184  1.0000 -0.294379841
N   N35       1.0  0.94680  0.53310  0.12070  1.0000 -0.317676525
N   N36       1.0  0.93467  0.56697  0.31757  1.0000 -0.4083741794
N   N37       1.0  0.99914  0.60734  0.22314  1.0000 -0.4346594172
N   N38       1.0  0.94201  0.58121  0.16681  1.0000 -0.4361002303
N   N39       1.0  0.09884  0.56374  0.31104  1.0000 -0.5469860143
N   N40       1.0  0.88825  0.23295  0.64425  1.0000 -0.1704894465
N   N41       1.0  0.08108  0.60318  0.22798  1.0000 -0.4083741794
N   N42       1.0  0.88447  0.53627  0.26107  1.0000 -0.4083741794
N   N43       1.0  0.87780  0.45050  0.26900  1.0000 -0.3062404867
N   N44       1.0  0.90800  0.42390  0.19520  1.0000 -0.5831719743
N   N45       1.0  0.37184  0.98134  0.54424  1.0000 -0.294379841
N   N46       1.0  0.12070  0.94680  0.53310  1.0000 -0.317676525
N   N47       1.0  0.31757  0.93467  0.56697  1.0000 -0.4083741794
N   N48       1.0  0.22314  0.99914  0.60734  1.0000 -0.4346594172
N   N49       1.0  0.16681  0.94201  0.58121  1.0000 -0.4361002303
N   N50       1.0  0.31104  0.09884  0.56374  1.0000 -0.5469860143
N   N51       1.0  0.64425  0.88825  0.23295  1.0000 -0.1704894465
N   N52       1.0  0.22798  0.08108  0.60318  1.0000 -0.4083741794
N   N53       1.0  0.26107  0.88447  0.53627  1.0000 -0.4083741794
N   N54       1.0  0.26900  0.87780  0.45050  1.0000 -0.3062404867
N   N55       1.0  0.19520  0.90800  0.42390  1.0000 -0.5831719743
N   N56       1.0  0.54424  0.37184  0.98134  1.0000 -0.294379841
N   N57       1.0  0.53310  0.12070  0.94680  1.0000 -0.317676525
N   N58       1.0  0.56697  0.31757  0.93467  1.0000 -0.4083741794
N   N59       1.0  0.60734  0.22314  0.99914  1.0000 -0.4361002303
N   N60       1.0  0.58121  0.16681  0.94201  1.0000 -0.4361002303
N   N61       1.0  0.56374  0.31104  0.09884  1.0000 -0.5469860143
N   N62       1.0  0.23295  0.64425  0.88825  1.0000 -0.1704894465
N   N63       1.0  0.60318  0.22798  0.08108  1.0000 -0.4083741794
N   N64       1.0  0.53627  0.26107  0.88447  1.0000 -0.4083741794
N   N65       1.0  0.45050  0.26900  0.87780  1.0000 -0.3062404867
N   N66       1.0  0.42390  0.19520  0.90800  1.0000 -0.5831719743
N   N67       1.0  0.34497  0.34497  0.34497  1.0000 -0.1913236109
N   N68       1.0  0.41807  0.41807  0.41807  1.0000 -0.1120889914
N   N69       1.0  0.65503  0.65503  0.65503  1.0000 -0.1913236109
N   N70       1.0  0.58193  0.58193  0.58193  1.0000 -0.1120889914
N   N71       1.0  0.83330  0.83330  0.83330  1.0000 -0.1704894465
N   N72       1.0  0.16670  0.16670  0.16670  1.0000 -0.1704894465
O   O1        1.0  0.07085  0.91285  0.48275  1.0000 -0.5180640624
O   O2        1.0  0.02426  0.55576  0.51146  1.0000 -0.5469860143
O   O3        1.0  0.98984  0.95364  0.46894  1.0000 -0.5469860143
O   O4        1.0  0.93718  0.58918  0.00138  1.0000 -0.5385380642
O   O5        1.0  0.09204  0.44234  0.50814  1.0000 -0.5282353517
O   O6        1.0  0.97989  0.57109  0.92129  1.0000 -0.5385380642
O   O7        1.0  0.01058  0.58258  0.43178  1.0000 -0.5469860143
O   O8        1.0  0.07578  0.47378  0.42858  1.0000 -0.5831719743
O   O9        1.0  0.17993  0.46473  0.61713  1.0000 -0.5143498835
O   O10       1.0  0.28925  0.84345  0.10215  1.0000 -0.5180640624
O   O11       1.0  0.34057  0.75567  0.14287  1.0000 -0.4980325507
O   O12       1.0  0.20250  0.37330  0.63850  1.0000 -0.4779417919
O   O13       1.0  0.48275  0.07085  0.91285  1.0000 -0.5180640624
O   O14       1.0  0.51146  0.02426  0.55576  1.0000 -0.5469860143
O   O15       1.0  0.46894  0.98984  0.95364  1.0000 -0.5469860143
O   O16       1.0  0.00138  0.93718  0.58918  1.0000 -0.5385380642
O   O17       1.0  0.50814  0.09204  0.44234  1.0000 -0.5282353517
O   O18       1.0  0.92129  0.97989  0.57109  1.0000 -0.5385380642
O   O19       1.0  0.43178  0.01058  0.58258  1.0000 -0.5469860143
O   O20       1.0  0.42858  0.07578  0.47378  1.0000 -0.5831719743
O   O21       1.0  0.61713  0.17993  0.46473  1.0000 -0.5143498835
O   O22       1.0  0.10215  0.28925  0.84345  1.0000 -0.5180640624
O   O23       1.0  0.14287  0.34057  0.75567  1.0000 -0.4980325507
O   O24       1.0  0.63850  0.20250  0.37330  1.0000 -0.4779417919
O   O25       1.0  0.91285  0.48275  0.07085  1.0000 -0.5180640624
O   O26       1.0  0.55576  0.51146  0.02426  1.0000 -0.5469860143
O   O27       1.0  0.95364  0.46894  0.98984  1.0000 -0.5469860143
O   O28       1.0  0.58918  0.00138  0.93718  1.0000 -0.5385380642
O   O29       1.0  0.44234  0.50814  0.09204  1.0000 -0.5282353517
O   O30       1.0  0.57109  0.92129  0.97989  1.0000 -0.5385380642
O   O31       1.0  0.58258  0.43178  0.01058  1.0000 -0.5469860143
O   O32       1.0  0.47378  0.42858  0.07578  1.0000 -0.5831719743
O   O33       1.0  0.46473  0.61713  0.17993  1.0000 -0.5143498835
O   O34       1.0  0.84345  0.10215  0.28925  1.0000 -0.5180640624
O   O35       1.0  0.75567  0.14287  0.34057  1.0000 -0.4980325507
O   O36       1.0  0.37330  0.63850  0.20250  1.0000 -0.4779417919
O   O37       1.0  0.92915  0.08715  0.51725  1.0000 -0.5180640624
O   O38       1.0  0.97574  0.44424  0.48854  1.0000 -0.5469860143
O   O39       1.0  0.01016  0.04636  0.53106  1.0000 -0.5469860143
O   O40       1.0  0.06282  0.41082  0.99862  1.0000 -0.5385380642
O   O41       1.0  0.90796  0.55766  0.49186  1.0000 -0.5282353517
O   O42       1.0  0.02011  0.42891  0.07871  1.0000 -0.5385380642
O   O43       1.0  0.98942  0.41742  0.56822  1.0000 -0.5469860143
O   O44       1.0  0.92422  0.52622  0.57142  1.0000 -0.5831719743
O   O45       1.0  0.82007  0.53527  0.38287  1.0000 -0.5143498835
O   O46       1.0  0.71075  0.15655  0.89785  1.0000 -0.5180640624
O   O47       1.0  0.65943  0.24433  0.85713  1.0000 -0.4980325507
O   O48       1.0  0.79750  0.62670  0.36150  1.0000 -0.4779417919
O   O49       1.0  0.51725  0.92915  0.08715  1.0000 -0.5180640624
O   O50       1.0  0.48854  0.97574  0.44424  1.0000 -0.5469860143
O   O51       1.0  0.53106  0.01016  0.04636  1.0000 -0.5469860143
O   O52       1.0  0.99862  0.06282  0.41082  1.0000 -0.5385380642
O   O53       1.0  0.49186  0.90796  0.55766  1.0000 -0.5282353517
O   O54       1.0  0.07871  0.02011  0.42891  1.0000 -0.5385380642
O   O55       1.0  0.56822  0.98942  0.41742  1.0000 -0.5469860143
O   O56       1.0  0.57142  0.92422  0.52622  1.0000 -0.5831719743
O   O57       1.0  0.38287  0.82007  0.53527  1.0000 -0.5143498835
O   O58       1.0  0.89785  0.71075  0.15655  1.0000 -0.5180640624
O   O59       1.0  0.85713  0.65943  0.24433  1.0000 -0.4980325507
O   O60       1.0  0.36150  0.79750  0.62670  1.0000 -0.4779417919
O   O61       1.0  0.08715  0.51725  0.92915  1.0000 -0.5180640624
O   O62       1.0  0.44424  0.48854  0.97574  1.0000 -0.5469860143
O   O63       1.0  0.04636  0.53106  0.01016  1.0000 -0.5469860143
O   O64       1.0  0.41082  0.99862  0.06282  1.0000 -0.5385380642
O   O65       1.0  0.55766  0.49186  0.90796  1.0000 -0.5282353517
O   O66       1.0  0.42891  0.07871  0.02011  1.0000 -0.5385380642
O   O67       1.0  0.41742  0.56822  0.98942  1.0000 -0.5469860143
O   O68       1.0  0.52622  0.57142  0.92422  1.0000 -0.5831719743
O   O69       1.0  0.53527  0.38287  0.82007  1.0000 -0.5143498835
O   O70       1.0  0.15655  0.89785  0.71075  1.0000 -0.5180640624
O   O71       1.0  0.24433  0.85713  0.65943  1.0000 -0.4980325507
O   O72       1.0  0.62670  0.36150  0.79750  1.0000 -0.4779417919
