# DDEC6 charges by PACMAN v1.1 (https://github.com/mtap-research/PACMAN-charge/)
data_2022[CoPb][nan]3[ASR]1
_chemical_formula_sum              "Co2 H12 Pb4 C36 N16 O16"
_cell_length_a       12.3365
_cell_length_b       12.3365
_cell_length_c       19.3562
_cell_angle_alpha    57.3865
_cell_angle_beta     122.614
_cell_angle_gamma    147.535

_symmetry_space_group_name_H-M    "P 1"
_symmetry_Int_Tables_number       1

loop_
  _symmetry_equiv_pos_as_xyz
  'x, y, z'

loop_
  _atom_site_type_symbol
  _atom_site_label
  _atom_site_symmetry_multiplicity
  _atom_site_fract_x
  _atom_site_fract_y
  _atom_site_fract_z
  _atom_site_occupancy
  _atom_site_charge
Co  Co1       1.0  0.01516  0.01516  0.75000  1.0000 0.6859134121
Co  Co2       1.0  0.98484  0.98484  0.25000  1.0000 0.6859134121
H   H1        1.0  0.80030  0.35510  0.55130  1.0000 0.1378593094
H   H2        1.0  0.61610  0.15310  0.35920  1.0000 0.1378593094
H   H3        1.0  0.46770  0.36830  0.33333  1.0000 0.1254348366
H   H4        1.0  0.35510  0.80030  0.94870  1.0000 0.1378593094
H   H5        1.0  0.15310  0.61610  0.14080  1.0000 0.1378593094
H   H6        1.0  0.36830  0.46770  0.16667  1.0000 0.1254348366
H   H7        1.0  0.19970  0.64490  0.44870  1.0000 0.1378593094
H   H8        1.0  0.38390  0.84690  0.64080  1.0000 0.1378593094
H   H9        1.0  0.53230  0.63170  0.66667  1.0000 0.1254348366
H   H10       1.0  0.64490  0.19970  0.05130  1.0000 0.1378593094
H   H11       1.0  0.84690  0.38390  0.85920  1.0000 0.1378593094
H   H12       1.0  0.63170  0.53230  0.83333  1.0000 0.1254348366
Pb  Pb1       1.0  0.27231  0.20537  0.06995  1.0000 0.9698766156
Pb  Pb2       1.0  0.20537  0.27231  0.43005  1.0000 0.9698766156
Pb  Pb3       1.0  0.72769  0.79463  0.93005  1.0000 0.9698766156
Pb  Pb4       1.0  0.79463  0.72769  0.56995  1.0000 0.9698766156
C   C1        1.0  0.73086  0.32994  0.49580  1.0000 -0.1044865863
C   C2        1.0  0.71937  0.24163  0.46398  1.0000 0.0461506194
C   C3        1.0  0.61916  0.20724  0.38218  1.0000 -0.106503641
C   C4        1.0  0.52402  0.25258  0.33454  1.0000 -0.0161074065
C   C5        1.0  0.53405  0.33855  0.36640  1.0000 -0.1202089561
C   C6        1.0  0.64080  0.38100  0.44638  1.0000 -0.0161074065
C   C7        1.0  0.65228  0.47572  0.47993  1.0000 0.5632579311
C   C8        1.0  0.80604  0.17856  0.51810  1.0000 0.2353203541
C   C9        1.0  0.40876  0.21104  0.24738  1.0000 0.5743929131
C   C10       1.0  0.32994  0.73086  0.00420  1.0000 -0.1044865863
C   C11       1.0  0.24163  0.71937  0.03602  1.0000 0.0461506194
C   C12       1.0  0.20724  0.61916  0.11782  1.0000 -0.106503641
C   C13       1.0  0.25258  0.52402  0.16546  1.0000 -0.0161074065
C   C14       1.0  0.33855  0.53405  0.13360  1.0000 -0.1202089561
C   C15       1.0  0.38100  0.64080  0.05362  1.0000 -0.0161074065
C   C16       1.0  0.47572  0.65228  0.02007  1.0000 0.5632579311
C   C17       1.0  0.17856  0.80604  0.98190  1.0000 0.2353203541
C   C18       1.0  0.21104  0.40876  0.25262  1.0000 0.5743929131
C   C19       1.0  0.26914  0.67006  0.50420  1.0000 -0.1044865863
C   C20       1.0  0.28063  0.75837  0.53602  1.0000 0.0461506194
C   C21       1.0  0.38084  0.79276  0.61782  1.0000 -0.106503641
C   C22       1.0  0.47598  0.74742  0.66546  1.0000 -0.0161074065
C   C23       1.0  0.46595  0.66145  0.63360  1.0000 -0.1202089561
C   C24       1.0  0.35920  0.61900  0.55362  1.0000 -0.0161074065
C   C25       1.0  0.34772  0.52428  0.52007  1.0000 0.5632579311
C   C26       1.0  0.19396  0.82144  0.48190  1.0000 0.2353203541
C   C27       1.0  0.59124  0.78896  0.75262  1.0000 0.5743929131
C   C28       1.0  0.67006  0.26914  0.99580  1.0000 -0.1044865863
C   C29       1.0  0.75837  0.28063  0.96398  1.0000 0.0461506194
C   C30       1.0  0.79276  0.38084  0.88218  1.0000 -0.106503641
C   C31       1.0  0.74742  0.47598  0.83454  1.0000 -0.0161074065
C   C32       1.0  0.66145  0.46595  0.86640  1.0000 -0.1202089561
C   C33       1.0  0.61900  0.35920  0.94638  1.0000 -0.0161074065
C   C34       1.0  0.52428  0.34772  0.97993  1.0000 0.5632579311
C   C35       1.0  0.82144  0.19396  0.01810  1.0000 0.2353203541
C   C36       1.0  0.78896  0.59124  0.74738  1.0000 0.5743929131
N   N1        1.0  0.87790  0.17930  0.60034  1.0000 -0.254919173
N   N2        1.0  0.93468  0.10492  0.62533  1.0000 -0.0645715436
N   N3        1.0  0.89940  0.06220  0.56138  1.0000 -0.1202089561
N   N4        1.0  0.81823  0.10757  0.49286  1.0000 -0.2606757796
N   N5        1.0  0.17930  0.87790  0.89966  1.0000 -0.2606757796
N   N6        1.0  0.10492  0.93468  0.87467  1.0000 -0.0645715436
N   N7        1.0  0.06220  0.89940  0.93862  1.0000 -0.1202089561
N   N8        1.0  0.10757  0.81823  0.00714  1.0000 -0.2606757796
N   N9        1.0  0.12210  0.82070  0.39966  1.0000 -0.2606757796
N   N10       1.0  0.06532  0.89508  0.37467  1.0000 -0.0645715436
N   N11       1.0  0.10060  0.93780  0.43862  1.0000 -0.1202089561
N   N12       1.0  0.18177  0.89243  0.50714  1.0000 -0.2606757796
N   N13       1.0  0.82070  0.12210  0.10034  1.0000 -0.254919173
N   N14       1.0  0.89508  0.06532  0.12533  1.0000 -0.0656262801
N   N15       1.0  0.93780  0.10060  0.06138  1.0000 -0.1202089561
N   N16       1.0  0.89243  0.18177  0.99286  1.0000 -0.2606757796
O   O1        1.0  0.72875  0.49145  0.55566  1.0000 -0.4805965738
O   O2        1.0  0.58372  0.53668  0.43004  1.0000 -0.5682986172
O   O3        1.0  0.24867  0.15453  0.21865  1.0000 -0.5682986172
O   O4        1.0  0.47911  0.24009  0.20238  1.0000 -0.4489833505
O   O5        1.0  0.49145  0.72875  0.94434  1.0000 -0.4805965738
O   O6        1.0  0.53668  0.58372  0.06996  1.0000 -0.5682986172
O   O7        1.0  0.15453  0.24867  0.28135  1.0000 -0.5682986172
O   O8        1.0  0.24009  0.47911  0.29762  1.0000 -0.4489833505
O   O9        1.0  0.27125  0.50855  0.44434  1.0000 -0.4805965738
O   O10       1.0  0.41628  0.46332  0.56996  1.0000 -0.5682986172
O   O11       1.0  0.75133  0.84547  0.78135  1.0000 -0.5682986172
O   O12       1.0  0.52089  0.75991  0.79762  1.0000 -0.4489833505
O   O13       1.0  0.50855  0.27125  0.05566  1.0000 -0.4805965738
O   O14       1.0  0.46332  0.41628  0.93004  1.0000 -0.5682986172
O   O15       1.0  0.84547  0.75133  0.71865  1.0000 -0.5682986172
O   O16       1.0  0.75991  0.52089  0.70238  1.0000 -0.4489833505
