# DDEC6 charges by PACMAN v1.1 (https://github.com/mtap-research/PACMAN-charge/)
data_2022[Mn][nan]2[ASR]2
_chemical_formula_sum              "Mn6 H60 C136 O32"
_cell_length_a       15.3842
_cell_length_b       16.247
_cell_length_c       18.4098
_cell_angle_alpha    81.459
_cell_angle_beta     83.028
_cell_angle_gamma    78.12

_symmetry_space_group_name_H-M    "P 1"
_symmetry_Int_Tables_number       1

loop_
  _symmetry_equiv_pos_as_xyz
  'x, y, z'

loop_
  _atom_site_type_symbol
  _atom_site_label
  _atom_site_symmetry_multiplicity
  _atom_site_fract_x
  _atom_site_fract_y
  _atom_site_fract_z
  _atom_site_occupancy
  _atom_site_charge
Mn  Mn1       1.0  0.00015  0.79138  0.57891  1.0000 0.9840185062
Mn  Mn2       1.0  0.77749  0.00715  0.07207  1.0000 0.9840185062
Mn  Mn3       1.0  0.99985  0.20862  0.42109  1.0000 0.9853827174
Mn  Mn4       1.0  0.22251  0.99285  0.92793  1.0000 0.9840185062
Mn  Mn5       1.0  0.00000  0.00000  0.50000  1.0000 1.070588928
Mn  Mn6       1.0  0.00000  0.00000  0.00000  1.0000 1.0802675303
H   H1        1.0  0.04299  0.43228  0.87575  1.0000 0.3566216346
H   H2        1.0  0.42703  0.02410  0.34195  1.0000 0.3566216346
H   H3        1.0  0.90774  0.92575  0.30958  1.0000 0.1378232087
H   H4        1.0  0.04546  0.82202  0.13659  1.0000 0.1278988536
H   H5        1.0  0.10907  0.73155  0.34185  1.0000 0.1202915517
H   H6        1.0  0.29497  0.77579  0.08617  1.0000 0.1202915517
H   H7        1.0  0.38522  0.83560  0.99839  1.0000 0.1202915517
H   H8        1.0  0.51978  0.75591  0.94997  1.0000 0.1202915517
H   H9        1.0  0.56735  0.62044  0.00172  1.0000 0.1202915517
H   H10       1.0  0.51859  0.37594  0.19041  1.0000 0.1202915517
H   H11       1.0  0.44084  0.32622  0.29277  1.0000 0.1202915517
H   H12       1.0  0.30365  0.40270  0.33551  1.0000 0.1202915517
H   H13       1.0  0.24896  0.53165  0.27539  1.0000 0.1202915517
H   H14       1.0  0.77875  0.49745  0.98411  1.0000 0.1278988536
H   H15       1.0  0.94510  0.27950  0.95626  1.0000 0.1278988536
H   H16       1.0  0.71191  0.27828  0.08044  1.0000 0.1278988536
H   H17       1.0  0.82561  0.05535  0.62852  1.0000 0.1278988536
H   H18       1.0  0.73498  0.12025  0.82996  1.0000 0.1202915517
H   H19       1.0  0.92095  0.91183  0.80919  1.0000 0.1378232087
H   H20       1.0  0.54219  0.25996  0.75909  1.0000 0.1202915517
H   H21       1.0  0.41412  0.31515  0.82302  1.0000 0.1131113585
H   H22       1.0  0.33030  0.44775  0.77912  1.0000 0.1131113585
H   H23       1.0  0.38840  0.52956  0.68284  1.0000 0.1202915517
H   H24       1.0  0.63359  0.56856  0.48481  1.0000 0.1278988536
H   H25       1.0  0.76382  0.51365  0.42338  1.0000 0.1202915517
H   H26       1.0  0.84159  0.38192  0.46156  1.0000 0.1278988536
H   H27       1.0  0.78451  0.29861  0.55814  1.0000 0.1202915517
H   H28       1.0  0.50884  0.77302  0.46112  1.0000 0.1278988536
H   H29       1.0  0.28072  0.94246  0.45610  1.0000 0.1278988536
H   H30       1.0  0.29221  0.72300  0.58853  1.0000 0.1202915517
H   H31       1.0  0.95701  0.56772  0.12425  1.0000 0.3566216346
H   H32       1.0  0.57297  0.97590  0.65805  1.0000 0.3566216346
H   H33       1.0  0.09226  0.07425  0.69042  1.0000 0.1378232087
H   H34       1.0  0.95454  0.17798  0.86341  1.0000 0.1278988536
H   H35       1.0  0.89093  0.26845  0.65815  1.0000 0.1202915517
H   H36       1.0  0.70503  0.22421  0.91383  1.0000 0.1202915517
H   H37       1.0  0.61478  0.16440  0.00161  1.0000 0.1202915517
H   H38       1.0  0.48022  0.24409  0.05003  1.0000 0.1202915517
H   H39       1.0  0.43265  0.37956  0.99828  1.0000 0.1202915517
H   H40       1.0  0.48141  0.62406  0.80959  1.0000 0.1202915517
H   H41       1.0  0.55916  0.67378  0.70723  1.0000 0.1202915517
H   H42       1.0  0.69635  0.59730  0.66449  1.0000 0.1202915517
H   H43       1.0  0.75104  0.46835  0.72461  1.0000 0.1202915517
H   H44       1.0  0.22125  0.50255  0.01589  1.0000 0.1278988536
H   H45       1.0  0.05490  0.72050  0.04374  1.0000 0.1278988536
H   H46       1.0  0.28809  0.72172  0.91956  1.0000 0.1202915517
H   H47       1.0  0.17439  0.94465  0.37148  1.0000 0.1278988536
H   H48       1.0  0.26502  0.87975  0.17004  1.0000 0.1202915517
H   H49       1.0  0.07905  0.08817  0.19081  1.0000 0.1378232087
H   H50       1.0  0.45781  0.74004  0.24091  1.0000 0.1202915517
H   H51       1.0  0.58588  0.68485  0.17698  1.0000 0.1131113585
H   H52       1.0  0.66970  0.55225  0.22088  1.0000 0.1131113585
H   H53       1.0  0.61160  0.47044  0.31716  1.0000 0.1202915517
H   H54       1.0  0.36641  0.43144  0.51519  1.0000 0.1278988536
H   H55       1.0  0.23618  0.48635  0.57662  1.0000 0.1202915517
H   H56       1.0  0.15841  0.61808  0.53844  1.0000 0.1278988536
H   H57       1.0  0.21549  0.70139  0.44186  1.0000 0.1202915517
H   H58       1.0  0.49116  0.22698  0.53888  1.0000 0.1278988536
H   H59       1.0  0.71928  0.05754  0.54390  1.0000 0.1278988536
H   H60       1.0  0.70779  0.27700  0.41147  1.0000 0.1202915517
C   C1        1.0  0.99780  0.84290  0.41840  1.0000 0.5818922734
C   C2        1.0  0.00740  0.83040  0.33580  1.0000 -0.0047528511
C   C3        1.0  0.95280  0.88520  0.29020  1.0000 -0.0989998091
C   C4        1.0  0.96390  0.88090  0.21350  1.0000 -0.0209398084
C   C5        1.0  0.03490  0.82330  0.18730  1.0000 -0.1283098692
C   C6        1.0  0.09110  0.76750  0.23250  1.0000 0.1378232087
C   C7        1.0  0.07440  0.77040  0.30950  1.0000 -0.1409522478
C   C8        1.0  0.89840  0.93480  0.16480  1.0000 0.5818922734
C   C9        1.0  0.16770  0.71280  0.20570  1.0000 -0.0887566115
C   C10       1.0  0.23820  0.66990  0.18510  1.0000 -0.0802148018
C   C11       1.0  0.32190  0.62090  0.16140  1.0000 0.0386861251
C   C12       1.0  0.37660  0.65880  0.10420  1.0000 0.0386861251
C   C13       1.0  0.34990  0.74430  0.07060  1.0000 -0.1283098692
C   C14       1.0  0.40250  0.77900  0.01750  1.0000 -0.0802148018
C   C15       1.0  0.48530  0.73150  0.98900  1.0000 -0.0989998091
C   C16       1.0  0.51270  0.65070  0.01940  1.0000 -0.1484830026
C   C17       1.0  0.46030  0.61070  0.07760  1.0000 0.0386861251
C   C18       1.0  0.49010  0.52790  0.11160  1.0000 0.0386861251
C   C19       1.0  0.43730  0.49220  0.17110  1.0000 0.0386861251
C   C20       1.0  0.46600  0.40940  0.20820  1.0000 -0.1409522478
C   C21       1.0  0.41870  0.37910  0.26780  1.0000 -0.0887566115
C   C22       1.0  0.33610  0.42520  0.29410  1.0000 -0.0989998091
C   C23       1.0  0.30440  0.50210  0.25870  1.0000 -0.1283098692
C   C24       1.0  0.35300  0.53920  0.19690  1.0000 0.0386861251
C   C25       1.0  0.57430  0.48200  0.08730  1.0000 -0.0989998091
C   C26       1.0  0.64550  0.44230  0.06590  1.0000 -0.1182350613
C   C27       1.0  0.73130  0.39500  0.03770  1.0000 0.155088764
C   C28       1.0  0.79200  0.43860  0.99330  1.0000 -0.1484830026
C   C29       1.0  0.87080  0.39500  0.96330  1.0000 -0.0209398084
C   C30       1.0  0.89150  0.30870  0.97680  1.0000 -0.1283098692
C   C31       1.0  0.83080  0.26360  0.02210  1.0000 -0.0124776855
C   C32       1.0  0.75210  0.30760  0.05110  1.0000 -0.1409522478
C   C33       1.0  0.93340  0.44410  0.91590  1.0000 0.5564870651
C   C34       1.0  0.85010  0.16840  0.03450  1.0000 0.5818922734
C   C35       1.0  0.93190  0.90880  0.66530  1.0000 0.5818922734
C   C36       1.0  0.88120  0.97160  0.71320  1.0000 -0.0285841708
C   C37       1.0  0.82550  0.04550  0.67960  1.0000 -0.1409522478
C   C38       1.0  0.77160  0.10210  0.72230  1.0000 0.1378232087
C   C39       1.0  0.77290  0.08420  0.80000  1.0000 -0.1409522478
C   C40       1.0  0.82880  0.01500  0.83190  1.0000 -0.0209398084
C   C41       1.0  0.88300  0.95880  0.78760  1.0000 -0.0989998091
C   C42       1.0  0.83600  0.00380  0.91300  1.0000 0.5818922734
C   C43       1.0  0.72080  0.17910  0.69120  1.0000 -0.0887566115
C   C44       1.0  0.68100  0.24940  0.66900  1.0000 -0.0887566115
C   C45       1.0  0.63370  0.33280  0.64450  1.0000 0.0465205576
C   C46       1.0  0.55130  0.36420  0.68080  1.0000 0.0386861251
C   C47       1.0  0.51280  0.31470  0.74390  1.0000 -0.1283098692
C   C48       1.0  0.43560  0.34640  0.78060  1.0000 -0.0887566115
C   C49       1.0  0.38600  0.42780  0.75550  1.0000 -0.0989998091
C   C50       1.0  0.42000  0.47550  0.69740  1.0000 -0.1409522478
C   C51       1.0  0.50240  0.44610  0.65790  1.0000 0.0386861251
C   C52       1.0  0.54140  0.49650  0.59920  1.0000 0.0386861251
C   C53       1.0  0.62360  0.46520  0.56010  1.0000 0.0346138518
C   C54       1.0  0.66230  0.51360  0.50000  1.0000 -0.1409522478
C   C55       1.0  0.74060  0.48130  0.46420  1.0000 -0.0887566115
C   C56       1.0  0.78680  0.40210  0.48640  1.0000 -0.0887566115
C   C57       1.0  0.75320  0.35300  0.54440  1.0000 -0.1283098692
C   C58       1.0  0.67070  0.38310  0.58490  1.0000 0.0386861251
C   C59       1.0  0.49410  0.58200  0.57550  1.0000 -0.1182350613
C   C60       1.0  0.45690  0.65340  0.55640  1.0000 -0.1182350613
C   C61       1.0  0.40790  0.73280  0.53140  1.0000 0.1378232087
C   C62       1.0  0.44910  0.78880  0.47810  1.0000 -0.1409522478
C   C63       1.0  0.40130  0.86630  0.45160  1.0000 -0.0124776855
C   C64       1.0  0.31230  0.89010  0.47500  1.0000 -0.0989998091
C   C65       1.0  0.27010  0.83780  0.52550  1.0000 -0.0432899591
C   C66       1.0  0.32040  0.75870  0.55350  1.0000 -0.1409522478
C   C67       1.0  0.17340  0.85630  0.54300  1.0000 0.5818922734
C   C68       1.0  0.44940  0.92250  0.39290  1.0000 0.54282425
C   C69       1.0  0.00220  0.15710  0.58160  1.0000 0.5818922734
C   C70       1.0  0.99260  0.16960  0.66420  1.0000 -0.0047528511
C   C71       1.0  0.04720  0.11480  0.70980  1.0000 -0.0989998091
C   C72       1.0  0.03610  0.11910  0.78650  1.0000 -0.0285841708
C   C73       1.0  0.96510  0.17670  0.81270  1.0000 -0.1283098692
C   C74       1.0  0.90890  0.23250  0.76750  1.0000 0.1378232087
C   C75       1.0  0.92560  0.22960  0.69050  1.0000 -0.1409522478
C   C76       1.0  0.10160  0.06520  0.83520  1.0000 0.5818922734
C   C77       1.0  0.83230  0.28720  0.79430  1.0000 -0.0887566115
C   C78       1.0  0.76180  0.33010  0.81490  1.0000 -0.0802148018
C   C79       1.0  0.67810  0.37910  0.83860  1.0000 0.0386861251
C   C80       1.0  0.62340  0.34120  0.89580  1.0000 0.0386861251
C   C81       1.0  0.65010  0.25570  0.92940  1.0000 -0.1283098692
C   C82       1.0  0.59750  0.22100  0.98250  1.0000 -0.0802148018
C   C83       1.0  0.51470  0.26850  0.01100  1.0000 -0.0989998091
C   C84       1.0  0.48730  0.34930  0.98060  1.0000 -0.1484830026
C   C85       1.0  0.53970  0.38930  0.92240  1.0000 0.0386861251
C   C86       1.0  0.50990  0.47210  0.88840  1.0000 0.0386861251
C   C87       1.0  0.56270  0.50780  0.82890  1.0000 0.0386861251
C   C88       1.0  0.53400  0.59060  0.79180  1.0000 -0.1484830026
C   C89       1.0  0.58130  0.62090  0.73220  1.0000 -0.0887566115
C   C90       1.0  0.66390  0.57480  0.70590  1.0000 -0.0989998091
C   C91       1.0  0.69560  0.49790  0.74130  1.0000 -0.1283098692
C   C92       1.0  0.64700  0.46080  0.80310  1.0000 0.0386861251
C   C93       1.0  0.42570  0.51800  0.91270  1.0000 -0.0989998091
C   C94       1.0  0.35450  0.55770  0.93410  1.0000 -0.1182350613
C   C95       1.0  0.26870  0.60500  0.96230  1.0000 0.155088764
C   C96       1.0  0.20800  0.56140  0.00670  1.0000 -0.1484830026
C   C97       1.0  0.12920  0.60500  0.03670  1.0000 -0.0209398084
C   C98       1.0  0.10850  0.69130  0.02320  1.0000 -0.1283098692
C   C99       1.0  0.16920  0.73640  0.97790  1.0000 -0.0124776855
C   C100      1.0  0.24790  0.69240  0.94890  1.0000 -0.1409522478
C   C101      1.0  0.06660  0.55590  0.08410  1.0000 0.5564870651
C   C102      1.0  0.14990  0.83160  0.96550  1.0000 0.5818922734
C   C103      1.0  0.06810  0.09120  0.33470  1.0000 0.5818922734
C   C104      1.0  0.11880  0.02840  0.28680  1.0000 -0.0285841708
C   C105      1.0  0.17450  0.95450  0.32040  1.0000 -0.1409522478
C   C106      1.0  0.22840  0.89790  0.27770  1.0000 0.1378232087
C   C107      1.0  0.22710  0.91580  0.20000  1.0000 -0.1409522478
C   C108      1.0  0.17120  0.98500  0.16810  1.0000 -0.0209398084
C   C109      1.0  0.11700  0.04120  0.21240  1.0000 -0.0989998091
C   C110      1.0  0.16400  0.99620  0.08700  1.0000 0.5818922734
C   C111      1.0  0.27920  0.82090  0.30880  1.0000 -0.0887566115
C   C112      1.0  0.31900  0.75060  0.33100  1.0000 -0.0887566115
C   C113      1.0  0.36630  0.66720  0.35550  1.0000 0.0465205576
C   C114      1.0  0.44870  0.63580  0.31920  1.0000 0.0386861251
C   C115      1.0  0.48720  0.68530  0.25610  1.0000 -0.1283098692
C   C116      1.0  0.56440  0.65360  0.21940  1.0000 -0.0887566115
C   C117      1.0  0.61400  0.57220  0.24450  1.0000 -0.0989998091
C   C118      1.0  0.58000  0.52450  0.30260  1.0000 -0.1409522478
C   C119      1.0  0.49760  0.55390  0.34210  1.0000 0.0386861251
C   C120      1.0  0.45860  0.50350  0.40080  1.0000 0.0386861251
C   C121      1.0  0.37640  0.53480  0.43990  1.0000 0.0346138518
C   C122      1.0  0.33770  0.48640  0.50000  1.0000 -0.1409522478
C   C123      1.0  0.25940  0.51870  0.53580  1.0000 -0.0887566115
C   C124      1.0  0.21320  0.59790  0.51360  1.0000 -0.0887566115
C   C125      1.0  0.24680  0.64700  0.45560  1.0000 -0.1283098692
C   C126      1.0  0.32930  0.61690  0.41510  1.0000 0.0386861251
C   C127      1.0  0.50590  0.41800  0.42450  1.0000 -0.1182350613
C   C128      1.0  0.54310  0.34660  0.44360  1.0000 -0.1182350613
C   C129      1.0  0.59210  0.26720  0.46860  1.0000 0.1378232087
C   C130      1.0  0.55090  0.21120  0.52190  1.0000 -0.1409522478
C   C131      1.0  0.59870  0.13370  0.54840  1.0000 -0.0124776855
C   C132      1.0  0.68770  0.10990  0.52500  1.0000 -0.0989998091
C   C133      1.0  0.72990  0.16220  0.47450  1.0000 -0.0432899591
C   C134      1.0  0.67960  0.24130  0.44650  1.0000 -0.1409522478
C   C135      1.0  0.82660  0.14370  0.45700  1.0000 0.5818922734
C   C136      1.0  0.55060  0.07750  0.60710  1.0000 0.54282425
O   O1        1.0  0.79300  0.13349  0.07349  1.0000 -0.5415036861
O   O2        1.0  0.92190  0.12991  0.00408  1.0000 -0.5600812171
O   O3        1.0  0.00720  0.40090  0.88960  1.0000 -0.4567865316
O   O4        1.0  0.91670  0.52110  0.90620  1.0000 -0.496287543
O   O5        1.0  0.02480  0.77720  0.46403  1.0000 -0.5801673119
O   O6        1.0  0.96390  0.91550  0.43337  1.0000 -0.5462414507
O   O7        1.0  0.92200  0.94650  0.09537  1.0000 -0.588384289
O   O8        1.0  0.82170  0.96360  0.18898  1.0000 -0.4793948565
O   O9        1.0  0.13200  0.92380  0.51165  1.0000 -0.5462414507
O   O10       1.0  0.13620  0.79980  0.58265  1.0000 -0.5600812171
O   O11       1.0  0.52360  0.90030  0.36740  1.0000 -0.4793948565
O   O12       1.0  0.39960  0.99680  0.37460  1.0000 -0.4793948565
O   O13       1.0  0.94220  0.92810  0.59558  1.0000 -0.5801673119
O   O14       1.0  0.96100  0.83600  0.69311  1.0000 -0.4902412627
O   O15       1.0  0.90950  0.96710  0.93399  1.0000 -0.5462414507
O   O16       1.0  0.76880  0.03150  0.95530  1.0000 -0.5707142536
O   O17       1.0  0.20700  0.86651  0.92651  1.0000 -0.5415036861
O   O18       1.0  0.07810  0.87009  0.99592  1.0000 -0.5600812171
O   O19       1.0  0.99280  0.59910  0.11040  1.0000 -0.4567865316
O   O20       1.0  0.08330  0.47890  0.09380  1.0000 -0.496287543
O   O21       1.0  0.97520  0.22280  0.53597  1.0000 -0.5801673119
O   O22       1.0  0.03610  0.08450  0.56663  1.0000 -0.5462414507
O   O23       1.0  0.07800  0.05350  0.90463  1.0000 -0.588384289
O   O24       1.0  0.17830  0.03640  0.81102  1.0000 -0.4793948565
O   O25       1.0  0.86800  0.07620  0.48835  1.0000 -0.5462414507
O   O26       1.0  0.86380  0.20020  0.41735  1.0000 -0.5600812171
O   O27       1.0  0.47640  0.09970  0.63260  1.0000 -0.4793948565
O   O28       1.0  0.60040  0.00320  0.62540  1.0000 -0.4793948565
O   O29       1.0  0.05780  0.07190  0.40442  1.0000 -0.5801673119
O   O30       1.0  0.03900  0.16400  0.30689  1.0000 -0.4902412627
O   O31       1.0  0.09050  0.03290  0.06601  1.0000 -0.5462414507
O   O32       1.0  0.23120  0.96850  0.04470  1.0000 -0.5707142536
