# DDEC6 charges by PACMAN v1.1 (https://github.com/mtap-research/PACMAN-charge/)
data_2022[NiFe][nan]3[ASR]1
_chemical_formula_sum              "Fe3 Ni6 H42 C90 O36"
_cell_length_a       18.8003
_cell_length_b       18.8003
_cell_length_c       18.8003
_cell_angle_alpha    113.059
_cell_angle_beta     113.059
_cell_angle_gamma    113.059

_symmetry_space_group_name_H-M    "P 1"
_symmetry_Int_Tables_number       1

loop_
  _symmetry_equiv_pos_as_xyz
  'x, y, z'

loop_
  _atom_site_type_symbol
  _atom_site_label
  _atom_site_symmetry_multiplicity
  _atom_site_fract_x
  _atom_site_fract_y
  _atom_site_fract_z
  _atom_site_occupancy
  _atom_site_charge
Fe  Fe1       1.0  0.50000  0.50000  0.00000  1.0000 1.0944128731
Fe  Fe2       1.0  0.50000  0.00000  0.50000  1.0000 1.0944128731
Fe  Fe3       1.0  0.00000  0.50000  0.50000  1.0000 1.0944128731
Ni  Ni1       1.0  0.42597  0.38548  0.09624  1.0000 0.8960038521
Ni  Ni2       1.0  0.38548  0.09624  0.42597  1.0000 0.8960038521
Ni  Ni3       1.0  0.09624  0.42597  0.38548  1.0000 0.8960038521
Ni  Ni4       1.0  0.57403  0.61452  0.90376  1.0000 0.8960038521
Ni  Ni5       1.0  0.61452  0.90376  0.57403  1.0000 0.8960038521
Ni  Ni6       1.0  0.90376  0.57403  0.61452  1.0000 0.8960038521
H   H1        1.0  0.35280  0.12030  0.90440  1.0000 0.116419073
H   H2        1.0  0.30630  0.96630  0.78660  1.0000 0.116419073
H   H3        1.0  0.35710  0.06460  0.64110  1.0000 0.116419073
H   H4        1.0  0.39180  0.21460  0.75340  1.0000 0.116419073
H   H5        1.0  0.20960  0.81110  0.62300  1.0000 0.1273091123
H   H6        1.0  0.33280  0.71000  0.52650  1.0000 0.1363524371
H   H7        1.0  0.44170  0.99570  0.64880  1.0000 0.1273091123
H   H8        1.0  0.12030  0.90440  0.35280  1.0000 0.116419073
H   H9        1.0  0.96630  0.78660  0.30630  1.0000 0.116419073
H   H10       1.0  0.06460  0.64110  0.35710  1.0000 0.116419073
H   H11       1.0  0.21460  0.75340  0.39180  1.0000 0.116419073
H   H12       1.0  0.81110  0.62300  0.20960  1.0000 0.1273091123
H   H13       1.0  0.71000  0.52650  0.33280  1.0000 0.1363524371
H   H14       1.0  0.99570  0.64880  0.44170  1.0000 0.1273091123
H   H15       1.0  0.90440  0.35280  0.12030  1.0000 0.116419073
H   H16       1.0  0.78660  0.30630  0.96630  1.0000 0.116419073
H   H17       1.0  0.64110  0.35710  0.06460  1.0000 0.116419073
H   H18       1.0  0.75340  0.39180  0.21460  1.0000 0.116419073
H   H19       1.0  0.62300  0.20960  0.81110  1.0000 0.1273091123
H   H20       1.0  0.52650  0.33280  0.71000  1.0000 0.1363524371
H   H21       1.0  0.64880  0.44170  0.99570  1.0000 0.1273091123
H   H22       1.0  0.64720  0.87970  0.09560  1.0000 0.116419073
H   H23       1.0  0.69370  0.03370  0.21340  1.0000 0.116419073
H   H24       1.0  0.64290  0.93540  0.35890  1.0000 0.116419073
H   H25       1.0  0.60820  0.78540  0.24660  1.0000 0.116419073
H   H26       1.0  0.79040  0.18890  0.37700  1.0000 0.1273091123
H   H27       1.0  0.66720  0.29000  0.47350  1.0000 0.1363524371
H   H28       1.0  0.55830  0.00430  0.35120  1.0000 0.1273091123
H   H29       1.0  0.87970  0.09560  0.64720  1.0000 0.116419073
H   H30       1.0  0.03370  0.21340  0.69370  1.0000 0.116419073
H   H31       1.0  0.93540  0.35890  0.64290  1.0000 0.116419073
H   H32       1.0  0.78540  0.24660  0.60820  1.0000 0.116419073
H   H33       1.0  0.18890  0.37700  0.79040  1.0000 0.1273091123
H   H34       1.0  0.29000  0.47350  0.66720  1.0000 0.1363524371
H   H35       1.0  0.00430  0.35120  0.55830  1.0000 0.1273091123
H   H36       1.0  0.09560  0.64720  0.87970  1.0000 0.116419073
H   H37       1.0  0.21340  0.69370  0.03370  1.0000 0.116419073
H   H38       1.0  0.35890  0.64290  0.93540  1.0000 0.116419073
H   H39       1.0  0.24660  0.60820  0.78540  1.0000 0.116419073
H   H40       1.0  0.37700  0.79040  0.18890  1.0000 0.1273091123
H   H41       1.0  0.47350  0.66720  0.29000  1.0000 0.1363524371
H   H42       1.0  0.35120  0.55830  0.00430  1.0000 0.1273091123
C   C1        1.0  0.41260  0.28230  0.92170  1.0000 0.5906016775
C   C2        1.0  0.37850  0.18220  0.84050  1.0000 -0.0257408465
C   C3        1.0  0.35320  0.10900  0.85080  1.0000 -0.0987977524
C   C4        1.0  0.32820  0.01820  0.78240  1.0000 -0.1557073495
C   C5        1.0  0.33580  0.00450  0.70750  1.0000 0.0782284052
C   C6        1.0  0.35670  0.07570  0.69490  1.0000 -0.1420017309
C   C7        1.0  0.37800  0.16600  0.76240  1.0000 -0.0903255618
C   C8        1.0  0.32830  0.91750  0.64750  1.0000 0.0715955643
C   C9        1.0  0.25840  0.82280  0.61440  1.0000 -0.1527515045
C   C10       1.0  0.26000  0.74580  0.56920  1.0000 -0.015261626
C   C11       1.0  0.33140  0.76290  0.55690  1.0000 -0.1211807593
C   C12       1.0  0.40090  0.85650  0.58850  1.0000 -0.0125568598
C   C13       1.0  0.39730  0.93290  0.63090  1.0000 -0.1420017309
C   C14       1.0  0.18170  0.64060  0.52800  1.0000 0.5951655406
C   C15       1.0  0.47950  0.87240  0.57920  1.0000 0.5906016775
C   C16       1.0  0.28230  0.92170  0.41260  1.0000 0.5906016775
C   C17       1.0  0.18220  0.84050  0.37850  1.0000 -0.0257408465
C   C18       1.0  0.10900  0.85080  0.35320  1.0000 -0.0987977524
C   C19       1.0  0.01820  0.78240  0.32820  1.0000 -0.1527515045
C   C20       1.0  0.00450  0.70750  0.33580  1.0000 0.0782284052
C   C21       1.0  0.07570  0.69490  0.35670  1.0000 -0.1420017309
C   C22       1.0  0.16600  0.76240  0.37800  1.0000 -0.0903255618
C   C23       1.0  0.91750  0.64750  0.32830  1.0000 0.0715955643
C   C24       1.0  0.82280  0.61440  0.25840  1.0000 -0.1527515045
C   C25       1.0  0.74580  0.56920  0.26000  1.0000 -0.015261626
C   C26       1.0  0.76290  0.55690  0.33140  1.0000 -0.1211807593
C   C27       1.0  0.85650  0.58850  0.40090  1.0000 -0.0125568598
C   C28       1.0  0.93290  0.63090  0.39730  1.0000 -0.1420017309
C   C29       1.0  0.64060  0.52800  0.18170  1.0000 0.5951655406
C   C30       1.0  0.87240  0.57920  0.47950  1.0000 0.5906016775
C   C31       1.0  0.92170  0.41260  0.28230  1.0000 0.5906016775
C   C32       1.0  0.84050  0.37850  0.18220  1.0000 -0.0257408465
C   C33       1.0  0.85080  0.35320  0.10900  1.0000 -0.0987977524
C   C34       1.0  0.78240  0.32820  0.01820  1.0000 -0.1527515045
C   C35       1.0  0.70750  0.33580  0.00450  1.0000 0.0782284052
C   C36       1.0  0.69490  0.35670  0.07570  1.0000 -0.1420017309
C   C37       1.0  0.76240  0.37800  0.16600  1.0000 -0.0903255618
C   C38       1.0  0.64750  0.32830  0.91750  1.0000 0.0715955643
C   C39       1.0  0.61440  0.25840  0.82280  1.0000 -0.1527515045
C   C40       1.0  0.56920  0.26000  0.74580  1.0000 -0.015261626
C   C41       1.0  0.55690  0.33140  0.76290  1.0000 -0.1211807593
C   C42       1.0  0.58850  0.40090  0.85650  1.0000 -0.0125568598
C   C43       1.0  0.63090  0.39730  0.93290  1.0000 -0.1420017309
C   C44       1.0  0.52800  0.18170  0.64060  1.0000 0.5951655406
C   C45       1.0  0.57920  0.47950  0.87240  1.0000 0.5906016775
C   C46       1.0  0.58740  0.71770  0.07830  1.0000 0.5906016775
C   C47       1.0  0.62150  0.81780  0.15950  1.0000 -0.0257408465
C   C48       1.0  0.64680  0.89100  0.14920  1.0000 -0.0987977524
C   C49       1.0  0.67180  0.98180  0.21760  1.0000 -0.1527515045
C   C50       1.0  0.66420  0.99550  0.29250  1.0000 0.0782284052
C   C51       1.0  0.64330  0.92430  0.30510  1.0000 -0.1420017309
C   C52       1.0  0.62200  0.83400  0.23760  1.0000 -0.0903255618
C   C53       1.0  0.67170  0.08250  0.35250  1.0000 0.0715955643
C   C54       1.0  0.74160  0.17720  0.38560  1.0000 -0.1527515045
C   C55       1.0  0.74000  0.25420  0.43080  1.0000 -0.015261626
C   C56       1.0  0.66860  0.23710  0.44310  1.0000 -0.1211807593
C   C57       1.0  0.59910  0.14350  0.41150  1.0000 -0.0125568598
C   C58       1.0  0.60270  0.06710  0.36910  1.0000 -0.1420017309
C   C59       1.0  0.81830  0.35940  0.47200  1.0000 0.5951655406
C   C60       1.0  0.52050  0.12760  0.42080  1.0000 0.5906016775
C   C61       1.0  0.71770  0.07830  0.58740  1.0000 0.5906016775
C   C62       1.0  0.81780  0.15950  0.62150  1.0000 -0.0257408465
C   C63       1.0  0.89100  0.14920  0.64680  1.0000 -0.0987977524
C   C64       1.0  0.98180  0.21760  0.67180  1.0000 -0.1557073495
C   C65       1.0  0.99550  0.29250  0.66420  1.0000 0.0782284052
C   C66       1.0  0.92430  0.30510  0.64330  1.0000 -0.1420017309
C   C67       1.0  0.83400  0.23760  0.62200  1.0000 -0.0903255618
C   C68       1.0  0.08250  0.35250  0.67170  1.0000 0.0715955643
C   C69       1.0  0.17720  0.38560  0.74160  1.0000 -0.1527515045
C   C70       1.0  0.25420  0.43080  0.74000  1.0000 -0.015261626
C   C71       1.0  0.23710  0.44310  0.66860  1.0000 -0.1211807593
C   C72       1.0  0.14350  0.41150  0.59910  1.0000 -0.0125568598
C   C73       1.0  0.06710  0.36910  0.60270  1.0000 -0.1420017309
C   C74       1.0  0.35940  0.47200  0.81830  1.0000 0.5951655406
C   C75       1.0  0.12760  0.42080  0.52050  1.0000 0.5906016775
C   C76       1.0  0.07830  0.58740  0.71770  1.0000 0.5906016775
C   C77       1.0  0.15950  0.62150  0.81780  1.0000 -0.0257408465
C   C78       1.0  0.14920  0.64680  0.89100  1.0000 -0.0987977524
C   C79       1.0  0.21760  0.67180  0.98180  1.0000 -0.1527515045
C   C80       1.0  0.29250  0.66420  0.99550  1.0000 0.0782284052
C   C81       1.0  0.30510  0.64330  0.92430  1.0000 -0.1420017309
C   C82       1.0  0.23760  0.62200  0.83400  1.0000 -0.0903255618
C   C83       1.0  0.35250  0.67170  0.08250  1.0000 0.0715955643
C   C84       1.0  0.38560  0.74160  0.17720  1.0000 -0.1527515045
C   C85       1.0  0.43080  0.74000  0.25420  1.0000 -0.015261626
C   C86       1.0  0.44310  0.66860  0.23710  1.0000 -0.1211807593
C   C87       1.0  0.41150  0.59910  0.14350  1.0000 -0.0125568598
C   C88       1.0  0.36910  0.60270  0.06710  1.0000 -0.1420017309
C   C89       1.0  0.47200  0.81830  0.35940  1.0000 0.5951655406
C   C90       1.0  0.42080  0.52050  0.12760  1.0000 0.5906016775
O   O1        1.0  0.42140  0.29160  0.99390  1.0000 -0.5447690092
O   O2        1.0  0.42910  0.34590  0.90880  1.0000 -0.5569049221
O   O3        1.0  0.11440  0.62460  0.53540  1.0000 -0.5502703092
O   O4        1.0  0.19240  0.57830  0.48840  1.0000 -0.5502703092
O   O5        1.0  0.50180  0.81740  0.57350  1.0000 -0.480237653
O   O6        1.0  0.52870  0.94710  0.58430  1.0000 -0.5874089799
O   O7        1.0  0.29160  0.99390  0.42140  1.0000 -0.5502703092
O   O8        1.0  0.34590  0.90880  0.42910  1.0000 -0.5569049221
O   O9        1.0  0.62460  0.53540  0.11440  1.0000 -0.5502703092
O   O10       1.0  0.57830  0.48840  0.19240  1.0000 -0.5502703092
O   O11       1.0  0.81740  0.57350  0.50180  1.0000 -0.480237653
O   O12       1.0  0.94710  0.58430  0.52870  1.0000 -0.5874089799
O   O13       1.0  0.99390  0.42140  0.29160  1.0000 -0.5502703092
O   O14       1.0  0.90880  0.42910  0.34590  1.0000 -0.5569049221
O   O15       1.0  0.53540  0.11440  0.62460  1.0000 -0.5502703092
O   O16       1.0  0.48840  0.19240  0.57830  1.0000 -0.5502703092
O   O17       1.0  0.57350  0.50180  0.81740  1.0000 -0.480237653
O   O18       1.0  0.58430  0.52870  0.94710  1.0000 -0.5874089799
O   O19       1.0  0.57860  0.70840  0.00610  1.0000 -0.5447690092
O   O20       1.0  0.57090  0.65410  0.09120  1.0000 -0.5569049221
O   O21       1.0  0.88560  0.37540  0.46460  1.0000 -0.5502703092
O   O22       1.0  0.80760  0.42170  0.51160  1.0000 -0.5502703092
O   O23       1.0  0.49820  0.18260  0.42650  1.0000 -0.480237653
O   O24       1.0  0.47130  0.05290  0.41570  1.0000 -0.5874089799
O   O25       1.0  0.70840  0.00610  0.57860  1.0000 -0.5447690092
O   O26       1.0  0.65410  0.09120  0.57090  1.0000 -0.5569049221
O   O27       1.0  0.37540  0.46460  0.88560  1.0000 -0.5502703092
O   O28       1.0  0.42170  0.51160  0.80760  1.0000 -0.5502703092
O   O29       1.0  0.18260  0.42650  0.49820  1.0000 -0.480237653
O   O30       1.0  0.05290  0.41570  0.47130  1.0000 -0.5874089799
O   O31       1.0  0.00610  0.57860  0.70840  1.0000 -0.5447690092
O   O32       1.0  0.09120  0.57090  0.65410  1.0000 -0.5569049221
O   O33       1.0  0.46460  0.88560  0.37540  1.0000 -0.5502703092
O   O34       1.0  0.51160  0.80760  0.42170  1.0000 -0.5502703092
O   O35       1.0  0.42650  0.49820  0.18260  1.0000 -0.480237653
O   O36       1.0  0.41570  0.47130  0.05290  1.0000 -0.5874089799
