# DDEC6 charges by PACMAN v1.1 (https://github.com/mtap-research/PACMAN-charge/)
data_2022[La][nan]2[ASR]1
_chemical_formula_sum              "La8 H232 C288 N48 O104"
_cell_length_a       10.221
_cell_length_b       22.156
_cell_length_c       38.481
_cell_angle_alpha    90
_cell_angle_beta     90
_cell_angle_gamma    90

_symmetry_space_group_name_H-M    "P 1"
_symmetry_Int_Tables_number       1

loop_
  _symmetry_equiv_pos_as_xyz
  'x, y, z'

loop_
  _atom_site_type_symbol
  _atom_site_label
  _atom_site_symmetry_multiplicity
  _atom_site_fract_x
  _atom_site_fract_y
  _atom_site_fract_z
  _atom_site_occupancy
  _atom_site_charge
La  La1       1.0  0.94806  0.26264  0.94255  1.0000 1.9589063334
La  La2       1.0  0.05194  0.23736  0.44255  1.0000 1.9589063334
La  La3       1.0  0.55194  0.26264  0.44255  1.0000 1.9589063334
La  La4       1.0  0.44806  0.23736  0.94255  1.0000 1.9589063334
La  La5       1.0  0.44806  0.73736  0.55745  1.0000 1.9589063334
La  La6       1.0  0.55194  0.76264  0.05745  1.0000 1.9589063334
La  La7       1.0  0.05194  0.73736  0.05745  1.0000 1.9589063334
La  La8       1.0  0.94806  0.76264  0.55745  1.0000 1.9589063334
H   H1        1.0  0.90507  0.45412  0.04068  1.0000 0.1082044293
H   H2        1.0  0.19262  0.31217  0.08810  1.0000 0.1202735355
H   H3        1.0  0.17079  0.32089  0.02779  1.0000 0.1284359669
H   H4        1.0  0.73580  0.46320  0.08028  1.0000 0.1202735355
H   H5        1.0  0.74197  0.50513  0.11411  1.0000 0.1284359669
H   H6        1.0  0.83363  0.51956  0.08143  1.0000 0.1202735355
H   H7        1.0  0.09519  0.28467  0.14087  1.0000 0.1042342741
H   H8        1.0  0.22327  0.32626  0.14469  1.0000 0.1082044293
H   H9        1.0  0.29324  0.32052  0.21203  1.0000 0.1402491871
H   H10       1.0  0.99844  0.29761  0.29987  1.0000 0.1202735355
H   H11       1.0  0.07100  0.28500  0.35683  1.0000 0.1284359669
H   H12       1.0  0.43954  0.32465  0.32730  1.0000 0.1202735355
H   H13       1.0  0.36996  0.33803  0.27016  1.0000 0.1284359669
H   H14       1.0  0.47832  0.32366  0.03487  1.0000 0.1284359669
H   H15       1.0  0.44078  0.34485  0.09387  1.0000 0.1284359669
H   H16       1.0  0.82425  0.30993  0.11420  1.0000 0.1284359669
H   H17       1.0  0.86096  0.29485  0.05560  1.0000 0.1202735355
H   H18       1.0  0.78680  0.35565  0.16837  1.0000 0.1402491871
H   H19       1.0  0.76971  0.34485  0.23834  1.0000 0.1082044293
H   H20       1.0  0.64334  0.30702  0.25001  1.0000 0.1082044293
H   H21       1.0  0.51962  0.47328  0.35654  1.0000 0.1202735355
H   H22       1.0  0.76462  0.33012  0.35797  1.0000 0.1284359669
H   H23       1.0  0.76335  0.32741  0.29703  1.0000 0.1202735355
H   H24       1.0  0.45457  0.54626  0.32025  1.0000 0.1202735355
H   H25       1.0  0.35627  0.54313  0.28793  1.0000 0.1284359669
H   H26       1.0  0.34276  0.49573  0.31911  1.0000 0.1202735355
H   H27       1.0  0.13376  0.17074  0.91547  1.0000 0.3755619894
H   H28       1.0  0.98259  0.46808  0.98623  1.0000 0.3229769985
H   H29       1.0  0.56825  0.43759  0.43728  1.0000 0.3548189434
H   H30       1.0  0.09493  0.04588  0.54068  1.0000 0.1082044293
H   H31       1.0  0.80738  0.18783  0.58810  1.0000 0.1202735355
H   H32       1.0  0.82921  0.17911  0.52779  1.0000 0.1284359669
H   H33       1.0  0.26420  0.03680  0.58028  1.0000 0.1202735355
H   H34       1.0  0.25803  0.99487  0.61411  1.0000 0.1284359669
H   H35       1.0  0.16637  0.98044  0.58143  1.0000 0.1202735355
H   H36       1.0  0.90481  0.21533  0.64087  1.0000 0.1042342741
H   H37       1.0  0.77673  0.17374  0.64469  1.0000 0.1082044293
H   H38       1.0  0.70676  0.17948  0.71203  1.0000 0.1402491871
H   H39       1.0  0.00156  0.20239  0.79987  1.0000 0.1202735355
H   H40       1.0  0.92900  0.21500  0.85683  1.0000 0.1284359669
H   H41       1.0  0.56046  0.17535  0.82730  1.0000 0.1202735355
H   H42       1.0  0.63004  0.16197  0.77016  1.0000 0.1284359669
H   H43       1.0  0.52168  0.17634  0.53487  1.0000 0.1284359669
H   H44       1.0  0.55922  0.15515  0.59387  1.0000 0.1284359669
H   H45       1.0  0.17575  0.19007  0.61420  1.0000 0.1284359669
H   H46       1.0  0.13904  0.20515  0.55560  1.0000 0.1202735355
H   H47       1.0  0.21320  0.14435  0.66837  1.0000 0.1402491871
H   H48       1.0  0.23029  0.15515  0.73834  1.0000 0.1082044293
H   H49       1.0  0.35666  0.19298  0.75001  1.0000 0.1082044293
H   H50       1.0  0.48038  0.02672  0.85654  1.0000 0.1202735355
H   H51       1.0  0.23538  0.16988  0.85797  1.0000 0.1284359669
H   H52       1.0  0.23665  0.17259  0.79703  1.0000 0.1202735355
H   H53       1.0  0.54543  0.95374  0.82025  1.0000 0.1202735355
H   H54       1.0  0.64373  0.95687  0.78793  1.0000 0.1284359669
H   H55       1.0  0.65724  0.00427  0.81911  1.0000 0.1202735355
H   H56       1.0  0.86624  0.32926  0.41547  1.0000 0.3755619894
H   H57       1.0  0.01741  0.03192  0.48623  1.0000 0.3229769985
H   H58       1.0  0.43175  0.06241  0.93728  1.0000 0.3548189434
H   H59       1.0  0.59493  0.45412  0.54068  1.0000 0.1082044293
H   H60       1.0  0.30738  0.31217  0.58810  1.0000 0.1202735355
H   H61       1.0  0.32921  0.32089  0.52779  1.0000 0.1284359669
H   H62       1.0  0.76420  0.46320  0.58028  1.0000 0.1202735355
H   H63       1.0  0.75803  0.50513  0.61411  1.0000 0.1284359669
H   H64       1.0  0.66637  0.51956  0.58143  1.0000 0.1202735355
H   H65       1.0  0.40481  0.28467  0.64087  1.0000 0.1042342741
H   H66       1.0  0.27673  0.32626  0.64469  1.0000 0.1082044293
H   H67       1.0  0.20676  0.32052  0.71203  1.0000 0.1402491871
H   H68       1.0  0.50156  0.29761  0.79987  1.0000 0.1202735355
H   H69       1.0  0.42900  0.28500  0.85683  1.0000 0.1284359669
H   H70       1.0  0.06046  0.32465  0.82730  1.0000 0.1202735355
H   H71       1.0  0.13004  0.33803  0.77016  1.0000 0.1284359669
H   H72       1.0  0.02168  0.32366  0.53487  1.0000 0.1284359669
H   H73       1.0  0.05922  0.34485  0.59387  1.0000 0.1284359669
H   H74       1.0  0.67575  0.30993  0.61420  1.0000 0.1284359669
H   H75       1.0  0.63904  0.29485  0.55560  1.0000 0.1202735355
H   H76       1.0  0.71320  0.35565  0.66837  1.0000 0.1402491871
H   H77       1.0  0.73029  0.34485  0.73834  1.0000 0.1082044293
H   H78       1.0  0.85666  0.30702  0.75001  1.0000 0.1082044293
H   H79       1.0  0.98038  0.47328  0.85654  1.0000 0.1202735355
H   H80       1.0  0.73538  0.33012  0.85797  1.0000 0.1284359669
H   H81       1.0  0.73665  0.32741  0.79703  1.0000 0.1202735355
H   H82       1.0  0.04543  0.54626  0.82025  1.0000 0.1202735355
H   H83       1.0  0.14373  0.54313  0.78793  1.0000 0.1284359669
H   H84       1.0  0.15724  0.49573  0.81911  1.0000 0.1202735355
H   H85       1.0  0.36624  0.17074  0.41547  1.0000 0.3755619894
H   H86       1.0  0.51741  0.46808  0.48623  1.0000 0.3229769985
H   H87       1.0  0.93175  0.43759  0.93728  1.0000 0.3548189434
H   H88       1.0  0.40507  0.04588  0.04068  1.0000 0.1082044293
H   H89       1.0  0.69262  0.18783  0.08810  1.0000 0.1202735355
H   H90       1.0  0.67079  0.17911  0.02779  1.0000 0.1284359669
H   H91       1.0  0.23580  0.03680  0.08028  1.0000 0.1202735355
H   H92       1.0  0.24197  0.99487  0.11411  1.0000 0.1284359669
H   H93       1.0  0.33363  0.98044  0.08143  1.0000 0.1202735355
H   H94       1.0  0.59519  0.21533  0.14087  1.0000 0.1042342741
H   H95       1.0  0.72327  0.17374  0.14469  1.0000 0.1082044293
H   H96       1.0  0.79324  0.17948  0.21203  1.0000 0.1402491871
H   H97       1.0  0.49844  0.20239  0.29987  1.0000 0.1202735355
H   H98       1.0  0.57100  0.21500  0.35683  1.0000 0.1284359669
H   H99       1.0  0.93954  0.17535  0.32730  1.0000 0.1202735355
H   H100      1.0  0.86996  0.16197  0.27016  1.0000 0.1284359669
H   H101      1.0  0.97832  0.17634  0.03487  1.0000 0.1284359669
H   H102      1.0  0.94078  0.15515  0.09387  1.0000 0.1284359669
H   H103      1.0  0.32425  0.19007  0.11420  1.0000 0.1284359669
H   H104      1.0  0.36096  0.20515  0.05560  1.0000 0.1202735355
H   H105      1.0  0.28680  0.14435  0.16837  1.0000 0.1402491871
H   H106      1.0  0.26971  0.15515  0.23834  1.0000 0.1082044293
H   H107      1.0  0.14334  0.19298  0.25001  1.0000 0.1082044293
H   H108      1.0  0.01962  0.02672  0.35654  1.0000 0.1202735355
H   H109      1.0  0.26462  0.16988  0.35797  1.0000 0.1284359669
H   H110      1.0  0.26335  0.17259  0.29703  1.0000 0.1202735355
H   H111      1.0  0.95457  0.95374  0.32025  1.0000 0.1202735355
H   H112      1.0  0.85627  0.95687  0.28793  1.0000 0.1284359669
H   H113      1.0  0.84276  0.00427  0.31911  1.0000 0.1202735355
H   H114      1.0  0.63376  0.32926  0.91547  1.0000 0.3755619894
H   H115      1.0  0.48259  0.03192  0.98623  1.0000 0.3229769985
H   H116      1.0  0.06825  0.06241  0.43728  1.0000 0.3548189434
H   H117      1.0  0.40507  0.54588  0.45932  1.0000 0.1082044293
H   H118      1.0  0.69262  0.68783  0.41190  1.0000 0.1202735355
H   H119      1.0  0.67079  0.67911  0.47221  1.0000 0.1284359669
H   H120      1.0  0.23580  0.53680  0.41972  1.0000 0.1202735355
H   H121      1.0  0.24197  0.49487  0.38589  1.0000 0.1284359669
H   H122      1.0  0.33363  0.48044  0.41857  1.0000 0.1202735355
H   H123      1.0  0.59519  0.71533  0.35913  1.0000 0.1042342741
H   H124      1.0  0.72327  0.67374  0.35531  1.0000 0.1082044293
H   H125      1.0  0.79324  0.67948  0.28797  1.0000 0.1402491871
H   H126      1.0  0.49844  0.70239  0.20013  1.0000 0.1202735355
H   H127      1.0  0.57100  0.71500  0.14317  1.0000 0.1284359669
H   H128      1.0  0.93954  0.67535  0.17270  1.0000 0.1202735355
H   H129      1.0  0.86996  0.66197  0.22984  1.0000 0.1284359669
H   H130      1.0  0.97832  0.67634  0.46513  1.0000 0.1284359669
H   H131      1.0  0.94078  0.65515  0.40613  1.0000 0.1284359669
H   H132      1.0  0.32425  0.69007  0.38580  1.0000 0.1284359669
H   H133      1.0  0.36096  0.70515  0.44440  1.0000 0.1202735355
H   H134      1.0  0.28680  0.64435  0.33163  1.0000 0.1402491871
H   H135      1.0  0.26971  0.65515  0.26166  1.0000 0.1082044293
H   H136      1.0  0.14334  0.69298  0.24999  1.0000 0.1082044293
H   H137      1.0  0.01962  0.52672  0.14346  1.0000 0.1202735355
H   H138      1.0  0.26462  0.66988  0.14203  1.0000 0.1284359669
H   H139      1.0  0.26335  0.67259  0.20297  1.0000 0.1202735355
H   H140      1.0  0.95457  0.45374  0.17975  1.0000 0.1202735355
H   H141      1.0  0.85627  0.45687  0.21207  1.0000 0.1284359669
H   H142      1.0  0.84276  0.50427  0.18089  1.0000 0.1202735355
H   H143      1.0  0.63376  0.82926  0.58453  1.0000 0.3755619894
H   H144      1.0  0.48259  0.53192  0.51377  1.0000 0.3229769985
H   H145      1.0  0.06825  0.56241  0.06272  1.0000 0.3548189434
H   H146      1.0  0.59493  0.95412  0.95932  1.0000 0.1082044293
H   H147      1.0  0.30738  0.81217  0.91190  1.0000 0.1202735355
H   H148      1.0  0.32921  0.82089  0.97221  1.0000 0.1284359669
H   H149      1.0  0.76420  0.96320  0.91972  1.0000 0.1202735355
H   H150      1.0  0.75803  0.00513  0.88589  1.0000 0.1284359669
H   H151      1.0  0.66637  0.01956  0.91857  1.0000 0.1202735355
H   H152      1.0  0.40481  0.78467  0.85913  1.0000 0.1042342741
H   H153      1.0  0.27673  0.82626  0.85531  1.0000 0.1082044293
H   H154      1.0  0.20676  0.82052  0.78797  1.0000 0.1402491871
H   H155      1.0  0.50156  0.79761  0.70013  1.0000 0.1202735355
H   H156      1.0  0.42900  0.78500  0.64317  1.0000 0.1284359669
H   H157      1.0  0.06046  0.82465  0.67270  1.0000 0.1202735355
H   H158      1.0  0.13004  0.83803  0.72984  1.0000 0.1284359669
H   H159      1.0  0.02168  0.82366  0.96513  1.0000 0.1284359669
H   H160      1.0  0.05922  0.84485  0.90613  1.0000 0.1284359669
H   H161      1.0  0.67575  0.80993  0.88580  1.0000 0.1284359669
H   H162      1.0  0.63904  0.79485  0.94440  1.0000 0.1202735355
H   H163      1.0  0.71320  0.85565  0.83163  1.0000 0.1402491871
H   H164      1.0  0.73029  0.84485  0.76166  1.0000 0.1082044293
H   H165      1.0  0.85666  0.80702  0.74999  1.0000 0.1082044293
H   H166      1.0  0.98038  0.97328  0.64346  1.0000 0.1202735355
H   H167      1.0  0.73538  0.83012  0.64203  1.0000 0.1284359669
H   H168      1.0  0.73665  0.82741  0.70297  1.0000 0.1202735355
H   H169      1.0  0.04543  0.04626  0.67975  1.0000 0.1202735355
H   H170      1.0  0.14373  0.04313  0.71207  1.0000 0.1284359669
H   H171      1.0  0.15724  0.99573  0.68089  1.0000 0.1202735355
H   H172      1.0  0.36624  0.67074  0.08453  1.0000 0.3755619894
H   H173      1.0  0.51741  0.96808  0.01377  1.0000 0.3229769985
H   H174      1.0  0.93175  0.93759  0.56272  1.0000 0.3548189434
H   H175      1.0  0.09493  0.54588  0.95932  1.0000 0.1082044293
H   H176      1.0  0.80738  0.68783  0.91190  1.0000 0.1202735355
H   H177      1.0  0.82921  0.67911  0.97221  1.0000 0.1284359669
H   H178      1.0  0.26420  0.53680  0.91972  1.0000 0.1202735355
H   H179      1.0  0.25803  0.49487  0.88589  1.0000 0.1284359669
H   H180      1.0  0.16637  0.48044  0.91857  1.0000 0.1202735355
H   H181      1.0  0.90481  0.71533  0.85913  1.0000 0.1042342741
H   H182      1.0  0.77673  0.67374  0.85531  1.0000 0.1082044293
H   H183      1.0  0.70676  0.67948  0.78797  1.0000 0.1402491871
H   H184      1.0  0.00156  0.70239  0.70013  1.0000 0.1202735355
H   H185      1.0  0.92900  0.71500  0.64317  1.0000 0.1284359669
H   H186      1.0  0.56046  0.67535  0.67270  1.0000 0.1202735355
H   H187      1.0  0.63004  0.66197  0.72984  1.0000 0.1284359669
H   H188      1.0  0.52168  0.67634  0.96513  1.0000 0.1202735355
H   H189      1.0  0.55922  0.65515  0.90613  1.0000 0.1284359669
H   H190      1.0  0.17575  0.69007  0.88580  1.0000 0.1284359669
H   H191      1.0  0.13904  0.70515  0.94440  1.0000 0.1202735355
H   H192      1.0  0.21320  0.64435  0.83163  1.0000 0.1402491871
H   H193      1.0  0.23029  0.65515  0.76166  1.0000 0.1082044293
H   H194      1.0  0.35666  0.69298  0.74999  1.0000 0.1082044293
H   H195      1.0  0.48038  0.52672  0.64346  1.0000 0.1202735355
H   H196      1.0  0.23538  0.66988  0.64203  1.0000 0.1284359669
H   H197      1.0  0.23665  0.67259  0.70297  1.0000 0.1202735355
H   H198      1.0  0.54543  0.45374  0.67975  1.0000 0.1202735355
H   H199      1.0  0.64373  0.45687  0.71207  1.0000 0.1284359669
H   H200      1.0  0.65724  0.50427  0.68089  1.0000 0.1202735355
H   H201      1.0  0.86624  0.82926  0.08453  1.0000 0.3755619894
H   H202      1.0  0.01741  0.53192  0.01377  1.0000 0.3229769985
H   H203      1.0  0.43175  0.56241  0.56272  1.0000 0.3548189434
H   H204      1.0  0.90507  0.95412  0.45932  1.0000 0.1082044293
H   H205      1.0  0.19262  0.81217  0.41190  1.0000 0.1202735355
H   H206      1.0  0.17079  0.82089  0.47221  1.0000 0.1284359669
H   H207      1.0  0.73580  0.96320  0.41972  1.0000 0.1202735355
H   H208      1.0  0.74197  0.00513  0.38589  1.0000 0.1284359669
H   H209      1.0  0.83363  0.01956  0.41857  1.0000 0.1202735355
H   H210      1.0  0.09519  0.78467  0.35913  1.0000 0.1042342741
H   H211      1.0  0.22327  0.82626  0.35531  1.0000 0.1082044293
H   H212      1.0  0.29324  0.82052  0.28797  1.0000 0.1402491871
H   H213      1.0  0.99844  0.79761  0.20013  1.0000 0.1202735355
H   H214      1.0  0.07100  0.78500  0.14317  1.0000 0.1284359669
H   H215      1.0  0.43954  0.82465  0.17270  1.0000 0.1202735355
H   H216      1.0  0.36996  0.83803  0.22984  1.0000 0.1284359669
H   H217      1.0  0.47832  0.82366  0.46513  1.0000 0.1284359669
H   H218      1.0  0.44078  0.84485  0.40613  1.0000 0.1284359669
H   H219      1.0  0.82425  0.80993  0.38580  1.0000 0.1284359669
H   H220      1.0  0.86096  0.79485  0.44440  1.0000 0.1202735355
H   H221      1.0  0.78680  0.85565  0.33163  1.0000 0.1402491871
H   H222      1.0  0.76971  0.84485  0.26166  1.0000 0.1082044293
H   H223      1.0  0.64334  0.80702  0.24999  1.0000 0.1082044293
H   H224      1.0  0.51962  0.97328  0.14346  1.0000 0.1202735355
H   H225      1.0  0.76462  0.83012  0.14203  1.0000 0.1284359669
H   H226      1.0  0.76335  0.82741  0.20297  1.0000 0.1202735355
H   H227      1.0  0.45457  0.04626  0.17975  1.0000 0.1202735355
H   H228      1.0  0.35627  0.04313  0.21207  1.0000 0.1284359669
H   H229      1.0  0.34276  0.99573  0.18089  1.0000 0.1202735355
H   H230      1.0  0.13376  0.67074  0.58453  1.0000 0.3755619894
H   H231      1.0  0.98259  0.96808  0.51377  1.0000 0.3229769985
H   H232      1.0  0.56825  0.93759  0.06272  1.0000 0.3548189434
C   C1        1.0  0.01800  0.39180  0.99021  1.0000 0.589176
C   C2        1.0  0.03590  0.38760  0.02868  1.0000 -0.0475683295
C   C3        1.0  0.96200  0.42470  0.05039  1.0000 -0.2709036735
C   C4        1.0  0.97170  0.41870  0.08610  1.0000 0.1607386074
C   C5        1.0  0.05750  0.37650  0.10027  1.0000 0.1479061329
C   C6        1.0  0.13290  0.34050  0.07851  1.0000 -0.2306254163
C   C7        1.0  0.12050  0.34600  0.04268  1.0000 -0.0909661391
C   C8        1.0  0.79330  0.48730  0.09519  1.0000 -0.2474558777
C   C9        1.0  0.12910  0.32310  0.15043  1.0000 -0.0793367194
C   C10       1.0  0.10960  0.32510  0.18921  1.0000 0.1284359669
C   C11       1.0  0.20090  0.32210  0.21476  1.0000 -0.1418980815
C   C12       1.0  0.17810  0.31720  0.28002  1.0000 0.1479061329
C   C13       1.0  0.08830  0.30260  0.30545  1.0000 -0.1812795815
C   C14       1.0  0.13170  0.29550  0.33912  1.0000 -0.0703752306
C   C15       1.0  0.26310  0.30340  0.34759  1.0000 -0.0294684297
C   C16       1.0  0.34990  0.31900  0.32166  1.0000 -0.0909661391
C   C17       1.0  0.30960  0.32660  0.28776  1.0000 -0.1908253995
C   C18       1.0  0.31100  0.29260  0.38436  1.0000 0.6146963942
C   C19       1.0  0.69980  0.29280  0.00180  1.0000 0.6223095465
C   C20       1.0  0.67400  0.30760  0.03933  1.0000 -0.038341056
C   C21       1.0  0.54870  0.32190  0.05098  1.0000 -0.0793367194
C   C22       1.0  0.52550  0.33370  0.08598  1.0000 -0.1908253995
C   C23       1.0  0.62960  0.32880  0.10910  1.0000 0.1479061329
C   C24       1.0  0.75450  0.31360  0.09802  1.0000 -0.1812795815
C   C25       1.0  0.77510  0.30410  0.06344  1.0000 -0.0909661391
C   C26       1.0  0.69610  0.34740  0.17097  1.0000 -0.1498272107
C   C27       1.0  0.62670  0.34260  0.20117  1.0000 0.1202735355
C   C28       1.0  0.67290  0.34390  0.23780  1.0000 -0.0703752306
C   C29       1.0  0.63560  0.39620  0.29073  1.0000 0.1402491871
C   C30       1.0  0.56380  0.44090  0.30814  1.0000 0.1607386074
C   C31       1.0  0.56680  0.44300  0.34437  1.0000 -0.2422598567
C   C32       1.0  0.63980  0.40010  0.36258  1.0000 -0.0190871616
C   C33       1.0  0.71290  0.35810  0.34529  1.0000 -0.0793367194
C   C34       1.0  0.71160  0.35630  0.30903  1.0000 -0.2306254163
C   C35       1.0  0.40460  0.51920  0.30510  1.0000 -0.2474558777
C   C36       1.0  0.63040  0.39850  0.40154  1.0000 0.589176
C   C37       1.0  0.98200  0.10820  0.49021  1.0000 0.589176
C   C38       1.0  0.96410  0.11240  0.52868  1.0000 -0.0475683295
C   C39       1.0  0.03800  0.07530  0.55039  1.0000 -0.2709036735
C   C40       1.0  0.02830  0.08130  0.58610  1.0000 0.1607386074
C   C41       1.0  0.94250  0.12350  0.60027  1.0000 0.1479061329
C   C42       1.0  0.86710  0.15950  0.57851  1.0000 -0.2306254163
C   C43       1.0  0.87950  0.15400  0.54268  1.0000 -0.0909661391
C   C44       1.0  0.20670  0.01270  0.59519  1.0000 -0.2474558777
C   C45       1.0  0.87090  0.17690  0.65043  1.0000 -0.0793367194
C   C46       1.0  0.89040  0.17490  0.68921  1.0000 0.1284359669
C   C47       1.0  0.79910  0.17790  0.71476  1.0000 -0.1418980815
C   C48       1.0  0.82190  0.18280  0.78002  1.0000 0.1479061329
C   C49       1.0  0.91170  0.19740  0.80545  1.0000 -0.1812795815
C   C50       1.0  0.86830  0.20450  0.83912  1.0000 -0.0703752306
C   C51       1.0  0.73690  0.19660  0.84759  1.0000 -0.0294684297
C   C52       1.0  0.65010  0.18100  0.82166  1.0000 -0.0909661391
C   C53       1.0  0.69040  0.17340  0.78776  1.0000 -0.1908253995
C   C54       1.0  0.68900  0.20740  0.88436  1.0000 0.6146963942
C   C55       1.0  0.30020  0.20720  0.50180  1.0000 0.6223095465
C   C56       1.0  0.32600  0.19240  0.53933  1.0000 -0.038341056
C   C57       1.0  0.45130  0.17810  0.55098  1.0000 -0.0793367194
C   C58       1.0  0.47450  0.16630  0.58598  1.0000 -0.1908253995
C   C59       1.0  0.37040  0.17120  0.60910  1.0000 0.1479061329
C   C60       1.0  0.24550  0.18640  0.59802  1.0000 -0.1812795815
C   C61       1.0  0.22490  0.19590  0.56344  1.0000 -0.0909661391
C   C62       1.0  0.30390  0.15260  0.67097  1.0000 -0.1498272107
C   C63       1.0  0.37330  0.15740  0.70117  1.0000 0.1202735355
C   C64       1.0  0.32710  0.15610  0.73780  1.0000 -0.0703752306
C   C65       1.0  0.36440  0.10380  0.79073  1.0000 0.1402491871
C   C66       1.0  0.43620  0.05910  0.80814  1.0000 0.1607386074
C   C67       1.0  0.43320  0.05700  0.84437  1.0000 -0.2422598567
C   C68       1.0  0.36020  0.09990  0.86258  1.0000 -0.0190871616
C   C69       1.0  0.28710  0.14190  0.84529  1.0000 -0.0793367194
C   C70       1.0  0.28840  0.14370  0.80903  1.0000 -0.2306254163
C   C71       1.0  0.59540  0.98080  0.80510  1.0000 -0.2474558777
C   C72       1.0  0.36960  0.10150  0.90154  1.0000 0.5954394597
C   C73       1.0  0.48200  0.39180  0.49021  1.0000 0.589176
C   C74       1.0  0.46410  0.38760  0.52868  1.0000 -0.0475683295
C   C75       1.0  0.53800  0.42470  0.55039  1.0000 -0.2709036735
C   C76       1.0  0.52830  0.41870  0.58610  1.0000 0.1607386074
C   C77       1.0  0.44250  0.37650  0.60027  1.0000 0.1479061329
C   C78       1.0  0.36710  0.34050  0.57851  1.0000 -0.2306254163
C   C79       1.0  0.37950  0.34600  0.54268  1.0000 -0.0909661391
C   C80       1.0  0.70670  0.48730  0.59519  1.0000 -0.2474558777
C   C81       1.0  0.37090  0.32310  0.65043  1.0000 -0.0793367194
C   C82       1.0  0.39040  0.32510  0.68921  1.0000 0.1284359669
C   C83       1.0  0.29910  0.32210  0.71476  1.0000 -0.1418980815
C   C84       1.0  0.32190  0.31720  0.78002  1.0000 0.1479061329
C   C85       1.0  0.41170  0.30260  0.80545  1.0000 -0.1812795815
C   C86       1.0  0.36830  0.29550  0.83912  1.0000 -0.0703752306
C   C87       1.0  0.23690  0.30340  0.84759  1.0000 -0.0294684297
C   C88       1.0  0.15010  0.31900  0.82166  1.0000 -0.0909661391
C   C89       1.0  0.19040  0.32660  0.78776  1.0000 -0.1908253995
C   C90       1.0  0.18900  0.29260  0.88436  1.0000 0.6146963942
C   C91       1.0  0.80020  0.29280  0.50180  1.0000 0.6223095465
C   C92       1.0  0.82600  0.30760  0.53933  1.0000 -0.038341056
C   C93       1.0  0.95130  0.32190  0.55098  1.0000 -0.0793367194
C   C94       1.0  0.97450  0.33370  0.58598  1.0000 -0.1908253995
C   C95       1.0  0.87040  0.32880  0.60910  1.0000 0.1479061329
C   C96       1.0  0.74550  0.31360  0.59802  1.0000 -0.1812795815
C   C97       1.0  0.72490  0.30410  0.56344  1.0000 -0.0909661391
C   C98       1.0  0.80390  0.34740  0.67097  1.0000 -0.1498272107
C   C99       1.0  0.87330  0.34260  0.70117  1.0000 0.1202735355
C   C100      1.0  0.82710  0.34390  0.73780  1.0000 -0.0703752306
C   C101      1.0  0.86440  0.39620  0.79073  1.0000 0.1402491871
C   C102      1.0  0.93620  0.44090  0.80814  1.0000 0.1607386074
C   C103      1.0  0.93320  0.44300  0.84437  1.0000 -0.2422598567
C   C104      1.0  0.86020  0.40010  0.86258  1.0000 -0.0190871616
C   C105      1.0  0.78710  0.35810  0.84529  1.0000 -0.0793367194
C   C106      1.0  0.78840  0.35630  0.80903  1.0000 -0.2306254163
C   C107      1.0  0.09540  0.51920  0.80510  1.0000 -0.2474558777
C   C108      1.0  0.86960  0.39850  0.90154  1.0000 0.589176
C   C109      1.0  0.51800  0.10820  0.99021  1.0000 0.589176
C   C110      1.0  0.53590  0.11240  0.02868  1.0000 -0.0475683295
C   C111      1.0  0.46200  0.07530  0.05039  1.0000 -0.2709036735
C   C112      1.0  0.47170  0.08130  0.08610  1.0000 0.1607386074
C   C113      1.0  0.55750  0.12350  0.10027  1.0000 0.1479061329
C   C114      1.0  0.63290  0.15950  0.07851  1.0000 -0.2306254163
C   C115      1.0  0.62050  0.15400  0.04268  1.0000 -0.0909661391
C   C116      1.0  0.29330  0.01270  0.09519  1.0000 -0.2474558777
C   C117      1.0  0.62910  0.17690  0.15043  1.0000 -0.0793367194
C   C118      1.0  0.60960  0.17490  0.18921  1.0000 0.1284359669
C   C119      1.0  0.70090  0.17790  0.21476  1.0000 -0.1418980815
C   C120      1.0  0.67810  0.18280  0.28002  1.0000 0.1479061329
C   C121      1.0  0.58830  0.19740  0.30545  1.0000 -0.1812795815
C   C122      1.0  0.63170  0.20450  0.33912  1.0000 -0.0703752306
C   C123      1.0  0.76310  0.19660  0.34759  1.0000 -0.0294684297
C   C124      1.0  0.84990  0.18100  0.32166  1.0000 -0.0909661391
C   C125      1.0  0.80960  0.17340  0.28776  1.0000 -0.1908253995
C   C126      1.0  0.81100  0.20740  0.38436  1.0000 0.6146963942
C   C127      1.0  0.19980  0.20720  0.00180  1.0000 0.6223095465
C   C128      1.0  0.17400  0.19240  0.03933  1.0000 -0.038341056
C   C129      1.0  0.04870  0.17810  0.05098  1.0000 -0.0793367194
C   C130      1.0  0.02550  0.16630  0.08598  1.0000 -0.1908253995
C   C131      1.0  0.12960  0.17120  0.10910  1.0000 0.1479061329
C   C132      1.0  0.25450  0.18640  0.09802  1.0000 -0.1812795815
C   C133      1.0  0.27510  0.19590  0.06344  1.0000 -0.0909661391
C   C134      1.0  0.19610  0.15260  0.17097  1.0000 -0.1498272107
C   C135      1.0  0.12670  0.15740  0.20117  1.0000 0.1202735355
C   C136      1.0  0.17290  0.15610  0.23780  1.0000 -0.0703752306
C   C137      1.0  0.13560  0.10380  0.29073  1.0000 0.1402491871
C   C138      1.0  0.06380  0.05910  0.30814  1.0000 0.1607386074
C   C139      1.0  0.06680  0.05700  0.34437  1.0000 -0.2422598567
C   C140      1.0  0.13980  0.09990  0.36258  1.0000 -0.0190871616
C   C141      1.0  0.21290  0.14190  0.34529  1.0000 -0.0793367194
C   C142      1.0  0.21160  0.14370  0.30903  1.0000 -0.2306254163
C   C143      1.0  0.90460  0.98080  0.30510  1.0000 -0.2474558777
C   C144      1.0  0.13040  0.10150  0.40154  1.0000 0.5954394597
C   C145      1.0  0.51800  0.60820  0.50979  1.0000 0.589176
C   C146      1.0  0.53590  0.61240  0.47132  1.0000 -0.0475683295
C   C147      1.0  0.46200  0.57530  0.44961  1.0000 -0.2709036735
C   C148      1.0  0.47170  0.58130  0.41390  1.0000 0.1607386074
C   C149      1.0  0.55750  0.62350  0.39973  1.0000 0.1479061329
C   C150      1.0  0.63290  0.65950  0.42149  1.0000 -0.2306254163
C   C151      1.0  0.62050  0.65400  0.45732  1.0000 -0.0909661391
C   C152      1.0  0.29330  0.51270  0.40481  1.0000 -0.2474558777
C   C153      1.0  0.62910  0.67690  0.34957  1.0000 -0.0793367194
C   C154      1.0  0.60960  0.67490  0.31079  1.0000 0.1284359669
C   C155      1.0  0.70090  0.67790  0.28524  1.0000 -0.1418980815
C   C156      1.0  0.67810  0.68280  0.21998  1.0000 0.1479061329
C   C157      1.0  0.58830  0.69740  0.19455  1.0000 -0.1812795815
C   C158      1.0  0.63170  0.70450  0.16088  1.0000 -0.0703752306
C   C159      1.0  0.76310  0.69660  0.15241  1.0000 -0.0294684297
C   C160      1.0  0.84990  0.68100  0.17834  1.0000 -0.0909661391
C   C161      1.0  0.80960  0.67340  0.21224  1.0000 -0.1908253995
C   C162      1.0  0.81100  0.70740  0.11564  1.0000 0.6146963942
C   C163      1.0  0.19980  0.70720  0.49820  1.0000 0.6223095465
C   C164      1.0  0.17400  0.69240  0.46067  1.0000 -0.038341056
C   C165      1.0  0.04870  0.67810  0.44902  1.0000 -0.0793367194
C   C166      1.0  0.02550  0.66630  0.41402  1.0000 -0.1908253995
C   C167      1.0  0.12960  0.67120  0.39090  1.0000 0.1479061329
C   C168      1.0  0.25450  0.68640  0.40198  1.0000 -0.1812795815
C   C169      1.0  0.27510  0.69590  0.43656  1.0000 -0.0909661391
C   C170      1.0  0.19610  0.65260  0.32903  1.0000 -0.1498272107
C   C171      1.0  0.12670  0.65740  0.29883  1.0000 0.1202735355
C   C172      1.0  0.17290  0.65610  0.26220  1.0000 -0.0703752306
C   C173      1.0  0.13560  0.60380  0.20927  1.0000 0.1402491871
C   C174      1.0  0.06380  0.55910  0.19186  1.0000 0.1607386074
C   C175      1.0  0.06680  0.55700  0.15563  1.0000 -0.2422598567
C   C176      1.0  0.13980  0.59990  0.13742  1.0000 -0.0190871616
C   C177      1.0  0.21290  0.64190  0.15471  1.0000 -0.0793367194
C   C178      1.0  0.21160  0.64370  0.19097  1.0000 -0.2306254163
C   C179      1.0  0.90460  0.48080  0.19490  1.0000 -0.2474558777
C   C180      1.0  0.13040  0.60150  0.09846  1.0000 0.5954394597
C   C181      1.0  0.48200  0.89180  0.00979  1.0000 0.589176
C   C182      1.0  0.46410  0.88760  0.97132  1.0000 -0.0475683295
C   C183      1.0  0.53800  0.92470  0.94961  1.0000 -0.2709036735
C   C184      1.0  0.52830  0.91870  0.91390  1.0000 0.1607386074
C   C185      1.0  0.44250  0.87650  0.89973  1.0000 0.1479061329
C   C186      1.0  0.36710  0.84050  0.92149  1.0000 -0.2306254163
C   C187      1.0  0.37950  0.84600  0.95732  1.0000 -0.0909661391
C   C188      1.0  0.70670  0.98730  0.90481  1.0000 -0.2474558777
C   C189      1.0  0.37090  0.82310  0.84957  1.0000 -0.0793367194
C   C190      1.0  0.39040  0.82510  0.81079  1.0000 0.1284359669
C   C191      1.0  0.29910  0.82210  0.78524  1.0000 -0.1418980815
C   C192      1.0  0.32190  0.81720  0.71998  1.0000 0.1479061329
C   C193      1.0  0.41170  0.80260  0.69455  1.0000 -0.1812795815
C   C194      1.0  0.36830  0.79550  0.66088  1.0000 -0.0703752306
C   C195      1.0  0.23690  0.80340  0.65241  1.0000 -0.0294684297
C   C196      1.0  0.15010  0.81900  0.67834  1.0000 -0.0909661391
C   C197      1.0  0.19040  0.82660  0.71224  1.0000 -0.1908253995
C   C198      1.0  0.18900  0.79260  0.61564  1.0000 0.6146963942
C   C199      1.0  0.80020  0.79280  0.99820  1.0000 0.6223095465
C   C200      1.0  0.82600  0.80760  0.96067  1.0000 -0.038341056
C   C201      1.0  0.95130  0.82190  0.94902  1.0000 -0.0793367194
C   C202      1.0  0.97450  0.83370  0.91402  1.0000 -0.1908253995
C   C203      1.0  0.87040  0.82880  0.89090  1.0000 0.1479061329
C   C204      1.0  0.74550  0.81360  0.90198  1.0000 -0.1812795815
C   C205      1.0  0.72490  0.80410  0.93656  1.0000 -0.0909661391
C   C206      1.0  0.80390  0.84740  0.82903  1.0000 -0.1498272107
C   C207      1.0  0.87330  0.84260  0.79883  1.0000 0.1202735355
C   C208      1.0  0.82710  0.84390  0.76220  1.0000 -0.0703752306
C   C209      1.0  0.86440  0.89620  0.70927  1.0000 0.1402491871
C   C210      1.0  0.93620  0.94090  0.69186  1.0000 0.1607386074
C   C211      1.0  0.93320  0.94300  0.65563  1.0000 -0.2422598567
C   C212      1.0  0.86020  0.90010  0.63742  1.0000 -0.0190871616
C   C213      1.0  0.78710  0.85810  0.65471  1.0000 -0.0793367194
C   C214      1.0  0.78840  0.85630  0.69097  1.0000 -0.2306254163
C   C215      1.0  0.09540  0.01920  0.69490  1.0000 -0.2474558777
C   C216      1.0  0.86960  0.89850  0.59846  1.0000 0.589176
C   C217      1.0  0.98200  0.60820  0.00979  1.0000 0.589176
C   C218      1.0  0.96410  0.61240  0.97132  1.0000 -0.0475683295
C   C219      1.0  0.03800  0.57530  0.94961  1.0000 -0.2709036735
C   C220      1.0  0.02830  0.58130  0.91390  1.0000 0.1607386074
C   C221      1.0  0.94250  0.62350  0.89973  1.0000 0.1479061329
C   C222      1.0  0.86710  0.65950  0.92149  1.0000 -0.2306254163
C   C223      1.0  0.87950  0.65400  0.95732  1.0000 -0.0909661391
C   C224      1.0  0.20670  0.51270  0.90481  1.0000 -0.2474558777
C   C225      1.0  0.87090  0.67690  0.84957  1.0000 -0.0793367194
C   C226      1.0  0.89040  0.67490  0.81079  1.0000 0.1284359669
C   C227      1.0  0.79910  0.67790  0.78524  1.0000 -0.1418980815
C   C228      1.0  0.82190  0.68280  0.71998  1.0000 0.1479061329
C   C229      1.0  0.91170  0.69740  0.69455  1.0000 -0.1812795815
C   C230      1.0  0.86830  0.70450  0.66088  1.0000 -0.0703752306
C   C231      1.0  0.73690  0.69660  0.65241  1.0000 -0.0294684297
C   C232      1.0  0.65010  0.68100  0.67834  1.0000 -0.0909661391
C   C233      1.0  0.69040  0.67340  0.71224  1.0000 -0.1908253995
C   C234      1.0  0.68900  0.70740  0.61564  1.0000 0.6146963942
C   C235      1.0  0.30020  0.70720  0.99820  1.0000 0.6223095465
C   C236      1.0  0.32600  0.69240  0.96067  1.0000 -0.038341056
C   C237      1.0  0.45130  0.67810  0.94902  1.0000 -0.0793367194
C   C238      1.0  0.47450  0.66630  0.91402  1.0000 -0.1908253995
C   C239      1.0  0.37040  0.67120  0.89090  1.0000 0.1479061329
C   C240      1.0  0.24550  0.68640  0.90198  1.0000 -0.1812795815
C   C241      1.0  0.22490  0.69590  0.93656  1.0000 -0.0909661391
C   C242      1.0  0.30390  0.65260  0.82903  1.0000 -0.1498272107
C   C243      1.0  0.37330  0.65740  0.79883  1.0000 0.1202735355
C   C244      1.0  0.32710  0.65610  0.76220  1.0000 -0.0703752306
C   C245      1.0  0.36440  0.60380  0.70927  1.0000 0.1402491871
C   C246      1.0  0.43620  0.55910  0.69186  1.0000 0.1607386074
C   C247      1.0  0.43320  0.55700  0.65563  1.0000 -0.2422598567
C   C248      1.0  0.36020  0.59990  0.63742  1.0000 -0.0190871616
C   C249      1.0  0.28710  0.64190  0.65471  1.0000 -0.0793367194
C   C250      1.0  0.28840  0.64370  0.69097  1.0000 -0.2306254163
C   C251      1.0  0.59540  0.48080  0.69490  1.0000 -0.2474558777
C   C252      1.0  0.36960  0.60150  0.59846  1.0000 0.5954394597
C   C253      1.0  0.01800  0.89180  0.50979  1.0000 0.589176
C   C254      1.0  0.03590  0.88760  0.47132  1.0000 -0.0475683295
C   C255      1.0  0.96200  0.92470  0.44961  1.0000 -0.2709036735
C   C256      1.0  0.97170  0.91870  0.41390  1.0000 0.1607386074
C   C257      1.0  0.05750  0.87650  0.39973  1.0000 0.1479061329
C   C258      1.0  0.13290  0.84050  0.42149  1.0000 -0.2306254163
C   C259      1.0  0.12050  0.84600  0.45732  1.0000 -0.0909661391
C   C260      1.0  0.79330  0.98730  0.40481  1.0000 -0.2474558777
C   C261      1.0  0.12910  0.82310  0.34957  1.0000 -0.0793367194
C   C262      1.0  0.10960  0.82510  0.31079  1.0000 0.1284359669
C   C263      1.0  0.20090  0.82210  0.28524  1.0000 -0.1418980815
C   C264      1.0  0.17810  0.81720  0.21998  1.0000 0.1479061329
C   C265      1.0  0.08830  0.80260  0.19455  1.0000 -0.1812795815
C   C266      1.0  0.13170  0.79550  0.16088  1.0000 -0.0703752306
C   C267      1.0  0.26310  0.80340  0.15241  1.0000 -0.0294684297
C   C268      1.0  0.34990  0.81900  0.17834  1.0000 -0.0909661391
C   C269      1.0  0.30960  0.82660  0.21224  1.0000 -0.1908253995
C   C270      1.0  0.31100  0.79260  0.11564  1.0000 0.6146963942
C   C271      1.0  0.69980  0.79280  0.49820  1.0000 0.6223095465
C   C272      1.0  0.67400  0.80760  0.46067  1.0000 -0.038341056
C   C273      1.0  0.54870  0.82190  0.44902  1.0000 -0.0793367194
C   C274      1.0  0.52550  0.83370  0.41402  1.0000 -0.1908253995
C   C275      1.0  0.62960  0.82880  0.39090  1.0000 0.1479061329
C   C276      1.0  0.75450  0.81360  0.40198  1.0000 -0.1812795815
C   C277      1.0  0.77510  0.80410  0.43656  1.0000 -0.0909661391
C   C278      1.0  0.69610  0.84740  0.32903  1.0000 -0.1498272107
C   C279      1.0  0.62670  0.84260  0.29883  1.0000 0.1202735355
C   C280      1.0  0.67290  0.84390  0.26220  1.0000 -0.0703752306
C   C281      1.0  0.63560  0.89620  0.20927  1.0000 0.1402491871
C   C282      1.0  0.56380  0.94090  0.19186  1.0000 0.1607386074
C   C283      1.0  0.56680  0.94300  0.15563  1.0000 -0.2422598567
C   C284      1.0  0.63980  0.90010  0.13742  1.0000 -0.0190871616
C   C285      1.0  0.71290  0.85810  0.15471  1.0000 -0.0793367194
C   C286      1.0  0.71160  0.85630  0.19097  1.0000 -0.2306254163
C   C287      1.0  0.40460  0.01920  0.19490  1.0000 -0.2474558777
C   C288      1.0  0.63040  0.89850  0.09846  1.0000 0.589176
N   N1        1.0  0.00090  0.32500  0.23806  1.0000 -0.1300124334
N   N2        1.0  0.98970  0.32720  0.20406  1.0000 -0.2306254163
N   N3        1.0  0.13330  0.32190  0.24477  1.0000 0.1402491871
N   N4        1.0  0.60660  0.33770  0.14550  1.0000 0.1402491871
N   N5        1.0  0.48680  0.32630  0.15965  1.0000 -0.1300124334
N   N6        1.0  0.49910  0.32970  0.19327  1.0000 -0.2247581374
N   N7        1.0  0.99910  0.17500  0.73806  1.0000 -0.1300124334
N   N8        1.0  0.01030  0.17280  0.70406  1.0000 -0.2306254163
N   N9        1.0  0.86670  0.17810  0.74477  1.0000 0.1402491871
N   N10       1.0  0.39340  0.16230  0.64550  1.0000 0.1402491871
N   N11       1.0  0.51320  0.17370  0.65965  1.0000 -0.1300124334
N   N12       1.0  0.50090  0.17030  0.69327  1.0000 -0.2247581374
N   N13       1.0  0.49910  0.32500  0.73806  1.0000 -0.1300124334
N   N14       1.0  0.51030  0.32720  0.70406  1.0000 -0.2306254163
N   N15       1.0  0.36670  0.32190  0.74477  1.0000 0.1402491871
N   N16       1.0  0.89340  0.33770  0.64550  1.0000 0.1402491871
N   N17       1.0  0.01320  0.32630  0.65965  1.0000 -0.1300124334
N   N18       1.0  0.00090  0.32970  0.69327  1.0000 -0.2247581374
N   N19       1.0  0.50090  0.17500  0.23806  1.0000 -0.1300124334
N   N20       1.0  0.48970  0.17280  0.20406  1.0000 -0.2306254163
N   N21       1.0  0.63330  0.17810  0.24477  1.0000 0.1402491871
N   N22       1.0  0.10660  0.16230  0.14550  1.0000 0.1402491871
N   N23       1.0  0.98680  0.17370  0.15965  1.0000 -0.1300124334
N   N24       1.0  0.99910  0.17030  0.19327  1.0000 -0.2247581374
N   N25       1.0  0.50090  0.67500  0.26194  1.0000 -0.1418980815
N   N26       1.0  0.48970  0.67280  0.29594  1.0000 -0.2306254163
N   N27       1.0  0.63330  0.67810  0.25523  1.0000 0.1402491871
N   N28       1.0  0.10660  0.66230  0.35450  1.0000 0.1402491871
N   N29       1.0  0.98680  0.67370  0.34035  1.0000 -0.1300124334
N   N30       1.0  0.99910  0.67030  0.30673  1.0000 -0.2247581374
N   N31       1.0  0.49910  0.82500  0.76194  1.0000 -0.1300124334
N   N32       1.0  0.51030  0.82720  0.79594  1.0000 -0.2306254163
N   N33       1.0  0.36670  0.82190  0.75523  1.0000 0.1402491871
N   N34       1.0  0.89340  0.83770  0.85450  1.0000 0.1402491871
N   N35       1.0  0.01320  0.82630  0.84035  1.0000 -0.1300124334
N   N36       1.0  0.00090  0.82970  0.80673  1.0000 -0.2247581374
N   N37       1.0  0.99910  0.67500  0.76194  1.0000 -0.1300124334
N   N38       1.0  0.01030  0.67280  0.79594  1.0000 -0.2306254163
N   N39       1.0  0.86670  0.67810  0.75523  1.0000 0.1402491871
N   N40       1.0  0.39340  0.66230  0.85450  1.0000 0.1402491871
N   N41       1.0  0.51320  0.67370  0.84035  1.0000 -0.1300124334
N   N42       1.0  0.50090  0.67030  0.80673  1.0000 -0.2247581374
N   N43       1.0  0.00090  0.82500  0.26194  1.0000 -0.1300124334
N   N44       1.0  0.98970  0.82720  0.29594  1.0000 -0.2306254163
N   N45       1.0  0.13330  0.82190  0.25523  1.0000 0.1402491871
N   N46       1.0  0.60660  0.83770  0.35450  1.0000 0.1402491871
N   N47       1.0  0.48680  0.82630  0.34035  1.0000 -0.1300124334
N   N48       1.0  0.49910  0.82970  0.30673  1.0000 -0.2247581374
O   O1        1.0  0.06660  0.35140  0.97056  1.0000 -0.5903499615
O   O2        1.0  0.81650  0.29320  0.99218  1.0000 -0.6219141972
O   O3        1.0  0.23070  0.27220  0.40622  1.0000 -0.6383079481
O   O4        1.0  0.67610  0.35470  0.41822  1.0000 -0.5903499615
O   O5        1.0  0.60340  0.28040  0.98271  1.0000 -0.634413023
O   O6        1.0  0.05300  0.17130  0.91144  1.0000 -0.8980387938
O   O7        1.0  0.42940  0.30170  0.39083  1.0000 -0.5965100419
O   O8        1.0  0.95160  0.43550  0.97865  1.0000 -0.4019054924
O   O9        1.0  0.89490  0.44890  0.10967  1.0000 -0.1691413424
O   O10       1.0  0.05850  0.37340  0.13606  1.0000 -0.1691413424
O   O11       1.0  0.62210  0.39600  0.25493  1.0000 -0.1601830912
O   O12       1.0  0.57200  0.44300  0.41569  1.0000 -0.4397818525
O   O13       1.0  0.49220  0.47910  0.28757  1.0000 -0.1222791713
O   O14       1.0  0.93340  0.14860  0.47056  1.0000 -0.5903499615
O   O15       1.0  0.18350  0.20680  0.49218  1.0000 -0.6219141972
O   O16       1.0  0.76930  0.22780  0.90622  1.0000 -0.6383079481
O   O17       1.0  0.32390  0.14530  0.91822  1.0000 -0.5903499615
O   O18       1.0  0.39660  0.21960  0.48271  1.0000 -0.634413023
O   O19       1.0  0.94700  0.32870  0.41144  1.0000 -0.8980387938
O   O20       1.0  0.57060  0.19830  0.89083  1.0000 -0.5965100419
O   O21       1.0  0.04840  0.06450  0.47865  1.0000 -0.4019054924
O   O22       1.0  0.10510  0.05110  0.60967  1.0000 -0.1691413424
O   O23       1.0  0.94150  0.12660  0.63606  1.0000 -0.1691413424
O   O24       1.0  0.37790  0.10400  0.75493  1.0000 -0.1601830912
O   O25       1.0  0.42800  0.05700  0.91569  1.0000 -0.4397818525
O   O26       1.0  0.50780  0.02090  0.78757  1.0000 -0.1222791713
O   O27       1.0  0.43340  0.35140  0.47056  1.0000 -0.5903499615
O   O28       1.0  0.68350  0.29320  0.49218  1.0000 -0.6219141972
O   O29       1.0  0.26930  0.27220  0.90622  1.0000 -0.6383079481
O   O30       1.0  0.82390  0.35470  0.91822  1.0000 -0.5903499615
O   O31       1.0  0.89660  0.28040  0.48271  1.0000 -0.634413023
O   O32       1.0  0.44700  0.17130  0.41144  1.0000 -0.8980387938
O   O33       1.0  0.07060  0.30170  0.89083  1.0000 -0.5965100419
O   O34       1.0  0.54840  0.43550  0.47865  1.0000 -0.4019054924
O   O35       1.0  0.60510  0.44890  0.60967  1.0000 -0.1691413424
O   O36       1.0  0.44150  0.37340  0.63606  1.0000 -0.1691413424
O   O37       1.0  0.87790  0.39600  0.75493  1.0000 -0.1601830912
O   O38       1.0  0.92800  0.44300  0.91569  1.0000 -0.4397818525
O   O39       1.0  0.00780  0.47910  0.78757  1.0000 -0.1222791713
O   O40       1.0  0.56660  0.14860  0.97056  1.0000 -0.5903499615
O   O41       1.0  0.31650  0.20680  0.99218  1.0000 -0.6219141972
O   O42       1.0  0.73070  0.22780  0.40622  1.0000 -0.6383079481
O   O43       1.0  0.17610  0.14530  0.41822  1.0000 -0.5903499615
O   O44       1.0  0.10340  0.21960  0.98271  1.0000 -0.634413023
O   O45       1.0  0.55300  0.32870  0.91144  1.0000 -0.8980387938
O   O46       1.0  0.92940  0.19830  0.39083  1.0000 -0.5965100419
O   O47       1.0  0.45160  0.06450  0.97865  1.0000 -0.4019054924
O   O48       1.0  0.39490  0.05110  0.10967  1.0000 -0.1691413424
O   O49       1.0  0.55850  0.12660  0.13606  1.0000 -0.1691413424
O   O50       1.0  0.12210  0.10400  0.25493  1.0000 -0.1601830912
O   O51       1.0  0.07200  0.05700  0.41569  1.0000 -0.4397818525
O   O52       1.0  0.99220  0.02090  0.28757  1.0000 -0.1222791713
O   O53       1.0  0.56660  0.64860  0.52944  1.0000 -0.5903499615
O   O54       1.0  0.31650  0.70680  0.50782  1.0000 -0.6219141972
O   O55       1.0  0.73070  0.72780  0.09378  1.0000 -0.6383079481
O   O56       1.0  0.17610  0.64530  0.08178  1.0000 -0.5903499615
O   O57       1.0  0.10340  0.71960  0.51729  1.0000 -0.634413023
O   O58       1.0  0.55300  0.82870  0.58856  1.0000 -0.8980387938
O   O59       1.0  0.92940  0.69830  0.10917  1.0000 -0.5965100419
O   O60       1.0  0.45160  0.56450  0.52135  1.0000 -0.4019054924
O   O61       1.0  0.39490  0.55110  0.39033  1.0000 -0.1691413424
O   O62       1.0  0.55850  0.62660  0.36394  1.0000 -0.1691413424
O   O63       1.0  0.12210  0.60400  0.24507  1.0000 -0.1601830912
O   O64       1.0  0.07200  0.55700  0.08431  1.0000 -0.4397818525
O   O65       1.0  0.99220  0.52090  0.21243  1.0000 -0.1222791713
O   O66       1.0  0.43340  0.85140  0.02944  1.0000 -0.5903499615
O   O67       1.0  0.68350  0.79320  0.00782  1.0000 -0.6219141972
O   O68       1.0  0.26930  0.77220  0.59378  1.0000 -0.6383079481
O   O69       1.0  0.82390  0.85470  0.58178  1.0000 -0.5903499615
O   O70       1.0  0.89660  0.78040  0.01729  1.0000 -0.634413023
O   O71       1.0  0.44700  0.67130  0.08856  1.0000 -0.8980387938
O   O72       1.0  0.07060  0.80170  0.60917  1.0000 -0.5965100419
O   O73       1.0  0.54840  0.93550  0.02135  1.0000 -0.4019054924
O   O74       1.0  0.60510  0.94890  0.89033  1.0000 -0.1691413424
O   O75       1.0  0.44150  0.87340  0.86394  1.0000 -0.1691413424
O   O76       1.0  0.87790  0.89600  0.74507  1.0000 -0.1601830912
O   O77       1.0  0.92800  0.94300  0.58431  1.0000 -0.4397818525
O   O78       1.0  0.00780  0.97910  0.71243  1.0000 -0.1222791713
O   O79       1.0  0.93340  0.64860  0.02944  1.0000 -0.5903499615
O   O80       1.0  0.18350  0.70680  0.00782  1.0000 -0.6219141972
O   O81       1.0  0.76930  0.72780  0.59378  1.0000 -0.6383079481
O   O82       1.0  0.32390  0.64530  0.58178  1.0000 -0.5903499615
O   O83       1.0  0.39660  0.71960  0.01729  1.0000 -0.634413023
O   O84       1.0  0.94700  0.82870  0.08856  1.0000 -0.8980387938
O   O85       1.0  0.57060  0.69830  0.60917  1.0000 -0.5965100419
O   O86       1.0  0.04840  0.56450  0.02135  1.0000 -0.4019054924
O   O87       1.0  0.10510  0.55110  0.89033  1.0000 -0.1691413424
O   O88       1.0  0.94150  0.62660  0.86394  1.0000 -0.1691413424
O   O89       1.0  0.37790  0.60400  0.74507  1.0000 -0.1601830912
O   O90       1.0  0.42800  0.55700  0.58431  1.0000 -0.4397818525
O   O91       1.0  0.50780  0.52090  0.71243  1.0000 -0.1222791713
O   O92       1.0  0.06660  0.85140  0.52944  1.0000 -0.5903499615
O   O93       1.0  0.81650  0.79320  0.50782  1.0000 -0.6219141972
O   O94       1.0  0.23070  0.77220  0.09378  1.0000 -0.6383079481
O   O95       1.0  0.67610  0.85470  0.08178  1.0000 -0.5903499615
O   O96       1.0  0.60340  0.78040  0.51729  1.0000 -0.634413023
O   O97       1.0  0.05300  0.67130  0.58856  1.0000 -0.8980387938
O   O98       1.0  0.42940  0.80170  0.10917  1.0000 -0.5965100419
O   O99       1.0  0.95160  0.93550  0.52135  1.0000 -0.4019054924
O   O100      1.0  0.89490  0.94890  0.39033  1.0000 -0.1691413424
O   O101      1.0  0.05850  0.87340  0.36394  1.0000 -0.1691413424
O   O102      1.0  0.62210  0.89600  0.24507  1.0000 -0.1601830912
O   O103      1.0  0.57200  0.94300  0.08431  1.0000 -0.4397818525
O   O104      1.0  0.49220  0.97910  0.21243  1.0000 -0.1222791713
