# DDEC6 charges by PACMAN v1.1 (https://github.com/mtap-research/PACMAN-charge/)
data_2022[Ni][nan]3[ASR]5
_chemical_formula_sum              "Ni24 H300 C540 O136"
_cell_length_a       22.456
_cell_length_b       20.5922
_cell_length_c       33.979
_cell_angle_alpha    90
_cell_angle_beta     108.751
_cell_angle_gamma    90

_symmetry_space_group_name_H-M    "P 1"
_symmetry_Int_Tables_number       1

loop_
  _symmetry_equiv_pos_as_xyz
  'x, y, z'

loop_
  _atom_site_type_symbol
  _atom_site_label
  _atom_site_symmetry_multiplicity
  _atom_site_fract_x
  _atom_site_fract_y
  _atom_site_fract_z
  _atom_site_occupancy
  _atom_site_charge
Ni  Ni1       1.0  0.92222  0.86033  0.58074  1.0000 1.0910163023
Ni  Ni2       1.0  0.65451  0.13822  0.08268  1.0000 1.0624024965
Ni  Ni3       1.0  0.55879  0.99204  0.04464  1.0000 1.0493229576
Ni  Ni4       1.0  0.98277  0.00645  0.54394  1.0000 1.0295225181
Ni  Ni5       1.0  0.54520  0.09487  0.10490  1.0000 1.0777221717
Ni  Ni6       1.0  0.05435  0.90380  0.60446  1.0000 1.0493229576
Ni  Ni7       1.0  0.57778  0.36033  0.41926  1.0000 1.0910163023
Ni  Ni8       1.0  0.84549  0.63822  0.91732  1.0000 1.0624024965
Ni  Ni9       1.0  0.94121  0.49204  0.95536  1.0000 1.0493229576
Ni  Ni10      1.0  0.51723  0.50645  0.45606  1.0000 1.0295225181
Ni  Ni11      1.0  0.95480  0.59487  0.89510  1.0000 1.0777221717
Ni  Ni12      1.0  0.44565  0.40380  0.39554  1.0000 1.0493229576
Ni  Ni13      1.0  0.07778  0.13967  0.41926  1.0000 1.0910163023
Ni  Ni14      1.0  0.34549  0.86178  0.91732  1.0000 1.0624024965
Ni  Ni15      1.0  0.44121  0.00796  0.95536  1.0000 1.0493229576
Ni  Ni16      1.0  0.01723  0.99355  0.45606  1.0000 1.0295225181
Ni  Ni17      1.0  0.45480  0.90513  0.89510  1.0000 1.0777221717
Ni  Ni18      1.0  0.94565  0.09620  0.39554  1.0000 1.0493229576
Ni  Ni19      1.0  0.42222  0.63967  0.58074  1.0000 1.0910163023
Ni  Ni20      1.0  0.15451  0.36178  0.08268  1.0000 1.0624024965
Ni  Ni21      1.0  0.05879  0.50796  0.04464  1.0000 1.0493229576
Ni  Ni22      1.0  0.48277  0.49355  0.54394  1.0000 1.0295225181
Ni  Ni23      1.0  0.04520  0.40513  0.10490  1.0000 1.0777221717
Ni  Ni24      1.0  0.55435  0.59620  0.60446  1.0000 1.0493229576
H   H1        1.0  0.85359  0.05883  0.01790  1.0000 0.1205049595
H   H2        1.0  0.85188  0.86593  0.00206  1.0000 0.1205049595
H   H3        1.0  0.01406  0.95832  0.05625  1.0000 0.1205049595
H   H4        1.0  0.89812  0.12392  0.06740  1.0000 0.1205049595
H   H5        1.0  0.94337  0.22561  0.08419  1.0000 0.1302830873
H   H6        1.0  0.10430  0.15638  0.07177  1.0000 0.1205049595
H   H7        1.0  0.05842  0.05606  0.05418  1.0000 0.1205049595
H   H8        1.0  0.75651  0.87744  0.96212  1.0000 0.1302830873
H   H9        1.0  0.64926  0.87544  0.94380  1.0000 0.1517792423
H   H10       1.0  0.65277  0.04571  0.00296  1.0000 0.1302830873
H   H11       1.0  0.76084  0.04819  0.02035  1.0000 0.1205049595
H   H12       1.0  0.11040  0.77646  0.04413  1.0000 0.1302830873
H   H13       1.0  0.94753  0.68257  0.02472  1.0000 0.1302830873
H   H14       1.0  0.89708  0.77966  0.02202  1.0000 0.1205049595
H   H15       1.0  0.12173  0.84199  0.15539  1.0000 0.1302830873
H   H16       1.0  0.94153  0.79199  0.13897  1.0000 0.1205049595
H   H17       1.0  0.98920  0.97934  0.13745  1.0000 0.1205049595
H   H18       1.0  0.90639  0.99528  0.15803  1.0000 0.1302830873
H   H19       1.0  0.80732  0.03624  0.13742  1.0000 0.1378649554
H   H20       1.0  0.74332  0.87258  0.07400  1.0000 0.1378649554
H   H21       1.0  0.84409  0.83238  0.09453  1.0000 0.1205049595
H   H22       1.0  0.07802  0.03349  0.18430  1.0000 0.1205049595
H   H23       1.0  0.14201  0.12105  0.18079  1.0000 0.1302830873
H   H24       1.0  0.21824  0.01493  0.10972  1.0000 0.1205049595
H   H25       1.0  0.15434  0.92760  0.11262  1.0000 0.1205049595
H   H26       1.0  0.14218  0.74124  0.18631  1.0000 0.1205049595
H   H27       1.0  0.16901  0.63415  0.18018  1.0000 0.1302830873
H   H28       1.0  0.99238  0.59740  0.10868  1.0000 0.1302830873
H   H29       1.0  0.96543  0.70368  0.11439  1.0000 0.1205049595
H   H30       1.0  0.63937  0.69374  0.34907  1.0000 0.1205049595
H   H31       1.0  0.62404  0.88716  0.33600  1.0000 0.1378649554
H   H32       1.0  0.53801  0.76897  0.24002  1.0000 0.1205049595
H   H33       1.0  0.48426  0.67101  0.23845  1.0000 0.1205049595
H   H34       1.0  0.45782  0.56333  0.22192  1.0000 0.1139831262
H   H35       1.0  0.63121  0.50898  0.28780  1.0000 0.1302830873
H   H36       1.0  0.65698  0.61473  0.30531  1.0000 0.1205049595
H   H37       1.0  0.62598  0.95410  0.27893  1.0000 0.1302830873
H   H38       1.0  0.58965  0.03869  0.23221  1.0000 0.1302830873
H   H39       1.0  0.42919  0.94160  0.17968  1.0000 0.1378649554
H   H40       1.0  0.46532  0.85668  0.22585  1.0000 0.1205049595
H   H41       1.0  0.63278  0.73608  0.41776  1.0000 0.1302830873
H   H42       1.0  0.69615  0.74502  0.48601  1.0000 0.1302830873
H   H43       1.0  0.81078  0.86546  0.45056  1.0000 0.1205049595
H   H44       1.0  0.74298  0.86239  0.38291  1.0000 0.1302830873
H   H45       1.0  0.16502  0.55688  0.51925  1.0000 0.1205049595
H   H46       1.0  0.03874  0.45695  0.55525  1.0000 0.1205049595
H   H47       1.0  0.14828  0.36481  0.49998  1.0000 0.1205049595
H   H48       1.0  0.16491  0.62284  0.56649  1.0000 0.1302830873
H   H49       1.0  0.13445  0.72459  0.58336  1.0000 0.1378649554
H   H50       1.0  0.96350  0.65374  0.57192  1.0000 0.1205049595
H   H51       1.0  0.99399  0.55221  0.55565  1.0000 0.1139831262
H   H52       1.0  0.21183  0.37146  0.46737  1.0000 0.1302830873
H   H53       1.0  0.30167  0.37026  0.44884  1.0000 0.1517792423
H   H54       1.0  0.34523  0.54903  0.49633  1.0000 0.1302830873
H   H55       1.0  0.25426  0.55148  0.51356  1.0000 0.1205049595
H   H56       1.0  0.12453  0.27822  0.52278  1.0000 0.1205049595
H   H57       1.0  0.07659  0.18032  0.52601  1.0000 0.1378649554
H   H58       1.0  0.92924  0.27559  0.54039  1.0000 0.1139831262
H   H59       1.0  0.97636  0.37259  0.53735  1.0000 0.1139831262
H   H60       1.0  0.52434  0.16140  0.65314  1.0000 0.1205049595
H   H61       1.0  0.68928  0.20581  0.63756  1.0000 0.1205049595
H   H62       1.0  0.63884  0.01949  0.64032  1.0000 0.1205049595
H   H63       1.0  0.44827  0.07430  0.61282  1.0000 0.1205049595
H   H64       1.0  0.38156  0.98613  0.61024  1.0000 0.1205049595
H   H65       1.0  0.52648  0.88230  0.68148  1.0000 0.1302830873
H   H66       1.0  0.59329  0.96952  0.68751  1.0000 0.1205049595
H   H67       1.0  0.52569  0.25918  0.67714  1.0000 0.1139831262
H   H68       1.0  0.49851  0.36765  0.67407  1.0000 0.1205049595
H   H69       1.0  0.61378  0.40485  0.60855  1.0000 0.1302830873
H   H70       1.0  0.64543  0.29792  0.61407  1.0000 0.1139831262
H   H71       1.0  0.74101  0.16477  0.59186  1.0000 0.1205049595
H   H72       1.0  0.82208  0.12297  0.57180  1.0000 0.1302830873
H   H73       1.0  0.81448  0.95663  0.63088  1.0000 0.1302830873
H   H74       1.0  0.73602  0.99866  0.65311  1.0000 0.1302830873
H   H75       1.0  0.05958  0.87515  0.03907  1.0000 0.1205049595
H   H76       1.0  0.64641  0.55883  0.98210  1.0000 0.1205049595
H   H77       1.0  0.64812  0.36593  0.99794  1.0000 0.1205049595
H   H78       1.0  0.48594  0.45832  0.94375  1.0000 0.1205049595
H   H79       1.0  0.60188  0.62392  0.93260  1.0000 0.1302830873
H   H80       1.0  0.55663  0.72561  0.91581  1.0000 0.1302830873
H   H81       1.0  0.39570  0.65638  0.92823  1.0000 0.1205049595
H   H82       1.0  0.44158  0.55606  0.94582  1.0000 0.1205049595
H   H83       1.0  0.74349  0.37744  0.03788  1.0000 0.1302830873
H   H84       1.0  0.85074  0.37544  0.05620  1.0000 0.1517792423
H   H85       1.0  0.84723  0.54571  0.99704  1.0000 0.1302830873
H   H86       1.0  0.73916  0.54819  0.97965  1.0000 0.1205049595
H   H87       1.0  0.38960  0.27646  0.95587  1.0000 0.1302830873
H   H88       1.0  0.55247  0.18257  0.97528  1.0000 0.1302830873
H   H89       1.0  0.60292  0.27966  0.97798  1.0000 0.1205049595
H   H90       1.0  0.37827  0.34199  0.84461  1.0000 0.1302830873
H   H91       1.0  0.55847  0.29199  0.86103  1.0000 0.1205049595
H   H92       1.0  0.51080  0.47934  0.86255  1.0000 0.1205049595
H   H93       1.0  0.59361  0.49528  0.84197  1.0000 0.1302830873
H   H94       1.0  0.69268  0.53624  0.86258  1.0000 0.1378649554
H   H95       1.0  0.75668  0.37258  0.92600  1.0000 0.1378649554
H   H96       1.0  0.65591  0.33238  0.90547  1.0000 0.1205049595
H   H97       1.0  0.42198  0.53349  0.81570  1.0000 0.1205049595
H   H98       1.0  0.35799  0.62105  0.81921  1.0000 0.1302830873
H   H99       1.0  0.28176  0.51493  0.89028  1.0000 0.1205049595
H   H100      1.0  0.34566  0.42760  0.88738  1.0000 0.1205049595
H   H101      1.0  0.35782  0.24124  0.81369  1.0000 0.1205049595
H   H102      1.0  0.33099  0.13415  0.81982  1.0000 0.1302830873
H   H103      1.0  0.50762  0.09740  0.89132  1.0000 0.1302830873
H   H104      1.0  0.53457  0.20368  0.88561  1.0000 0.1205049595
H   H105      1.0  0.86063  0.19374  0.65093  1.0000 0.1205049595
H   H106      1.0  0.87596  0.38716  0.66400  1.0000 0.1378649554
H   H107      1.0  0.96199  0.26897  0.75998  1.0000 0.1205049595
H   H108      1.0  0.01574  0.17101  0.76155  1.0000 0.1205049595
H   H109      1.0  0.04218  0.06333  0.77808  1.0000 0.1139831262
H   H110      1.0  0.86879  0.00898  0.71220  1.0000 0.1205049595
H   H111      1.0  0.84302  0.11473  0.69469  1.0000 0.1205049595
H   H112      1.0  0.87402  0.45410  0.72107  1.0000 0.1302830873
H   H113      1.0  0.91035  0.53869  0.76779  1.0000 0.1302830873
H   H114      1.0  0.07081  0.44160  0.82032  1.0000 0.1378649554
H   H115      1.0  0.03468  0.35668  0.77415  1.0000 0.1205049595
H   H116      1.0  0.86722  0.23608  0.58224  1.0000 0.1302830873
H   H117      1.0  0.80385  0.24502  0.51399  1.0000 0.1302830873
H   H118      1.0  0.68922  0.36546  0.54944  1.0000 0.1205049595
H   H119      1.0  0.75702  0.36239  0.61709  1.0000 0.1302830873
H   H120      1.0  0.33498  0.05688  0.48075  1.0000 0.1205049595
H   H121      1.0  0.46126  0.95695  0.44475  1.0000 0.1205049595
H   H122      1.0  0.35172  0.86481  0.50002  1.0000 0.1205049595
H   H123      1.0  0.33509  0.12284  0.43351  1.0000 0.1302830873
H   H124      1.0  0.36555  0.22459  0.41664  1.0000 0.1378649554
H   H125      1.0  0.53650  0.15374  0.42808  1.0000 0.1205049595
H   H126      1.0  0.50601  0.05221  0.44435  1.0000 0.1139831262
H   H127      1.0  0.28817  0.87146  0.53263  1.0000 0.1302830873
H   H128      1.0  0.19833  0.87026  0.55116  1.0000 0.1517792423
H   H129      1.0  0.15477  0.04903  0.50367  1.0000 0.1302830873
H   H130      1.0  0.24574  0.05148  0.48644  1.0000 0.1205049595
H   H131      1.0  0.37547  0.77822  0.47722  1.0000 0.1205049595
H   H132      1.0  0.42341  0.68032  0.47399  1.0000 0.1378649554
H   H133      1.0  0.57076  0.77559  0.45961  1.0000 0.1139831262
H   H134      1.0  0.52364  0.87259  0.46265  1.0000 0.1139831262
H   H135      1.0  0.97566  0.66140  0.34686  1.0000 0.1205049595
H   H136      1.0  0.81072  0.70581  0.36244  1.0000 0.1205049595
H   H137      1.0  0.86116  0.51949  0.35968  1.0000 0.1205049595
H   H138      1.0  0.05173  0.57430  0.38718  1.0000 0.1205049595
H   H139      1.0  0.11844  0.48613  0.38976  1.0000 0.1205049595
H   H140      1.0  0.97352  0.38230  0.31852  1.0000 0.1302830873
H   H141      1.0  0.90671  0.46952  0.31249  1.0000 0.1205049595
H   H142      1.0  0.97431  0.75918  0.32286  1.0000 0.1139831262
H   H143      1.0  0.00149  0.86765  0.32593  1.0000 0.1205049595
H   H144      1.0  0.88622  0.90485  0.39145  1.0000 0.1302830873
H   H145      1.0  0.85457  0.79792  0.38593  1.0000 0.1139831262
H   H146      1.0  0.75899  0.66477  0.40814  1.0000 0.1205049595
H   H147      1.0  0.67792  0.62297  0.42820  1.0000 0.1378649554
H   H148      1.0  0.68552  0.45663  0.36912  1.0000 0.1302830873
H   H149      1.0  0.76398  0.49866  0.34689  1.0000 0.1302830873
H   H150      1.0  0.44042  0.37515  0.96093  1.0000 0.1205049595
H   H151      1.0  0.14641  0.94117  0.98210  1.0000 0.1205049595
H   H152      1.0  0.14812  0.13407  0.99794  1.0000 0.1205049595
H   H153      1.0  0.98594  0.04168  0.94375  1.0000 0.1205049595
H   H154      1.0  0.10188  0.87608  0.93260  1.0000 0.1302830873
H   H155      1.0  0.05663  0.77439  0.91581  1.0000 0.1302830873
H   H156      1.0  0.89570  0.84362  0.92823  1.0000 0.1205049595
H   H157      1.0  0.94158  0.94394  0.94582  1.0000 0.1205049595
H   H158      1.0  0.24349  0.12256  0.03788  1.0000 0.1302830873
H   H159      1.0  0.35074  0.12456  0.05620  1.0000 0.1517792423
H   H160      1.0  0.34723  0.95429  0.99704  1.0000 0.1302830873
H   H161      1.0  0.23916  0.95181  0.97965  1.0000 0.1302830873
H   H162      1.0  0.88960  0.22354  0.95587  1.0000 0.1205049595
H   H163      1.0  0.05247  0.31743  0.97528  1.0000 0.1302830873
H   H164      1.0  0.10292  0.22034  0.97798  1.0000 0.1205049595
H   H165      1.0  0.87827  0.15801  0.84461  1.0000 0.1302830873
H   H166      1.0  0.05847  0.20801  0.86103  1.0000 0.1205049595
H   H167      1.0  0.01080  0.02066  0.86255  1.0000 0.1205049595
H   H168      1.0  0.09361  0.00472  0.84197  1.0000 0.1302830873
H   H169      1.0  0.19268  0.96376  0.86258  1.0000 0.1378649554
H   H170      1.0  0.25668  0.12742  0.92600  1.0000 0.1378649554
H   H171      1.0  0.15591  0.16762  0.90547  1.0000 0.1205049595
H   H172      1.0  0.92198  0.96651  0.81570  1.0000 0.1205049595
H   H173      1.0  0.85799  0.87895  0.81921  1.0000 0.1302830873
H   H174      1.0  0.78176  0.98507  0.89028  1.0000 0.1205049595
H   H175      1.0  0.84566  0.07240  0.88738  1.0000 0.1205049595
H   H176      1.0  0.85782  0.25876  0.81369  1.0000 0.1205049595
H   H177      1.0  0.83099  0.36585  0.81982  1.0000 0.1302830873
H   H178      1.0  0.00762  0.40260  0.89132  1.0000 0.1302830873
H   H179      1.0  0.03457  0.29632  0.88561  1.0000 0.1205049595
H   H180      1.0  0.36063  0.30626  0.65093  1.0000 0.1205049595
H   H181      1.0  0.37596  0.11284  0.66400  1.0000 0.1378649554
H   H182      1.0  0.46199  0.23103  0.75998  1.0000 0.1205049595
H   H183      1.0  0.51574  0.32899  0.76155  1.0000 0.1205049595
H   H184      1.0  0.54218  0.43667  0.77808  1.0000 0.1139831262
H   H185      1.0  0.36879  0.49102  0.71220  1.0000 0.1302830873
H   H186      1.0  0.34302  0.38527  0.69469  1.0000 0.1205049595
H   H187      1.0  0.37402  0.04590  0.72107  1.0000 0.1302830873
H   H188      1.0  0.41035  0.96131  0.76779  1.0000 0.1302830873
H   H189      1.0  0.57081  0.05840  0.82032  1.0000 0.1378649554
H   H190      1.0  0.53468  0.14332  0.77415  1.0000 0.1205049595
H   H191      1.0  0.36722  0.26392  0.58224  1.0000 0.1302830873
H   H192      1.0  0.30385  0.25498  0.51399  1.0000 0.1302830873
H   H193      1.0  0.18922  0.13454  0.54944  1.0000 0.1205049595
H   H194      1.0  0.25702  0.13761  0.61709  1.0000 0.1302830873
H   H195      1.0  0.83498  0.44312  0.48075  1.0000 0.1205049595
H   H196      1.0  0.96126  0.54305  0.44475  1.0000 0.1205049595
H   H197      1.0  0.85172  0.63519  0.50002  1.0000 0.1205049595
H   H198      1.0  0.83509  0.37716  0.43351  1.0000 0.1302830873
H   H199      1.0  0.86555  0.27541  0.41664  1.0000 0.1378649554
H   H200      1.0  0.03650  0.34626  0.42808  1.0000 0.1205049595
H   H201      1.0  0.00601  0.44779  0.44435  1.0000 0.1139831262
H   H202      1.0  0.78817  0.62854  0.53263  1.0000 0.1302830873
H   H203      1.0  0.69833  0.62974  0.55116  1.0000 0.1517792423
H   H204      1.0  0.65477  0.45097  0.50367  1.0000 0.1302830873
H   H205      1.0  0.74574  0.44852  0.48644  1.0000 0.1205049595
H   H206      1.0  0.87547  0.72178  0.47722  1.0000 0.1205049595
H   H207      1.0  0.92341  0.81968  0.47399  1.0000 0.1378649554
H   H208      1.0  0.07076  0.72441  0.45961  1.0000 0.1139831262
H   H209      1.0  0.02364  0.62741  0.46265  1.0000 0.1139831262
H   H210      1.0  0.47566  0.83860  0.34686  1.0000 0.1205049595
H   H211      1.0  0.31072  0.79419  0.36244  1.0000 0.1205049595
H   H212      1.0  0.36116  0.98051  0.35968  1.0000 0.1205049595
H   H213      1.0  0.55173  0.92570  0.38718  1.0000 0.1205049595
H   H214      1.0  0.61844  0.01387  0.38976  1.0000 0.1205049595
H   H215      1.0  0.47352  0.11770  0.31852  1.0000 0.1302830873
H   H216      1.0  0.40671  0.03048  0.31249  1.0000 0.1205049595
H   H217      1.0  0.47431  0.74082  0.32286  1.0000 0.1139831262
H   H218      1.0  0.50149  0.63235  0.32593  1.0000 0.1205049595
H   H219      1.0  0.38622  0.59515  0.39145  1.0000 0.1302830873
H   H220      1.0  0.35457  0.70208  0.38593  1.0000 0.1139831262
H   H221      1.0  0.25899  0.83523  0.40814  1.0000 0.1205049595
H   H222      1.0  0.17792  0.87703  0.42820  1.0000 0.1378649554
H   H223      1.0  0.18552  0.04337  0.36912  1.0000 0.1302830873
H   H224      1.0  0.26398  0.00134  0.34689  1.0000 0.1302830873
H   H225      1.0  0.94042  0.12485  0.96093  1.0000 0.1205049595
H   H226      1.0  0.35359  0.44117  0.01790  1.0000 0.1205049595
H   H227      1.0  0.35188  0.63407  0.00206  1.0000 0.1205049595
H   H228      1.0  0.51406  0.54168  0.05625  1.0000 0.1205049595
H   H229      1.0  0.39812  0.37608  0.06740  1.0000 0.1205049595
H   H230      1.0  0.44337  0.27439  0.08419  1.0000 0.1302830873
H   H231      1.0  0.60430  0.34362  0.07177  1.0000 0.1205049595
H   H232      1.0  0.55842  0.44394  0.05418  1.0000 0.1205049595
H   H233      1.0  0.25651  0.62256  0.96212  1.0000 0.1302830873
H   H234      1.0  0.14926  0.62456  0.94380  1.0000 0.1517792423
H   H235      1.0  0.15277  0.45429  0.00296  1.0000 0.1302830873
H   H236      1.0  0.26084  0.45181  0.02035  1.0000 0.1205049595
H   H237      1.0  0.61040  0.72354  0.04413  1.0000 0.1302830873
H   H238      1.0  0.44753  0.81743  0.02472  1.0000 0.1302830873
H   H239      1.0  0.39708  0.72034  0.02202  1.0000 0.1205049595
H   H240      1.0  0.62173  0.65801  0.15539  1.0000 0.1302830873
H   H241      1.0  0.44153  0.70801  0.13897  1.0000 0.1205049595
H   H242      1.0  0.48920  0.52066  0.13745  1.0000 0.1205049595
H   H243      1.0  0.40639  0.50472  0.15803  1.0000 0.1302830873
H   H244      1.0  0.30732  0.46376  0.13742  1.0000 0.1378649554
H   H245      1.0  0.24332  0.62742  0.07400  1.0000 0.1378649554
H   H246      1.0  0.34409  0.66762  0.09453  1.0000 0.1205049595
H   H247      1.0  0.57802  0.46651  0.18430  1.0000 0.1205049595
H   H248      1.0  0.64201  0.37895  0.18079  1.0000 0.1302830873
H   H249      1.0  0.71824  0.48507  0.10972  1.0000 0.1205049595
H   H250      1.0  0.65434  0.57240  0.11262  1.0000 0.1205049595
H   H251      1.0  0.64218  0.75876  0.18631  1.0000 0.1205049595
H   H252      1.0  0.66901  0.86585  0.18018  1.0000 0.1302830873
H   H253      1.0  0.49238  0.90260  0.10868  1.0000 0.1302830873
H   H254      1.0  0.46543  0.79632  0.11439  1.0000 0.1205049595
H   H255      1.0  0.13937  0.80626  0.34907  1.0000 0.1205049595
H   H256      1.0  0.12404  0.61284  0.33600  1.0000 0.1378649554
H   H257      1.0  0.03801  0.73103  0.24002  1.0000 0.1205049595
H   H258      1.0  0.98426  0.82899  0.23845  1.0000 0.1205049595
H   H259      1.0  0.95782  0.93667  0.22192  1.0000 0.1139831262
H   H260      1.0  0.13121  0.99102  0.28780  1.0000 0.1302830873
H   H261      1.0  0.15698  0.88527  0.30531  1.0000 0.1205049595
H   H262      1.0  0.12598  0.54590  0.27893  1.0000 0.1302830873
H   H263      1.0  0.08965  0.46131  0.23221  1.0000 0.1302830873
H   H264      1.0  0.92919  0.55840  0.17968  1.0000 0.1378649554
H   H265      1.0  0.96532  0.64332  0.22585  1.0000 0.1205049595
H   H266      1.0  0.13278  0.76392  0.41776  1.0000 0.1302830873
H   H267      1.0  0.19615  0.75498  0.48601  1.0000 0.1302830873
H   H268      1.0  0.31078  0.63454  0.45056  1.0000 0.1205049595
H   H269      1.0  0.24298  0.63761  0.38291  1.0000 0.1302830873
H   H270      1.0  0.66502  0.94312  0.51925  1.0000 0.1205049595
H   H271      1.0  0.53874  0.04305  0.55525  1.0000 0.1205049595
H   H272      1.0  0.64828  0.13519  0.49998  1.0000 0.1205049595
H   H273      1.0  0.66491  0.87716  0.56649  1.0000 0.1302830873
H   H274      1.0  0.63445  0.77541  0.58336  1.0000 0.1378649554
H   H275      1.0  0.46350  0.84626  0.57192  1.0000 0.1205049595
H   H276      1.0  0.49399  0.94779  0.55565  1.0000 0.1139831262
H   H277      1.0  0.71183  0.12854  0.46737  1.0000 0.1302830873
H   H278      1.0  0.80167  0.12974  0.44884  1.0000 0.1517792423
H   H279      1.0  0.84523  0.95097  0.49633  1.0000 0.1302830873
H   H280      1.0  0.75426  0.94852  0.51356  1.0000 0.1205049595
H   H281      1.0  0.62453  0.22178  0.52278  1.0000 0.1205049595
H   H282      1.0  0.57659  0.31968  0.52601  1.0000 0.1378649554
H   H283      1.0  0.42924  0.22441  0.54039  1.0000 0.1139831262
H   H284      1.0  0.47636  0.12741  0.53735  1.0000 0.1139831262
H   H285      1.0  0.02434  0.33860  0.65314  1.0000 0.1205049595
H   H286      1.0  0.18928  0.29419  0.63756  1.0000 0.1205049595
H   H287      1.0  0.13884  0.48051  0.64032  1.0000 0.1205049595
H   H288      1.0  0.94827  0.42570  0.61282  1.0000 0.1205049595
H   H289      1.0  0.88156  0.51387  0.61024  1.0000 0.1205049595
H   H290      1.0  0.02648  0.61770  0.68148  1.0000 0.1302830873
H   H291      1.0  0.09329  0.53048  0.68751  1.0000 0.1205049595
H   H292      1.0  0.02569  0.24082  0.67714  1.0000 0.1139831262
H   H293      1.0  0.99851  0.13235  0.67407  1.0000 0.1205049595
H   H294      1.0  0.11378  0.09515  0.60855  1.0000 0.1302830873
H   H295      1.0  0.14543  0.20208  0.61407  1.0000 0.1139831262
H   H296      1.0  0.24101  0.33523  0.59186  1.0000 0.1205049595
H   H297      1.0  0.32208  0.37703  0.57180  1.0000 0.1378649554
H   H298      1.0  0.31448  0.54337  0.63088  1.0000 0.1302830873
H   H299      1.0  0.23602  0.50134  0.65311  1.0000 0.1302830873
H   H300      1.0  0.55958  0.62485  0.03907  1.0000 0.1205049595
C   C1        1.0  0.93890  0.01820  0.04040  1.0000 0.0894472265
C   C2        1.0  0.87450  0.01920  0.02180  1.0000 -0.1889922043
C   C3        1.0  0.83960  0.96180  0.00860  1.0000 0.0962564856
C   C4        1.0  0.87370  0.90420  0.01170  1.0000 -0.1687719985
C   C5        1.0  0.93870  0.90180  0.02860  1.0000 0.0894472265
C   C6        1.0  0.97070  0.95930  0.04370  1.0000 -0.1687719985
C   C7        1.0  0.97230  0.07980  0.05620  1.0000 0.0786447498
C   C8        1.0  0.93900  0.13100  0.06730  1.0000 -0.1490287102
C   C9        1.0  0.96640  0.19180  0.07810  1.0000 -0.0808250678
C   C10       1.0  0.02870  0.20190  0.07970  1.0000 -0.0309213402
C   C11       1.0  0.06270  0.15020  0.07050  1.0000 -0.0708588144
C   C12       1.0  0.03490  0.09010  0.05950  1.0000 -0.1409637303
C   C13       1.0  0.05630  0.26760  0.08770  1.0000 0.5827458499
C   C14       1.0  0.77050  0.96230  0.99370  1.0000 0.0686385402
C   C15       1.0  0.73570  0.91130  0.97030  1.0000 -0.1094787378
C   C16       1.0  0.67160  0.91010  0.95920  1.0000 -0.0615239476
C   C17       1.0  0.63940  0.96120  0.97100  1.0000 -0.0022551874
C   C18       1.0  0.67360  0.01220  0.99450  1.0000 -0.0897204651
C   C19       1.0  0.73840  0.01340  0.00530  1.0000 -0.1409637303
C   C20       1.0  0.56980  0.95930  0.95790  1.0000 0.6073665418
C   C21       1.0  0.97240  0.83820  0.03080  1.0000 0.0786447498
C   C22       1.0  0.06720  0.77740  0.03910  1.0000 -0.0897204651
C   C23       1.0  0.03450  0.72000  0.03430  1.0000 -0.0366347782
C   C24       1.0  0.97010  0.72120  0.02790  1.0000 -0.0708588144
C   C25       1.0  0.94010  0.77930  0.02620  1.0000 -0.1490287102
C   C26       1.0  0.06630  0.65640  0.04030  1.0000 0.5827458499
C   C27       1.0  0.06240  0.91900  0.14730  1.0000 0.0894472265
C   C28       1.0  0.08000  0.85340  0.15080  1.0000 -0.1889922043
C   C29       1.0  0.03460  0.80510  0.14750  1.0000 0.0894472265
C   C30       1.0  0.97170  0.82380  0.14080  1.0000 -0.1889922043
C   C31       1.0  0.95400  0.88840  0.13700  1.0000 0.0894472265
C   C32       1.0  0.00050  0.93570  0.14020  1.0000 -0.1687719985
C   C33       1.0  0.88770  0.91070  0.12680  1.0000 0.0686385402
C   C34       1.0  0.87390  0.97090  0.14020  1.0000 -0.1313904139
C   C35       1.0  0.81440  0.99540  0.12810  1.0000 -0.0897204651
C   C36       1.0  0.76450  0.96070  0.10240  1.0000 -0.0119016213
C   C37       1.0  0.77630  0.89790  0.09030  1.0000 -0.0808250678
C   C38       1.0  0.83690  0.87400  0.10260  1.0000 -0.1490287102
C   C39       1.0  0.70230  0.99480  0.08610  1.0000 0.600167314
C   C40       1.0  0.10880  0.97190  0.14770  1.0000 0.0686385402
C   C41       1.0  0.10560  0.03010  0.16910  1.0000 -0.1094787378
C   C42       1.0  0.14430  0.08250  0.16710  1.0000 -0.0808250678
C   C43       1.0  0.18600  0.07690  0.14490  1.0000 -0.0177831231
C   C44       1.0  0.18990  0.01860  0.12440  1.0000 -0.0808250678
C   C45       1.0  0.15140  0.96630  0.12600  1.0000 -0.1687719985
C   C46       1.0  0.22540  0.13340  0.14050  1.0000 0.5401530932
C   C47       1.0  0.05130  0.73530  0.14850  1.0000 0.0686385402
C   C48       1.0  0.11230  0.71280  0.16990  1.0000 -0.1409637303
C   C49       1.0  0.12820  0.64810  0.16650  1.0000 -0.0808250678
C   C50       1.0  0.08380  0.60400  0.14280  1.0000 -0.0177831231
C   C51       1.0  0.02300  0.62630  0.12390  1.0000 -0.0708588144
C   C52       1.0  0.00680  0.69050  0.12700  1.0000 -0.1409637303
C   C53       1.0  0.10070  0.53480  0.13830  1.0000 0.5706513621
C   C54       1.0  0.58730  0.72030  0.29120  1.0000 0.0894472265
C   C55       1.0  0.62420  0.72990  0.33240  1.0000 -0.17943194
C   C56       1.0  0.63920  0.79140  0.34960  1.0000 0.0894472265
C   C57       1.0  0.61500  0.84560  0.32490  1.0000 -0.1889922043
C   C58       1.0  0.57690  0.83750  0.28300  1.0000 0.0894472265
C   C59       1.0  0.56360  0.77460  0.26740  1.0000 -0.1889922043
C   C60       1.0  0.57210  0.65340  0.27500  1.0000 0.0686385402
C   C61       1.0  0.51360  0.63840  0.24930  1.0000 -0.1409637303
C   C62       1.0  0.49800  0.57380  0.23920  1.0000 -0.0708588144
C   C63       1.0  0.54150  0.52480  0.25470  1.0000 -0.0119016213
C   C64       1.0  0.60090  0.54120  0.27850  1.0000 -0.0808250678
C   C65       1.0  0.61630  0.60430  0.28880  1.0000 -0.1313904139
C   C66       1.0  0.52450  0.45460  0.24570  1.0000 0.5401530932
C   C67       1.0  0.55090  0.89450  0.25660  1.0000 0.0686385402
C   C68       1.0  0.58690  0.95070  0.25860  1.0000 -0.1313904139
C   C69       1.0  0.56520  0.00170  0.23060  1.0000 -0.0615239476
C   C70       1.0  0.50720  0.99640  0.20060  1.0000 -0.0309213402
C   C71       1.0  0.46920  0.94340  0.19920  1.0000 -0.0808250678
C   C72       1.0  0.49100  0.89250  0.22700  1.0000 -0.1490287102
C   C73       1.0  0.48900  0.04670  0.16780  1.0000 0.5706513621
C   C74       1.0  0.68050  0.79910  0.39310  1.0000 0.0686385402
C   C75       1.0  0.66770  0.76320  0.42450  1.0000 -0.1313904139
C   C76       1.0  0.70660  0.76750  0.46540  1.0000 -0.0897204651
C   C77       1.0  0.76140  0.80540  0.47610  1.0000 -0.0309213402
C   C78       1.0  0.77450  0.84030  0.44420  1.0000 -0.0897204651
C   C79       1.0  0.73410  0.83800  0.40340  1.0000 -0.1490287102
C   C80       1.0  0.80360  0.81040  0.51960  1.0000 0.5544822015
C   C81       1.0  0.14640  0.51740  0.52180  1.0000 -0.1889922043
C   C82       1.0  0.09870  0.51640  0.53970  1.0000 0.0894472265
C   C83       1.0  0.07020  0.45800  0.54290  1.0000 -0.17943194
C   C84       1.0  0.08800  0.40030  0.52780  1.0000 0.0894472265
C   C85       1.0  0.13630  0.40280  0.51020  1.0000 -0.1687719985
C   C86       1.0  0.16720  0.46100  0.50740  1.0000 0.0962564856
C   C87       1.0  0.08170  0.57810  0.55620  1.0000 0.0686385402
C   C88       1.0  0.12400  0.62910  0.56660  1.0000 -0.1313904139
C   C89       1.0  0.10590  0.69040  0.57750  1.0000 -0.0808250678
C   C90       1.0  0.04640  0.69970  0.57950  1.0000 -0.0119016213
C   C91       1.0  0.00390  0.64770  0.57070  1.0000 -0.0708588144
C   C92       1.0  0.02180  0.58700  0.56010  1.0000 -0.1313904139
C   C93       1.0  0.02460  0.76630  0.58650  1.0000 0.5899082884
C   C94       1.0  0.22200  0.46130  0.49260  1.0000 0.0686385402
C   C95       1.0  0.23820  0.40750  0.47310  1.0000 -0.1022236697
C   C96       1.0  0.29230  0.40650  0.46210  1.0000 -0.0708588144
C   C97       1.0  0.33230  0.45870  0.47070  1.0000 -0.0177831231
C   C98       1.0  0.31810  0.51360  0.49040  1.0000 -0.0897204651
C   C99       1.0  0.26380  0.51470  0.50080  1.0000 -0.1313904139
C   C100      1.0  0.38930  0.45820  0.45690  1.0000 0.6154115595
C   C101      1.0  0.05650  0.33780  0.53000  1.0000 0.0686385402
C   C102      1.0  0.08530  0.27800  0.52650  1.0000 -0.1236122712
C   C103      1.0  0.05670  0.21900  0.52860  1.0000 -0.0708588144
C   C104      1.0  0.99870  0.21780  0.53450  1.0000 -0.0309213402
C   C105      1.0  0.96880  0.27620  0.53720  1.0000 -0.0897204651
C   C106      1.0  0.99710  0.33430  0.53520  1.0000 -0.1409637303
C   C107      1.0  0.97200  0.15380  0.54020  1.0000 0.5827458499
C   C108      1.0  0.57430  0.08210  0.64740  1.0000 0.0786447498
C   C109      1.0  0.56180  0.14840  0.64940  1.0000 -0.17943194
C   C110      1.0  0.60510  0.19540  0.64600  1.0000 0.0894472265
C   C111      1.0  0.66020  0.17490  0.63960  1.0000 -0.1889922043
C   C112      1.0  0.67330  0.10890  0.63610  1.0000 0.0894472265
C   C113      1.0  0.63000  0.06350  0.64120  1.0000 -0.17943194
C   C114      1.0  0.52880  0.03050  0.64890  1.0000 0.0786447498
C   C115      1.0  0.46430  0.03590  0.62650  1.0000 -0.1597330361
C   C116      1.0  0.42420  0.98260  0.62490  1.0000 -0.0808250678
C   C117      1.0  0.44790  0.92490  0.64520  1.0000 -0.0366347782
C   C118      1.0  0.51080  0.92090  0.66790  1.0000 -0.0708588144
C   C119      1.0  0.55140  0.97280  0.67100  1.0000 -0.1490287102
C   C120      1.0  0.40570  0.86790  0.63860  1.0000 0.5401530932
C   C121      1.0  0.58870  0.26580  0.64670  1.0000 0.0786447498
C   C122      1.0  0.54440  0.28830  0.66380  1.0000 -0.1409637303
C   C123      1.0  0.52720  0.35330  0.66140  1.0000 -0.0808250678
C   C124      1.0  0.55250  0.39630  0.64030  1.0000 -0.0022551874
C   C125      1.0  0.59660  0.37540  0.62270  1.0000 -0.0808250678
C   C126      1.0  0.61530  0.31140  0.62580  1.0000 -0.1409637303
C   C127      1.0  0.53190  0.46670  0.63680  1.0000 0.5899082884
C   C128      1.0  0.72860  0.08570  0.62470  1.0000 0.0686385402
C   C129      1.0  0.75570  0.12300  0.60000  1.0000 -0.1409637303
C   C130      1.0  0.80430  0.09750  0.58770  1.0000 -0.0897204651
C   C131      1.0  0.82710  0.03540  0.59860  1.0000 -0.0119016213
C   C132      1.0  0.80010  0.99860  0.62320  1.0000 -0.0897204651
C   C133      1.0  0.75240  0.02370  0.63630  1.0000 -0.1490287102
C   C134      1.0  0.87570  0.00190  0.58370  1.0000 0.5899082884
C   C135      1.0  0.03700  0.83670  0.03670  1.0000 -0.1490287102
C   C136      1.0  0.56110  0.51820  0.95960  1.0000 0.0894472265
C   C137      1.0  0.62550  0.51920  0.97820  1.0000 -0.1889922043
C   C138      1.0  0.66040  0.46180  0.99140  1.0000 0.0962564856
C   C139      1.0  0.62630  0.40420  0.98830  1.0000 -0.1687719985
C   C140      1.0  0.56130  0.40180  0.97140  1.0000 0.0894472265
C   C141      1.0  0.52930  0.45930  0.95630  1.0000 -0.1687719985
C   C142      1.0  0.52770  0.57980  0.94380  1.0000 0.0786447498
C   C143      1.0  0.56100  0.63100  0.93270  1.0000 -0.1490287102
C   C144      1.0  0.53360  0.69180  0.92190  1.0000 -0.0808250678
C   C145      1.0  0.47130  0.70190  0.92030  1.0000 -0.0309213402
C   C146      1.0  0.43730  0.65020  0.92950  1.0000 -0.0708588144
C   C147      1.0  0.46510  0.59010  0.94050  1.0000 -0.1409637303
C   C148      1.0  0.44370  0.76760  0.91230  1.0000 0.5827458499
C   C149      1.0  0.72950  0.46230  0.00630  1.0000 0.0649129771
C   C150      1.0  0.76430  0.41130  0.02970  1.0000 -0.1094787378
C   C151      1.0  0.82840  0.41010  0.04080  1.0000 -0.0615239476
C   C152      1.0  0.86060  0.46120  0.02900  1.0000 -0.0022551874
C   C153      1.0  0.82640  0.51220  0.00550  1.0000 -0.0897204651
C   C154      1.0  0.76160  0.51340  0.99470  1.0000 -0.1409637303
C   C155      1.0  0.93020  0.45930  0.04210  1.0000 0.6073665418
C   C156      1.0  0.52760  0.33820  0.96920  1.0000 0.0786447498
C   C157      1.0  0.43280  0.27740  0.96090  1.0000 -0.0897204651
C   C158      1.0  0.46550  0.22000  0.96570  1.0000 -0.0366347782
C   C159      1.0  0.52990  0.22120  0.97210  1.0000 -0.0708588144
C   C160      1.0  0.55990  0.27930  0.97380  1.0000 -0.1490287102
C   C161      1.0  0.43370  0.15640  0.95970  1.0000 0.5827458499
C   C162      1.0  0.43760  0.41900  0.85270  1.0000 0.0894472265
C   C163      1.0  0.42000  0.35340  0.84920  1.0000 -0.1889922043
C   C164      1.0  0.46540  0.30510  0.85250  1.0000 0.0894472265
C   C165      1.0  0.52830  0.32380  0.85920  1.0000 -0.1889922043
C   C166      1.0  0.54600  0.38840  0.86300  1.0000 0.0894472265
C   C167      1.0  0.49950  0.43570  0.85980  1.0000 -0.1687719985
C   C168      1.0  0.61230  0.41070  0.87320  1.0000 0.0686385402
C   C169      1.0  0.62610  0.47090  0.85980  1.0000 -0.1313904139
C   C170      1.0  0.68560  0.49540  0.87190  1.0000 -0.0897204651
C   C171      1.0  0.73550  0.46070  0.89760  1.0000 -0.0119016213
C   C172      1.0  0.72370  0.39790  0.90970  1.0000 -0.0808250678
C   C173      1.0  0.66310  0.37400  0.89740  1.0000 -0.1490287102
C   C174      1.0  0.79770  0.49480  0.91390  1.0000 0.600167314
C   C175      1.0  0.39120  0.47190  0.85230  1.0000 0.0686385402
C   C176      1.0  0.39440  0.53010  0.83090  1.0000 -0.1094787378
C   C177      1.0  0.35570  0.58250  0.83290  1.0000 -0.0808250678
C   C178      1.0  0.31400  0.57690  0.85510  1.0000 -0.0177831231
C   C179      1.0  0.31010  0.51860  0.87560  1.0000 -0.0808250678
C   C180      1.0  0.34860  0.46630  0.87400  1.0000 -0.1687719985
C   C181      1.0  0.27460  0.63340  0.85950  1.0000 0.5401530932
C   C182      1.0  0.44870  0.23530  0.85150  1.0000 0.0686385402
C   C183      1.0  0.38770  0.21280  0.83010  1.0000 -0.1409637303
C   C184      1.0  0.37180  0.14810  0.83350  1.0000 -0.0808250678
C   C185      1.0  0.41620  0.10400  0.85720  1.0000 -0.0177831231
C   C186      1.0  0.47700  0.12630  0.87610  1.0000 -0.0708588144
C   C187      1.0  0.49320  0.19050  0.87300  1.0000 -0.1409637303
C   C188      1.0  0.39930  0.03480  0.86170  1.0000 0.5706513621
C   C189      1.0  0.91270  0.22030  0.70880  1.0000 0.0894472265
C   C190      1.0  0.87580  0.22990  0.66760  1.0000 -0.17943194
C   C191      1.0  0.86080  0.29140  0.65040  1.0000 0.0894472265
C   C192      1.0  0.88500  0.34560  0.67510  1.0000 -0.1889922043
C   C193      1.0  0.92310  0.33750  0.71700  1.0000 0.0894472265
C   C194      1.0  0.93640  0.27460  0.73260  1.0000 -0.1889922043
C   C195      1.0  0.92790  0.15340  0.72500  1.0000 0.0686385402
C   C196      1.0  0.98640  0.13840  0.75070  1.0000 -0.1409637303
C   C197      1.0  0.00200  0.07380  0.76080  1.0000 -0.0708588144
C   C198      1.0  0.95850  0.02480  0.74530  1.0000 -0.0119016213
C   C199      1.0  0.89910  0.04120  0.72150  1.0000 -0.0808250678
C   C200      1.0  0.88370  0.10430  0.71120  1.0000 -0.1313904139
C   C201      1.0  0.97550  0.95460  0.75430  1.0000 0.5401530932
C   C202      1.0  0.94910  0.39450  0.74340  1.0000 0.0686385402
C   C203      1.0  0.91310  0.45070  0.74140  1.0000 -0.1313904139
C   C204      1.0  0.93480  0.50170  0.76940  1.0000 -0.0615239476
C   C205      1.0  0.99280  0.49640  0.79940  1.0000 -0.0309213402
C   C206      1.0  0.03080  0.44340  0.80080  1.0000 -0.0808250678
C   C207      1.0  0.00900  0.39250  0.77300  1.0000 -0.1490287102
C   C208      1.0  0.01100  0.54670  0.83220  1.0000 0.5706513621
C   C209      1.0  0.81950  0.29910  0.60690  1.0000 0.0686385402
C   C210      1.0  0.83230  0.26320  0.57550  1.0000 -0.1313904139
C   C211      1.0  0.79340  0.26750  0.53460  1.0000 -0.0897204651
C   C212      1.0  0.73860  0.30540  0.52390  1.0000 -0.0309213402
C   C213      1.0  0.72550  0.34030  0.55580  1.0000 -0.0897204651
C   C214      1.0  0.76590  0.33800  0.59660  1.0000 -0.1490287102
C   C215      1.0  0.69640  0.31040  0.48040  1.0000 0.5544822015
C   C216      1.0  0.35360  0.01740  0.47820  1.0000 -0.1889922043
C   C217      1.0  0.40130  0.01640  0.46030  1.0000 0.0894472265
C   C218      1.0  0.42980  0.95800  0.45710  1.0000 -0.17943194
C   C219      1.0  0.41200  0.90030  0.47220  1.0000 0.0894472265
C   C220      1.0  0.36370  0.90280  0.48980  1.0000 -0.1687719985
C   C221      1.0  0.33280  0.96100  0.49260  1.0000 0.0962564856
C   C222      1.0  0.41830  0.07810  0.44380  1.0000 0.0686385402
C   C223      1.0  0.37600  0.12910  0.43340  1.0000 -0.1313904139
C   C224      1.0  0.39410  0.19040  0.42250  1.0000 -0.0808250678
C   C225      1.0  0.45360  0.19970  0.42050  1.0000 -0.0119016213
C   C226      1.0  0.49610  0.14770  0.42930  1.0000 -0.0708588144
C   C227      1.0  0.47820  0.08700  0.43990  1.0000 -0.1313904139
C   C228      1.0  0.47540  0.26630  0.41350  1.0000 0.5899082884
C   C229      1.0  0.27800  0.96130  0.50740  1.0000 0.0686385402
C   C230      1.0  0.26180  0.90750  0.52690  1.0000 -0.1022236697
C   C231      1.0  0.20770  0.90650  0.53790  1.0000 -0.0708588144
C   C232      1.0  0.16770  0.95870  0.52930  1.0000 -0.0177831231
C   C233      1.0  0.18190  0.01360  0.50960  1.0000 -0.0897204651
C   C234      1.0  0.23620  0.01470  0.49920  1.0000 -0.1313904139
C   C235      1.0  0.11070  0.95820  0.54310  1.0000 0.6154115595
C   C236      1.0  0.44350  0.83780  0.47000  1.0000 0.0686385402
C   C237      1.0  0.41470  0.77800  0.47350  1.0000 -0.1236122712
C   C238      1.0  0.44330  0.71900  0.47140  1.0000 -0.0708588144
C   C239      1.0  0.50130  0.71780  0.46550  1.0000 -0.0309213402
C   C240      1.0  0.53120  0.77620  0.46280  1.0000 -0.0897204651
C   C241      1.0  0.50290  0.83430  0.46480  1.0000 -0.1409637303
C   C242      1.0  0.52800  0.65380  0.45980  1.0000 0.5827458499
C   C243      1.0  0.92570  0.58210  0.35260  1.0000 0.0786447498
C   C244      1.0  0.93820  0.64840  0.35060  1.0000 -0.17943194
C   C245      1.0  0.89490  0.69540  0.35400  1.0000 0.0894472265
C   C246      1.0  0.83980  0.67490  0.36040  1.0000 -0.1889922043
C   C247      1.0  0.82670  0.60890  0.36390  1.0000 0.0894472265
C   C248      1.0  0.87000  0.56350  0.35880  1.0000 -0.17943194
C   C249      1.0  0.97120  0.53050  0.35110  1.0000 0.0786447498
C   C250      1.0  0.03570  0.53590  0.37350  1.0000 -0.1597330361
C   C251      1.0  0.07580  0.48260  0.37510  1.0000 -0.0808250678
C   C252      1.0  0.05210  0.42490  0.35480  1.0000 -0.0366347782
C   C253      1.0  0.98920  0.42090  0.33210  1.0000 -0.0708588144
C   C254      1.0  0.94860  0.47280  0.32900  1.0000 -0.1490287102
C   C255      1.0  0.09430  0.36790  0.36140  1.0000 0.5401530932
C   C256      1.0  0.91130  0.76580  0.35330  1.0000 0.0786447498
C   C257      1.0  0.95560  0.78830  0.33620  1.0000 -0.1409637303
C   C258      1.0  0.97280  0.85330  0.33860  1.0000 -0.0808250678
C   C259      1.0  0.94750  0.89630  0.35970  1.0000 -0.0022551874
C   C260      1.0  0.90340  0.87540  0.37730  1.0000 -0.0808250678
C   C261      1.0  0.88470  0.81140  0.37420  1.0000 -0.1409637303
C   C262      1.0  0.96810  0.96670  0.36320  1.0000 0.5827458499
C   C263      1.0  0.77140  0.58570  0.37530  1.0000 0.0686385402
C   C264      1.0  0.74430  0.62300  0.40000  1.0000 -0.1409637303
C   C265      1.0  0.69570  0.59750  0.41230  1.0000 -0.0897204651
C   C266      1.0  0.67290  0.53540  0.40140  1.0000 -0.0119016213
C   C267      1.0  0.69990  0.49860  0.37680  1.0000 -0.0897204651
C   C268      1.0  0.74760  0.52370  0.36370  1.0000 -0.1490287102
C   C269      1.0  0.62430  0.50190  0.41630  1.0000 0.5899082884
C   C270      1.0  0.46300  0.33670  0.96330  1.0000 -0.1490287102
C   C271      1.0  0.06110  0.98180  0.95960  1.0000 0.0894472265
C   C272      1.0  0.12550  0.98080  0.97820  1.0000 -0.1889922043
C   C273      1.0  0.16040  0.03820  0.99140  1.0000 0.0962564856
C   C274      1.0  0.12630  0.09580  0.98830  1.0000 -0.1687719985
C   C275      1.0  0.06130  0.09820  0.97140  1.0000 0.0894472265
C   C276      1.0  0.02930  0.04070  0.95630  1.0000 -0.1687719985
C   C277      1.0  0.02770  0.92020  0.94380  1.0000 0.0786447498
C   C278      1.0  0.06100  0.86900  0.93270  1.0000 -0.1490287102
C   C279      1.0  0.03360  0.80820  0.92190  1.0000 -0.0808250678
C   C280      1.0  0.97130  0.79810  0.92030  1.0000 -0.0309213402
C   C281      1.0  0.93730  0.84980  0.92950  1.0000 -0.0708588144
C   C282      1.0  0.96510  0.90990  0.94050  1.0000 -0.1409637303
C   C283      1.0  0.94370  0.73240  0.91230  1.0000 0.5827458499
C   C284      1.0  0.22950  0.03770  0.00630  1.0000 0.0686385402
C   C285      1.0  0.26430  0.08870  0.02970  1.0000 -0.1094787378
C   C286      1.0  0.32840  0.08990  0.04080  1.0000 -0.0615239476
C   C287      1.0  0.36060  0.03880  0.02900  1.0000 -0.0022551874
C   C288      1.0  0.32640  0.98780  0.00550  1.0000 -0.0897204651
C   C289      1.0  0.26160  0.98660  0.99470  1.0000 -0.1409637303
C   C290      1.0  0.43020  0.04070  0.04210  1.0000 0.6073665418
C   C291      1.0  0.02760  0.16180  0.96920  1.0000 0.0786447498
C   C292      1.0  0.93280  0.22260  0.96090  1.0000 -0.0897204651
C   C293      1.0  0.96550  0.28000  0.96570  1.0000 -0.0366347782
C   C294      1.0  0.02990  0.27880  0.97210  1.0000 -0.0708588144
C   C295      1.0  0.05990  0.22070  0.97380  1.0000 -0.1490287102
C   C296      1.0  0.93370  0.34360  0.95970  1.0000 0.5827458499
C   C297      1.0  0.93760  0.08100  0.85270  1.0000 0.0894472265
C   C298      1.0  0.92000  0.14660  0.84920  1.0000 -0.1889922043
C   C299      1.0  0.96540  0.19490  0.85250  1.0000 0.0894472265
C   C300      1.0  0.02830  0.17620  0.85920  1.0000 -0.1889922043
C   C301      1.0  0.04600  0.11160  0.86300  1.0000 0.0894472265
C   C302      1.0  0.99950  0.06430  0.85980  1.0000 -0.1687719985
C   C303      1.0  0.11230  0.08930  0.87320  1.0000 0.0686385402
C   C304      1.0  0.12610  0.02910  0.85980  1.0000 -0.1313904139
C   C305      1.0  0.18560  0.00460  0.87190  1.0000 -0.0897204651
C   C306      1.0  0.23550  0.03930  0.89760  1.0000 -0.0119016213
C   C307      1.0  0.22370  0.10210  0.90970  1.0000 -0.0808250678
C   C308      1.0  0.16310  0.12600  0.89740  1.0000 -0.1490287102
C   C309      1.0  0.29770  0.00520  0.91390  1.0000 0.600167314
C   C310      1.0  0.89120  0.02810  0.85230  1.0000 0.0686385402
C   C311      1.0  0.89440  0.96990  0.83090  1.0000 -0.1094787378
C   C312      1.0  0.85570  0.91750  0.83290  1.0000 -0.0808250678
C   C313      1.0  0.81400  0.92310  0.85510  1.0000 -0.0177831231
C   C314      1.0  0.81010  0.98140  0.87560  1.0000 -0.0808250678
C   C315      1.0  0.84860  0.03370  0.87400  1.0000 -0.1687719985
C   C316      1.0  0.77460  0.86660  0.85950  1.0000 0.5401530932
C   C317      1.0  0.94870  0.26470  0.85150  1.0000 0.0686385402
C   C318      1.0  0.88770  0.28720  0.83010  1.0000 -0.1409637303
C   C319      1.0  0.87180  0.35190  0.83350  1.0000 -0.0808250678
C   C320      1.0  0.91620  0.39600  0.85720  1.0000 -0.0177831231
C   C321      1.0  0.97700  0.37370  0.87610  1.0000 -0.0708588144
C   C322      1.0  0.99320  0.30950  0.87300  1.0000 -0.1409637303
C   C323      1.0  0.89930  0.46520  0.86170  1.0000 0.5706513621
C   C324      1.0  0.41270  0.27970  0.70880  1.0000 0.0894472265
C   C325      1.0  0.37580  0.27010  0.66760  1.0000 -0.17943194
C   C326      1.0  0.36080  0.20860  0.65040  1.0000 0.0894472265
C   C327      1.0  0.38500  0.15440  0.67510  1.0000 -0.1889922043
C   C328      1.0  0.42310  0.16250  0.71700  1.0000 0.0894472265
C   C329      1.0  0.43640  0.22540  0.73260  1.0000 -0.1889922043
C   C330      1.0  0.42790  0.34660  0.72500  1.0000 0.0686385402
C   C331      1.0  0.48640  0.36160  0.75070  1.0000 -0.1409637303
C   C332      1.0  0.50200  0.42620  0.76080  1.0000 -0.0708588144
C   C333      1.0  0.45850  0.47520  0.74530  1.0000 -0.0119016213
C   C334      1.0  0.39910  0.45880  0.72150  1.0000 -0.0808250678
C   C335      1.0  0.38370  0.39570  0.71120  1.0000 -0.1313904139
C   C336      1.0  0.47550  0.54540  0.75430  1.0000 0.5401530932
C   C337      1.0  0.44910  0.10550  0.74340  1.0000 0.0686385402
C   C338      1.0  0.41310  0.04930  0.74140  1.0000 -0.1313904139
C   C339      1.0  0.43480  0.99830  0.76940  1.0000 -0.0615239476
C   C340      1.0  0.49280  0.00360  0.79940  1.0000 -0.0309213402
C   C341      1.0  0.53080  0.05660  0.80080  1.0000 -0.0808250678
C   C342      1.0  0.50900  0.10750  0.77300  1.0000 -0.1490287102
C   C343      1.0  0.51100  0.95330  0.83220  1.0000 0.5706513621
C   C344      1.0  0.31950  0.20090  0.60690  1.0000 0.0686385402
C   C345      1.0  0.33230  0.23680  0.57550  1.0000 -0.1313904139
C   C346      1.0  0.29340  0.23250  0.53460  1.0000 -0.0897204651
C   C347      1.0  0.23860  0.19460  0.52390  1.0000 -0.0309213402
C   C348      1.0  0.22550  0.15970  0.55580  1.0000 -0.0897204651
C   C349      1.0  0.26590  0.16200  0.59660  1.0000 -0.1490287102
C   C350      1.0  0.19640  0.18960  0.48040  1.0000 0.5544822015
C   C351      1.0  0.85360  0.48260  0.47820  1.0000 -0.1889922043
C   C352      1.0  0.90130  0.48360  0.46030  1.0000 0.0894472265
C   C353      1.0  0.92980  0.54200  0.45710  1.0000 -0.17943194
C   C354      1.0  0.91200  0.59970  0.47220  1.0000 0.0894472265
C   C355      1.0  0.86370  0.59720  0.48980  1.0000 -0.1687719985
C   C356      1.0  0.83280  0.53900  0.49260  1.0000 0.0962564856
C   C357      1.0  0.91830  0.42190  0.44380  1.0000 0.0686385402
C   C358      1.0  0.87600  0.37090  0.43340  1.0000 -0.1313904139
C   C359      1.0  0.89410  0.30960  0.42250  1.0000 -0.0808250678
C   C360      1.0  0.95360  0.30030  0.42050  1.0000 -0.0119016213
C   C361      1.0  0.99610  0.35230  0.42930  1.0000 -0.0708588144
C   C362      1.0  0.97820  0.41300  0.43990  1.0000 -0.1313904139
C   C363      1.0  0.97540  0.23370  0.41350  1.0000 0.5899082884
C   C364      1.0  0.77800  0.53870  0.50740  1.0000 0.0686385402
C   C365      1.0  0.76180  0.59250  0.52690  1.0000 -0.1022236697
C   C366      1.0  0.70770  0.59350  0.53790  1.0000 -0.0708588144
C   C367      1.0  0.66770  0.54130  0.52930  1.0000 -0.0177831231
C   C368      1.0  0.68190  0.48640  0.50960  1.0000 -0.0897204651
C   C369      1.0  0.73620  0.48530  0.49920  1.0000 -0.1313904139
C   C370      1.0  0.61070  0.54180  0.54310  1.0000 0.6154115595
C   C371      1.0  0.94350  0.66220  0.47000  1.0000 0.0686385402
C   C372      1.0  0.91470  0.72200  0.47350  1.0000 -0.1236122712
C   C373      1.0  0.94330  0.78100  0.47140  1.0000 -0.0708588144
C   C374      1.0  0.00130  0.78220  0.46550  1.0000 -0.0309213402
C   C375      1.0  0.03120  0.72380  0.46280  1.0000 -0.0897204651
C   C376      1.0  0.00290  0.66570  0.46480  1.0000 -0.1409637303
C   C377      1.0  0.02800  0.84620  0.45980  1.0000 0.5827458499
C   C378      1.0  0.42570  0.91790  0.35260  1.0000 0.0786447498
C   C379      1.0  0.43820  0.85160  0.35060  1.0000 -0.17943194
C   C380      1.0  0.39490  0.80460  0.35400  1.0000 0.0894472265
C   C381      1.0  0.33980  0.82510  0.36040  1.0000 -0.1889922043
C   C382      1.0  0.32670  0.89110  0.36390  1.0000 0.0894472265
C   C383      1.0  0.37000  0.93650  0.35880  1.0000 -0.17943194
C   C384      1.0  0.47120  0.96950  0.35110  1.0000 0.0686385402
C   C385      1.0  0.53570  0.96410  0.37350  1.0000 -0.1597330361
C   C386      1.0  0.57580  0.01740  0.37510  1.0000 -0.0808250678
C   C387      1.0  0.55210  0.07510  0.35480  1.0000 -0.0366347782
C   C388      1.0  0.48920  0.07910  0.33210  1.0000 -0.0615239476
C   C389      1.0  0.44860  0.02720  0.32900  1.0000 -0.1490287102
C   C390      1.0  0.59430  0.13210  0.36140  1.0000 0.5401530932
C   C391      1.0  0.41130  0.73420  0.35330  1.0000 0.0786447498
C   C392      1.0  0.45560  0.71170  0.33620  1.0000 -0.1409637303
C   C393      1.0  0.47280  0.64670  0.33860  1.0000 -0.0808250678
C   C394      1.0  0.44750  0.60370  0.35970  1.0000 -0.0022551874
C   C395      1.0  0.40340  0.62460  0.37730  1.0000 -0.0808250678
C   C396      1.0  0.38470  0.68860  0.37420  1.0000 -0.1409637303
C   C397      1.0  0.46810  0.53330  0.36320  1.0000 0.5827458499
C   C398      1.0  0.27140  0.91430  0.37530  1.0000 0.0686385402
C   C399      1.0  0.24430  0.87700  0.40000  1.0000 -0.1409637303
C   C400      1.0  0.19570  0.90250  0.41230  1.0000 -0.0897204651
C   C401      1.0  0.17290  0.96460  0.40140  1.0000 -0.0119016213
C   C402      1.0  0.19990  0.00140  0.37680  1.0000 -0.0897204651
C   C403      1.0  0.24760  0.97630  0.36370  1.0000 -0.1490287102
C   C404      1.0  0.12430  0.99810  0.41630  1.0000 0.5899082884
C   C405      1.0  0.96300  0.16330  0.96330  1.0000 -0.1409637303
C   C406      1.0  0.43890  0.48180  0.04040  1.0000 0.0894472265
C   C407      1.0  0.37450  0.48080  0.02180  1.0000 -0.1889922043
C   C408      1.0  0.33960  0.53820  0.00860  1.0000 0.0962564856
C   C409      1.0  0.37370  0.59580  0.01170  1.0000 -0.1687719985
C   C410      1.0  0.43870  0.59820  0.02860  1.0000 0.0894472265
C   C411      1.0  0.47070  0.54070  0.04370  1.0000 -0.1687719985
C   C412      1.0  0.47230  0.42020  0.05620  1.0000 0.0786447498
C   C413      1.0  0.43900  0.36900  0.06730  1.0000 -0.1490287102
C   C414      1.0  0.46640  0.30820  0.07810  1.0000 -0.0808250678
C   C415      1.0  0.52870  0.29810  0.07970  1.0000 -0.0309213402
C   C416      1.0  0.56270  0.34980  0.07050  1.0000 -0.0708588144
C   C417      1.0  0.53490  0.40990  0.05950  1.0000 -0.1409637303
C   C418      1.0  0.55630  0.23240  0.08770  1.0000 0.5827458499
C   C419      1.0  0.27050  0.53770  0.99370  1.0000 0.0686385402
C   C420      1.0  0.23570  0.58870  0.97030  1.0000 -0.1094787378
C   C421      1.0  0.17160  0.58990  0.95920  1.0000 -0.0615239476
C   C422      1.0  0.13940  0.53880  0.97100  1.0000 -0.0022551874
C   C423      1.0  0.17360  0.48780  0.99450  1.0000 -0.0897204651
C   C424      1.0  0.23840  0.48660  0.00530  1.0000 -0.1409637303
C   C425      1.0  0.06980  0.54070  0.95790  1.0000 0.6073665418
C   C426      1.0  0.47240  0.66180  0.03080  1.0000 0.0786447498
C   C427      1.0  0.56720  0.72260  0.03910  1.0000 -0.0897204651
C   C428      1.0  0.53450  0.78000  0.03430  1.0000 -0.0366347782
C   C429      1.0  0.47010  0.77880  0.02790  1.0000 -0.0708588144
C   C430      1.0  0.44010  0.72070  0.02620  1.0000 -0.1490287102
C   C431      1.0  0.56630  0.84360  0.04030  1.0000 0.5827458499
C   C432      1.0  0.56240  0.58100  0.14730  1.0000 0.0894472265
C   C433      1.0  0.58000  0.64660  0.15080  1.0000 -0.1889922043
C   C434      1.0  0.53460  0.69490  0.14750  1.0000 0.0894472265
C   C435      1.0  0.47170  0.67620  0.14080  1.0000 -0.1889922043
C   C436      1.0  0.45400  0.61160  0.13700  1.0000 0.0894472265
C   C437      1.0  0.50050  0.56430  0.14020  1.0000 -0.1687719985
C   C438      1.0  0.38770  0.58930  0.12680  1.0000 0.0686385402
C   C439      1.0  0.37390  0.52910  0.14020  1.0000 -0.1313904139
C   C440      1.0  0.31440  0.50460  0.12810  1.0000 -0.0897204651
C   C441      1.0  0.26450  0.53930  0.10240  1.0000 -0.0119016213
C   C442      1.0  0.27630  0.60210  0.09030  1.0000 -0.0808250678
C   C443      1.0  0.33690  0.62600  0.10260  1.0000 -0.1490287102
C   C444      1.0  0.20230  0.50520  0.08610  1.0000 0.600167314
C   C445      1.0  0.60880  0.52810  0.14770  1.0000 0.0686385402
C   C446      1.0  0.60560  0.46990  0.16910  1.0000 -0.1094787378
C   C447      1.0  0.64430  0.41750  0.16710  1.0000 -0.0808250678
C   C448      1.0  0.68600  0.42310  0.14490  1.0000 -0.0119016213
C   C449      1.0  0.68990  0.48140  0.12440  1.0000 -0.0808250678
C   C450      1.0  0.65140  0.53370  0.12600  1.0000 -0.1687719985
C   C451      1.0  0.72540  0.36660  0.14050  1.0000 0.534800569
C   C452      1.0  0.55130  0.76470  0.14850  1.0000 0.0686385402
C   C453      1.0  0.61230  0.78720  0.16990  1.0000 -0.1409637303
C   C454      1.0  0.62820  0.85190  0.16650  1.0000 -0.0808250678
C   C455      1.0  0.58380  0.89600  0.14280  1.0000 -0.0177831231
C   C456      1.0  0.52300  0.87370  0.12390  1.0000 -0.0708588144
C   C457      1.0  0.50680  0.80950  0.12700  1.0000 -0.1409637303
C   C458      1.0  0.60070  0.96520  0.13830  1.0000 0.5706513621
C   C459      1.0  0.08730  0.77970  0.29120  1.0000 0.0894472265
C   C460      1.0  0.12420  0.77010  0.33240  1.0000 -0.17943194
C   C461      1.0  0.13920  0.70860  0.34960  1.0000 0.0894472265
C   C462      1.0  0.11500  0.65440  0.32490  1.0000 -0.1889922043
C   C463      1.0  0.07690  0.66250  0.28300  1.0000 0.0894472265
C   C464      1.0  0.06360  0.72540  0.26740  1.0000 -0.1889922043
C   C465      1.0  0.07210  0.84660  0.27500  1.0000 0.0686385402
C   C466      1.0  0.01360  0.86160  0.24930  1.0000 -0.1409637303
C   C467      1.0  0.99800  0.92620  0.23920  1.0000 -0.0708588144
C   C468      1.0  0.04150  0.97520  0.25470  1.0000 -0.0119016213
C   C469      1.0  0.10090  0.95880  0.27850  1.0000 -0.0808250678
C   C470      1.0  0.11630  0.89570  0.28880  1.0000 -0.1313904139
C   C471      1.0  0.02450  0.04540  0.24570  1.0000 0.5401530932
C   C472      1.0  0.05090  0.60550  0.25660  1.0000 0.0686385402
C   C473      1.0  0.08690  0.54930  0.25860  1.0000 -0.1313904139
C   C474      1.0  0.06520  0.49830  0.23060  1.0000 -0.0615239476
C   C475      1.0  0.00720  0.50360  0.20060  1.0000 -0.0309213402
C   C476      1.0  0.96920  0.55660  0.19920  1.0000 -0.0808250678
C   C477      1.0  0.99100  0.60750  0.22700  1.0000 -0.1490287102
C   C478      1.0  0.98900  0.45330  0.16780  1.0000 0.5706513621
C   C479      1.0  0.18050  0.70090  0.39310  1.0000 0.0686385402
C   C480      1.0  0.16770  0.73680  0.42450  1.0000 -0.1313904139
C   C481      1.0  0.20660  0.73250  0.46540  1.0000 -0.0897204651
C   C482      1.0  0.26140  0.69460  0.47610  1.0000 -0.0309213402
C   C483      1.0  0.27450  0.65970  0.44420  1.0000 -0.0897204651
C   C484      1.0  0.23410  0.66200  0.40340  1.0000 -0.1490287102
C   C485      1.0  0.30360  0.68960  0.51960  1.0000 0.5544822015
C   C486      1.0  0.64640  0.98260  0.52180  1.0000 -0.1889922043
C   C487      1.0  0.59870  0.98360  0.53970  1.0000 0.0894472265
C   C488      1.0  0.57020  0.04200  0.54290  1.0000 -0.17943194
C   C489      1.0  0.58800  0.09970  0.52780  1.0000 0.0894472265
C   C490      1.0  0.63630  0.09720  0.51020  1.0000 -0.1687719985
C   C491      1.0  0.66720  0.03900  0.50740  1.0000 0.0962564856
C   C492      1.0  0.58170  0.92190  0.55620  1.0000 0.0686385402
C   C493      1.0  0.62400  0.87090  0.56660  1.0000 -0.1313904139
C   C494      1.0  0.60590  0.80960  0.57750  1.0000 -0.0808250678
C   C495      1.0  0.54640  0.80030  0.57950  1.0000 -0.0119016213
C   C496      1.0  0.50390  0.85230  0.57070  1.0000 -0.0708588144
C   C497      1.0  0.52180  0.91300  0.56010  1.0000 -0.1313904139
C   C498      1.0  0.52460  0.73370  0.58650  1.0000 0.5899082884
C   C499      1.0  0.72200  0.03870  0.49260  1.0000 0.0686385402
C   C500      1.0  0.73820  0.09250  0.47310  1.0000 -0.1022236697
C   C501      1.0  0.79230  0.09350  0.46210  1.0000 -0.0708588144
C   C502      1.0  0.83230  0.04130  0.47070  1.0000 -0.0177831231
C   C503      1.0  0.81810  0.98640  0.49040  1.0000 -0.0897204651
C   C504      1.0  0.76380  0.98530  0.50080  1.0000 -0.1313904139
C   C505      1.0  0.88930  0.04180  0.45690  1.0000 0.6154115595
C   C506      1.0  0.55650  0.16220  0.53000  1.0000 0.0686385402
C   C507      1.0  0.58530  0.22200  0.52650  1.0000 -0.1236122712
C   C508      1.0  0.55670  0.28100  0.52860  1.0000 -0.0708588144
C   C509      1.0  0.49870  0.28220  0.53450  1.0000 -0.0309213402
C   C510      1.0  0.46880  0.22380  0.53720  1.0000 -0.0897204651
C   C511      1.0  0.49710  0.16570  0.53520  1.0000 -0.1409637303
C   C512      1.0  0.47200  0.34620  0.54020  1.0000 0.5827458499
C   C513      1.0  0.07430  0.41790  0.64740  1.0000 0.0786447498
C   C514      1.0  0.06180  0.35160  0.64940  1.0000 -0.17943194
C   C515      1.0  0.10510  0.30460  0.64600  1.0000 0.0894472265
C   C516      1.0  0.16020  0.32510  0.63960  1.0000 -0.1889922043
C   C517      1.0  0.17330  0.39110  0.63610  1.0000 0.0894472265
C   C518      1.0  0.13000  0.43650  0.64120  1.0000 -0.17943194
C   C519      1.0  0.02880  0.46950  0.64890  1.0000 0.0686385402
C   C520      1.0  0.96430  0.46410  0.62650  1.0000 -0.1597330361
C   C521      1.0  0.92420  0.51740  0.62490  1.0000 -0.0808250678
C   C522      1.0  0.94790  0.57510  0.64520  1.0000 -0.0366347782
C   C523      1.0  0.01080  0.57910  0.66790  1.0000 -0.0708588144
C   C524      1.0  0.05140  0.52720  0.67100  1.0000 -0.1490287102
C   C525      1.0  0.90570  0.63210  0.63860  1.0000 0.5401530932
C   C526      1.0  0.08870  0.23420  0.64670  1.0000 0.0786447498
C   C527      1.0  0.04440  0.21170  0.66380  1.0000 -0.1409637303
C   C528      1.0  0.02720  0.14670  0.66140  1.0000 -0.0808250678
C   C529      1.0  0.05250  0.10370  0.64030  1.0000 -0.0022551874
C   C530      1.0  0.09660  0.12460  0.62270  1.0000 -0.0808250678
C   C531      1.0  0.11530  0.18860  0.62580  1.0000 -0.1409637303
C   C532      1.0  0.03190  0.03330  0.63680  1.0000 0.5827458499
C   C533      1.0  0.22860  0.41430  0.62470  1.0000 0.0686385402
C   C534      1.0  0.25570  0.37700  0.60000  1.0000 -0.1409637303
C   C535      1.0  0.30430  0.40250  0.58770  1.0000 -0.0897204651
C   C536      1.0  0.32710  0.46460  0.59860  1.0000 -0.0119016213
C   C537      1.0  0.30010  0.50140  0.62320  1.0000 -0.0897204651
C   C538      1.0  0.25240  0.47630  0.63630  1.0000 -0.1490287102
C   C539      1.0  0.37570  0.49810  0.58370  1.0000 0.5899082884
C   C540      1.0  0.53700  0.66330  0.03670  1.0000 -0.1490287102
O   O1        1.0  0.54420  0.92510  0.92672  1.0000 -0.4778164491
O   O2        1.0  0.54000  0.99150  0.97800  1.0000 -0.5476734243
O   O3        1.0  0.03520  0.60420  0.03464  1.0000 -0.509962268
O   O4        1.0  0.12780  0.65630  0.05350  1.0000 -0.5175726444
O   O5        1.0  0.02540  0.31060  0.10090  1.0000 -0.50215744
O   O6        1.0  0.10720  0.27780  0.08082  1.0000 -0.5175726444
O   O7        1.0  0.14890  0.51030  0.16170  1.0000 -0.3805474169
O   O8        1.0  0.06050  0.50400  0.10707  1.0000 -0.5711885295
O   O9        1.0  0.21670  0.18870  0.15310  1.0000 -0.4514155972
O   O10       1.0  0.26890  0.12040  0.12510  1.0000 -0.4514155972
O   O11       1.0  0.65180  0.96270  0.06840  1.0000 -0.509962268
O   O12       1.0  0.70420  0.05450  0.09169  1.0000 -0.509962268
O   O13       1.0  0.52630  0.08590  0.16174  1.0000 -0.4514155972
O   O14       1.0  0.42970  0.04190  0.14270  1.0000 -0.4514155972
O   O15       1.0  0.85530  0.83940  0.52623  1.0000 -0.5301607303
O   O16       1.0  0.78440  0.78640  0.54750  1.0000 -0.5387162966
O   O17       1.0  0.56070  0.41030  0.25970  1.0000 -0.3910527057
O   O18       1.0  0.46980  0.44600  0.22100  1.0000 -0.4692087474
O   O19       1.0  0.99830  0.10300  0.53471  1.0000 -0.4778164491
O   O20       1.0  0.92200  0.15440  0.55150  1.0000 -0.5175726444
O   O21       1.0  0.96770  0.77660  0.57880  1.0000 -0.4692087474
O   O22       1.0  0.06850  0.80800  0.60030  1.0000 -0.5301607303
O   O23       1.0  0.43890  0.49110  0.47770  1.0000 -0.5476734243
O   O24       1.0  0.38440  0.42440  0.42591  1.0000 -0.509962268
O   O25       1.0  0.87860  0.94240  0.58820  1.0000 -0.4692087474
O   O26       1.0  0.90980  0.03600  0.56712  1.0000 -0.50215744
O   O27       1.0  0.54180  0.49800  0.60534  1.0000 -0.6052416168
O   O28       1.0  0.50760  0.49040  0.66060  1.0000 -0.3671884439
O   O29       1.0  0.34780  0.87400  0.62260  1.0000 -0.4569307038
O   O30       1.0  0.43220  0.81110  0.64910  1.0000 -0.4569307038
O   O31       1.0  0.57420  0.08760  0.05391  1.0000 -0.7934308849
O   O32       1.0  0.63760  0.11440  0.13895  1.0000 -0.5301607303
O   O33       1.0  0.97640  0.91020  0.55275  1.0000 -0.7158553503
O   O34       1.0  0.99130  0.88670  0.63723  1.0000 -0.5476734243
O   O35       1.0  0.95580  0.42510  0.07328  1.0000 -0.4692087474
O   O36       1.0  0.96000  0.49150  0.02200  1.0000 -0.5476734243
O   O37       1.0  0.46480  0.10420  0.96536  1.0000 -0.509962268
O   O38       1.0  0.37220  0.15630  0.94650  1.0000 -0.5175726444
O   O39       1.0  0.47460  0.81060  0.89910  1.0000 -0.50215744
O   O40       1.0  0.39280  0.77780  0.91918  1.0000 -0.5175726444
O   O41       1.0  0.35110  0.01030  0.83830  1.0000 -0.3805474169
O   O42       1.0  0.43950  0.00400  0.89293  1.0000 -0.5711885295
O   O43       1.0  0.28330  0.68870  0.84690  1.0000 -0.4514155972
O   O44       1.0  0.23110  0.62040  0.87490  1.0000 -0.4569307038
O   O45       1.0  0.84820  0.46270  0.93160  1.0000 -0.509962268
O   O46       1.0  0.79580  0.55450  0.90831  1.0000 -0.509962268
O   O47       1.0  0.97370  0.58590  0.83826  1.0000 -0.4514155972
O   O48       1.0  0.07030  0.54190  0.85730  1.0000 -0.4514155972
O   O49       1.0  0.64470  0.33940  0.47377  1.0000 -0.5301607303
O   O50       1.0  0.71560  0.28640  0.45250  1.0000 -0.5387162966
O   O51       1.0  0.93930  0.91030  0.74030  1.0000 -0.3910527057
O   O52       1.0  0.03020  0.94600  0.77900  1.0000 -0.4692087474
O   O53       1.0  0.50170  0.60300  0.46529  1.0000 -0.4778164491
O   O54       1.0  0.57800  0.65440  0.44850  1.0000 -0.5175726444
O   O55       1.0  0.53230  0.27660  0.42120  1.0000 -0.4692087474
O   O56       1.0  0.43150  0.30800  0.39970  1.0000 -0.5301607303
O   O57       1.0  0.06110  0.99110  0.52230  1.0000 -0.5476734243
O   O58       1.0  0.11560  0.92440  0.57409  1.0000 -0.509962268
O   O59       1.0  0.62140  0.44240  0.41180  1.0000 -0.4692087474
O   O60       1.0  0.59020  0.53600  0.43288  1.0000 -0.50215744
O   O61       1.0  0.95820  0.99800  0.39466  1.0000 -0.6052416168
O   O62       1.0  0.99240  0.99040  0.33940  1.0000 -0.3671884439
O   O63       1.0  0.15220  0.37400  0.37740  1.0000 -0.4569307038
O   O64       1.0  0.06780  0.31110  0.35090  1.0000 -0.4569307038
O   O65       1.0  0.92580  0.58760  0.94609  1.0000 -0.7934308849
O   O66       1.0  0.86240  0.61440  0.86105  1.0000 -0.5301607303
O   O67       1.0  0.52360  0.41020  0.44725  1.0000 -0.7129514418
O   O68       1.0  0.50870  0.38670  0.36277  1.0000 -0.5476734243
O   O69       1.0  0.45580  0.07490  0.07328  1.0000 -0.4778164491
O   O70       1.0  0.46000  0.00850  0.02200  1.0000 -0.5476734243
O   O71       1.0  0.96480  0.39580  0.96536  1.0000 -0.509962268
O   O72       1.0  0.87220  0.34370  0.94650  1.0000 -0.5175726444
O   O73       1.0  0.97460  0.68940  0.89910  1.0000 -0.50215744
O   O74       1.0  0.89280  0.72220  0.91918  1.0000 -0.5175726444
O   O75       1.0  0.85110  0.48970  0.83830  1.0000 -0.3805474169
O   O76       1.0  0.93950  0.49600  0.89293  1.0000 -0.5711885295
O   O77       1.0  0.78330  0.81130  0.84690  1.0000 -0.4514155972
O   O78       1.0  0.73110  0.87960  0.87490  1.0000 -0.4514155972
O   O79       1.0  0.34820  0.03730  0.93160  1.0000 -0.509962268
O   O80       1.0  0.29580  0.94550  0.90831  1.0000 -0.5175726444
O   O81       1.0  0.47370  0.91410  0.83826  1.0000 -0.4514155972
O   O82       1.0  0.57030  0.95810  0.85730  1.0000 -0.4441071354
O   O83       1.0  0.14470  0.16060  0.47377  1.0000 -0.5301607303
O   O84       1.0  0.21560  0.21360  0.45250  1.0000 -0.5387162966
O   O85       1.0  0.43930  0.58970  0.74030  1.0000 -0.3910527057
O   O86       1.0  0.53020  0.55400  0.77900  1.0000 -0.4692087474
O   O87       1.0  0.00170  0.89700  0.46529  1.0000 -0.4778164491
O   O88       1.0  0.07800  0.84560  0.44850  1.0000 -0.5175726444
O   O89       1.0  0.03230  0.22340  0.42120  1.0000 -0.4692087474
O   O90       1.0  0.93150  0.19200  0.39970  1.0000 -0.5301607303
O   O91       1.0  0.56110  0.50890  0.52230  1.0000 -0.5387162966
O   O92       1.0  0.61560  0.57560  0.57409  1.0000 -0.509962268
O   O93       1.0  0.12140  0.05760  0.41180  1.0000 -0.4692087474
O   O94       1.0  0.09020  0.96400  0.43288  1.0000 -0.50215744
O   O95       1.0  0.45820  0.50200  0.39466  1.0000 -0.6044617496
O   O96       1.0  0.49240  0.50960  0.33940  1.0000 -0.3671884439
O   O97       1.0  0.65220  0.12600  0.37740  1.0000 -0.4569307038
O   O98       1.0  0.56780  0.18890  0.35090  1.0000 -0.4569307038
O   O99       1.0  0.42580  0.91240  0.94609  1.0000 -0.7934308849
O   O100      1.0  0.36240  0.88560  0.86105  1.0000 -0.5301607303
O   O101      1.0  0.02360  0.08980  0.44725  1.0000 -0.7129514418
O   O102      1.0  0.00870  0.11330  0.36277  1.0000 -0.5476734243
O   O103      1.0  0.04420  0.57490  0.92672  1.0000 -0.4778164491
O   O104      1.0  0.04000  0.50850  0.97800  1.0000 -0.5476734243
O   O105      1.0  0.53520  0.89580  0.03464  1.0000 -0.509962268
O   O106      1.0  0.62780  0.84370  0.05350  1.0000 -0.5175726444
O   O107      1.0  0.52540  0.18940  0.10090  1.0000 -0.50215744
O   O108      1.0  0.60720  0.22220  0.08082  1.0000 -0.5175726444
O   O109      1.0  0.64890  0.98970  0.16170  1.0000 -0.3805474169
O   O110      1.0  0.56050  0.99600  0.10707  1.0000 -0.5711885295
O   O111      1.0  0.71670  0.31130  0.15310  1.0000 -0.4514155972
O   O112      1.0  0.76890  0.37960  0.12510  1.0000 -0.4514155972
O   O113      1.0  0.15180  0.53730  0.06840  1.0000 -0.509962268
O   O114      1.0  0.20420  0.44550  0.09169  1.0000 -0.5175726444
O   O115      1.0  0.02630  0.41410  0.16174  1.0000 -0.4514155972
O   O116      1.0  0.92970  0.45810  0.14270  1.0000 -0.4514155972
O   O117      1.0  0.35530  0.66060  0.52623  1.0000 -0.5301607303
O   O118      1.0  0.28440  0.71360  0.54750  1.0000 -0.5387162966
O   O119      1.0  0.06070  0.08970  0.25970  1.0000 -0.3910527057
O   O120      1.0  0.96980  0.05400  0.22100  1.0000 -0.4778164491
O   O121      1.0  0.49830  0.39700  0.53471  1.0000 -0.4778164491
O   O122      1.0  0.42200  0.34560  0.55150  1.0000 -0.5175726444
O   O123      1.0  0.46770  0.72340  0.57880  1.0000 -0.4692087474
O   O124      1.0  0.56850  0.69200  0.60030  1.0000 -0.5301607303
O   O125      1.0  0.93890  0.00890  0.47770  1.0000 -0.5387162966
O   O126      1.0  0.88440  0.07560  0.42591  1.0000 -0.509962268
O   O127      1.0  0.37860  0.55760  0.58820  1.0000 -0.4692087474
O   O128      1.0  0.40980  0.46400  0.56712  1.0000 -0.50215744
O   O129      1.0  0.04180  0.00200  0.60534  1.0000 -0.6044617496
O   O130      1.0  0.00760  0.00960  0.66060  1.0000 -0.3671884439
O   O131      1.0  0.84780  0.62600  0.62260  1.0000 -0.4569307038
O   O132      1.0  0.93220  0.68890  0.64910  1.0000 -0.4569307038
O   O133      1.0  0.07420  0.41240  0.05391  1.0000 -0.7934308849
O   O134      1.0  0.13760  0.38560  0.13895  1.0000 -0.5301607303
O   O135      1.0  0.47640  0.58980  0.55275  1.0000 -0.7158553503
O   O136      1.0  0.49130  0.61330  0.63723  1.0000 -0.5476734243
