# DDEC6 charges by PACMAN v1.1 (https://github.com/mtap-research/PACMAN-charge/)
data_2022[Zn][lon]3[ASR]2
_chemical_formula_sum              "Zn2 H24 C18 N8 O6"
_cell_length_a       9.3164
_cell_length_b       9.2981
_cell_length_c       9.6214
_cell_angle_alpha    90
_cell_angle_beta     118.356
_cell_angle_gamma    90

_symmetry_space_group_name_H-M    "P 1"
_symmetry_Int_Tables_number       1

loop_
  _symmetry_equiv_pos_as_xyz
  'x, y, z'

loop_
  _atom_site_type_symbol
  _atom_site_label
  _atom_site_symmetry_multiplicity
  _atom_site_fract_x
  _atom_site_fract_y
  _atom_site_fract_z
  _atom_site_occupancy
  _atom_site_charge
Zn  Zn1       1.0  0.92187  0.71140  0.78702  1.0000 0.705461597
Zn  Zn2       1.0  0.07813  0.21140  0.21298  1.0000 0.705461597
H   H1        1.0  0.64276  0.61298  0.61830  1.0000 0.2928340789
H   H2        1.0  0.67463  0.71848  0.52228  1.0000 0.2928340789
H   H3        1.0  0.10987  0.72291  0.42032  1.0000 0.2739048954
H   H4        1.0  0.59876  0.79955  0.75657  1.0000 0.0917547227
H   H5        1.0  0.61759  0.90819  0.63750  1.0000 0.0917547227
H   H6        1.0  0.38038  0.80645  0.42436  1.0000 0.1385337579
H   H7        1.0  0.34139  0.87896  0.55358  1.0000 0.1385337579
H   H8        1.0  0.14373  0.43564  0.50070  1.0000 0.0917547227
H   H9        1.0  0.83853  0.58449  0.32334  1.0000 0.117870694
H   H10       1.0  0.86421  0.41424  0.32897  1.0000 0.127084231
H   H11       1.0  0.83735  0.71248  0.08229  1.0000 0.127084231
H   H12       1.0  0.04427  0.41388  0.94572  1.0000 0.0979162659
H   H13       1.0  0.35724  0.11298  0.38170  1.0000 0.2928340789
H   H14       1.0  0.32537  0.21848  0.47772  1.0000 0.2928340789
H   H15       1.0  0.89013  0.22291  0.57968  1.0000 0.2739048954
H   H16       1.0  0.40124  0.29955  0.24343  1.0000 0.0917547227
H   H17       1.0  0.38241  0.40819  0.36250  1.0000 0.0917547227
H   H18       1.0  0.61962  0.30645  0.57564  1.0000 0.1385337579
H   H19       1.0  0.65861  0.37896  0.44642  1.0000 0.1385337579
H   H20       1.0  0.85627  0.93564  0.49930  1.0000 0.0917547227
H   H21       1.0  0.16147  0.08449  0.67666  1.0000 0.117870694
H   H22       1.0  0.13579  0.91424  0.67103  1.0000 0.127084231
H   H23       1.0  0.16265  0.21248  0.91771  1.0000 0.127084231
H   H24       1.0  0.95573  0.91388  0.05428  1.0000 0.0979162659
C   C1        1.0  0.58060  0.81060  0.64710  1.0000 0.0006990833
C   C2        1.0  0.39900  0.79830  0.53430  1.0000 -0.363031799
C   C3        1.0  0.32790  0.65700  0.55290  1.0000 0.5252027269
C   C4        1.0  0.07570  0.52350  0.48450  1.0000 0.0119800232
C   C5        1.0  0.03160  0.53440  0.61880  1.0000 0.5540510174
C   C6        1.0  0.91450  0.50780  0.32830  1.0000 -0.300319085
C   C7        1.0  0.93430  0.51610  0.18420  1.0000 0.1789985355
C   C8        1.0  0.88970  0.62630  0.07780  1.0000 -0.1316120047
C   C9        1.0  0.00180  0.46400  0.00420  1.0000 0.1505807992
C   C10       1.0  0.41940  0.31060  0.35290  1.0000 0.0006990833
C   C11       1.0  0.60100  0.29830  0.46570  1.0000 -0.363031799
C   C12       1.0  0.67210  0.15700  0.44710  1.0000 0.5252027269
C   C13       1.0  0.92430  0.02350  0.51550  1.0000 0.0119800232
C   C14       1.0  0.96840  0.03440  0.38120  1.0000 0.5540510174
C   C15       1.0  0.08550  0.00780  0.67170  1.0000 -0.300319085
C   C16       1.0  0.06570  0.01610  0.81580  1.0000 0.1789985355
C   C17       1.0  0.11030  0.12630  0.92220  1.0000 -0.1316120047
C   C18       1.0  0.99820  0.96400  0.99580  1.0000 0.1505807992
N   N1        1.0  0.68230  0.70260  0.61890  1.0000 -0.5239207391
N   N2        1.0  0.16550  0.64880  0.47740  1.0000 -0.3705593739
N   N3        1.0  0.93270  0.59270  0.96290  1.0000 -0.300319085
N   N4        1.0  0.00630  0.41080  0.13580  1.0000 -0.363031799
N   N5        1.0  0.31770  0.20260  0.38110  1.0000 -0.5239207391
N   N6        1.0  0.83450  0.14880  0.52260  1.0000 -0.3705593739
N   N7        1.0  0.06730  0.09270  0.03710  1.0000 -0.300319085
N   N8        1.0  0.99370  0.91080  0.86420  1.0000 -0.363031799
O   O1        1.0  0.41710  0.55540  0.63060  1.0000 -0.5421864186
O   O2        1.0  0.04860  0.65834  0.68140  1.0000 -0.5421864186
O   O3        1.0  0.97510  0.42740  0.65230  1.0000 -0.5716672186
O   O4        1.0  0.58290  0.05540  0.36940  1.0000 -0.5421864186
O   O5        1.0  0.95140  0.15834  0.31860  1.0000 -0.5421864186
O   O6        1.0  0.02490  0.92740  0.34770  1.0000 -0.5716672186
