# DDEC6 charges by PACMAN v1.1 (https://github.com/mtap-research/PACMAN-charge/)
data_2022[Cu][pto]3[ASR]1
_chemical_formula_sum              "Cu6 H96 C120 N32"
_cell_length_a       17.5855
_cell_length_b       17.5855
_cell_length_c       17.5855
_cell_angle_alpha    90
_cell_angle_beta     90
_cell_angle_gamma    90

_symmetry_space_group_name_H-M    "P 1"
_symmetry_Int_Tables_number       1

loop_
  _symmetry_equiv_pos_as_xyz
  'x, y, z'

loop_
  _atom_site_type_symbol
  _atom_site_label
  _atom_site_symmetry_multiplicity
  _atom_site_fract_x
  _atom_site_fract_y
  _atom_site_fract_z
  _atom_site_occupancy
  _atom_site_charge
Cu  Cu1       1.0  0.00000  0.25000  0.50000  1.0000 0.1954361737
Cu  Cu2       1.0  0.00000  0.75000  0.50000  1.0000 0.1872207121
Cu  Cu3       1.0  0.50000  0.00000  0.25000  1.0000 0.1954361737
Cu  Cu4       1.0  0.50000  0.00000  0.75000  1.0000 0.1872207121
Cu  Cu5       1.0  0.25000  0.50000  0.00000  1.0000 0.1954361737
Cu  Cu6       1.0  0.75000  0.50000  0.00000  1.0000 0.1872207121
H   H1        1.0  0.09377  0.36098  0.58586  1.0000 0.0840128877
H   H2        1.0  0.18444  0.36476  0.68093  1.0000 0.1307532479
H   H3        1.0  0.90623  0.63902  0.58586  1.0000 0.0840128877
H   H4        1.0  0.81556  0.63524  0.68093  1.0000 0.1307532479
H   H5        1.0  0.90623  0.36098  0.41414  1.0000 0.0840128877
H   H6        1.0  0.81556  0.36476  0.31907  1.0000 0.1307532479
H   H7        1.0  0.09377  0.63902  0.41414  1.0000 0.0840128877
H   H8        1.0  0.18444  0.63524  0.31907  1.0000 0.1307532479
H   H9        1.0  0.58586  0.09377  0.36098  1.0000 0.0840128877
H   H10       1.0  0.68093  0.18444  0.36476  1.0000 0.1307532479
H   H11       1.0  0.58586  0.90623  0.63902  1.0000 0.0840128877
H   H12       1.0  0.68093  0.81556  0.63524  1.0000 0.1307532479
H   H13       1.0  0.41414  0.90623  0.36098  1.0000 0.0840128877
H   H14       1.0  0.31907  0.81556  0.36476  1.0000 0.1307532479
H   H15       1.0  0.41414  0.09377  0.63902  1.0000 0.0840128877
H   H16       1.0  0.31907  0.18444  0.63524  1.0000 0.1307532479
H   H17       1.0  0.36098  0.58586  0.09377  1.0000 0.0840128877
H   H18       1.0  0.36476  0.68093  0.18444  1.0000 0.1307532479
H   H19       1.0  0.63902  0.58586  0.90623  1.0000 0.0840128877
H   H20       1.0  0.63524  0.68093  0.81556  1.0000 0.1307532479
H   H21       1.0  0.36098  0.41414  0.90623  1.0000 0.0840128877
H   H22       1.0  0.36476  0.31907  0.81556  1.0000 0.1307532479
H   H23       1.0  0.63902  0.41414  0.09377  1.0000 0.0840128877
H   H24       1.0  0.63524  0.31907  0.18444  1.0000 0.1307532479
H   H25       1.0  0.86098  0.59377  0.91414  1.0000 0.0840128877
H   H26       1.0  0.86476  0.68444  0.81907  1.0000 0.1307532479
H   H27       1.0  0.13902  0.40623  0.91414  1.0000 0.0840128877
H   H28       1.0  0.13524  0.31556  0.81907  1.0000 0.1307532479
H   H29       1.0  0.86098  0.40623  0.08586  1.0000 0.0840128877
H   H30       1.0  0.86476  0.31556  0.18093  1.0000 0.1307532479
H   H31       1.0  0.13902  0.59377  0.08586  1.0000 0.0840128877
H   H32       1.0  0.13524  0.68444  0.18093  1.0000 0.1307532479
H   H33       1.0  0.59377  0.08586  0.13902  1.0000 0.0840128877
H   H34       1.0  0.68444  0.18093  0.13524  1.0000 0.1307532479
H   H35       1.0  0.40623  0.08586  0.86098  1.0000 0.0840128877
H   H36       1.0  0.31556  0.18093  0.86476  1.0000 0.1307532479
H   H37       1.0  0.40623  0.91414  0.13902  1.0000 0.0840128877
H   H38       1.0  0.31556  0.81907  0.13524  1.0000 0.1307532479
H   H39       1.0  0.59377  0.91414  0.86098  1.0000 0.0840128877
H   H40       1.0  0.68444  0.81907  0.86476  1.0000 0.1307532479
H   H41       1.0  0.08586  0.86098  0.40623  1.0000 0.0840128877
H   H42       1.0  0.18093  0.86476  0.31556  1.0000 0.1307532479
H   H43       1.0  0.08586  0.13902  0.59377  1.0000 0.0840128877
H   H44       1.0  0.18093  0.13524  0.68444  1.0000 0.1307532479
H   H45       1.0  0.91414  0.86098  0.59377  1.0000 0.0840128877
H   H46       1.0  0.81907  0.86476  0.68444  1.0000 0.1307532479
H   H47       1.0  0.91414  0.13902  0.40623  1.0000 0.0840128877
H   H48       1.0  0.81907  0.13524  0.31556  1.0000 0.1307532479
H   H49       1.0  0.90623  0.63902  0.41414  1.0000 0.0840128877
H   H50       1.0  0.81556  0.63524  0.31907  1.0000 0.1307532479
H   H51       1.0  0.09377  0.36098  0.41414  1.0000 0.0840128877
H   H52       1.0  0.18444  0.36476  0.31907  1.0000 0.1307532479
H   H53       1.0  0.09377  0.63902  0.58586  1.0000 0.0840128877
H   H54       1.0  0.18444  0.63524  0.68093  1.0000 0.1307532479
H   H55       1.0  0.90623  0.36098  0.58586  1.0000 0.0840128877
H   H56       1.0  0.81556  0.36476  0.68093  1.0000 0.1307532479
H   H57       1.0  0.41414  0.90623  0.63902  1.0000 0.0840128877
H   H58       1.0  0.31907  0.81556  0.63524  1.0000 0.1307532479
H   H59       1.0  0.41414  0.09377  0.36098  1.0000 0.0840128877
H   H60       1.0  0.31907  0.18444  0.36476  1.0000 0.1307532479
H   H61       1.0  0.58586  0.09377  0.63902  1.0000 0.0840128877
H   H62       1.0  0.68093  0.18444  0.63524  1.0000 0.1307532479
H   H63       1.0  0.58586  0.90623  0.36098  1.0000 0.0840128877
H   H64       1.0  0.68093  0.81556  0.36476  1.0000 0.1307532479
H   H65       1.0  0.63902  0.41414  0.90623  1.0000 0.0840128877
H   H66       1.0  0.63524  0.31907  0.81556  1.0000 0.1307532479
H   H67       1.0  0.36098  0.41414  0.09377  1.0000 0.0840128877
H   H68       1.0  0.36476  0.31907  0.18444  1.0000 0.1307532479
H   H69       1.0  0.63902  0.58586  0.09377  1.0000 0.0840128877
H   H70       1.0  0.63524  0.68093  0.18444  1.0000 0.1307532479
H   H71       1.0  0.36098  0.58586  0.90623  1.0000 0.0840128877
H   H72       1.0  0.36476  0.68093  0.81556  1.0000 0.1307532479
H   H73       1.0  0.13902  0.40623  0.08586  1.0000 0.0840128877
H   H74       1.0  0.13524  0.31556  0.18093  1.0000 0.1307532479
H   H75       1.0  0.86098  0.59377  0.08586  1.0000 0.0840128877
H   H76       1.0  0.86476  0.68444  0.18093  1.0000 0.1307532479
H   H77       1.0  0.13902  0.59377  0.91414  1.0000 0.0840128877
H   H78       1.0  0.13524  0.68444  0.81907  1.0000 0.1307532479
H   H79       1.0  0.86098  0.40623  0.91414  1.0000 0.0840128877
H   H80       1.0  0.86476  0.31556  0.81907  1.0000 0.1307532479
H   H81       1.0  0.40623  0.91414  0.86098  1.0000 0.0840128877
H   H82       1.0  0.31556  0.81907  0.86476  1.0000 0.1307532479
H   H83       1.0  0.59377  0.91414  0.13902  1.0000 0.0840128877
H   H84       1.0  0.68444  0.81907  0.13524  1.0000 0.1307532479
H   H85       1.0  0.59377  0.08586  0.86098  1.0000 0.0840128877
H   H86       1.0  0.68444  0.18093  0.86476  1.0000 0.1307532479
H   H87       1.0  0.40623  0.08586  0.13902  1.0000 0.0840128877
H   H88       1.0  0.31556  0.18093  0.13524  1.0000 0.1307532479
H   H89       1.0  0.91414  0.13902  0.59377  1.0000 0.0840128877
H   H90       1.0  0.81907  0.13524  0.68444  1.0000 0.1307532479
H   H91       1.0  0.91414  0.86098  0.40623  1.0000 0.0840128877
H   H92       1.0  0.81907  0.86476  0.31556  1.0000 0.1307532479
H   H93       1.0  0.08586  0.13902  0.40623  1.0000 0.0840128877
H   H94       1.0  0.18093  0.13524  0.31556  1.0000 0.1307532479
H   H95       1.0  0.08586  0.86098  0.59377  1.0000 0.0840128877
H   H96       1.0  0.18093  0.86476  0.68444  1.0000 0.1307532479
C   C1        1.0  0.11110  0.31442  0.60710  1.0000 0.0465151704
C   C2        1.0  0.16580  0.31726  0.66320  1.0000 -0.2363758575
C   C3        1.0  0.88890  0.68558  0.60710  1.0000 0.0465151704
C   C4        1.0  0.83420  0.68274  0.66320  1.0000 -0.2363758575
C   C5        1.0  0.88890  0.31442  0.39290  1.0000 0.0465151704
C   C6        1.0  0.83420  0.31726  0.33680  1.0000 -0.2363758575
C   C7        1.0  0.11110  0.68558  0.39290  1.0000 0.0465151704
C   C8        1.0  0.16580  0.68274  0.33680  1.0000 -0.2363758575
C   C9        1.0  0.60710  0.11110  0.31442  1.0000 0.0465151704
C   C10       1.0  0.66320  0.16580  0.31726  1.0000 -0.2363758575
C   C11       1.0  0.60710  0.88890  0.68558  1.0000 0.0465151704
C   C12       1.0  0.66320  0.83420  0.68274  1.0000 -0.2363758575
C   C13       1.0  0.39290  0.88890  0.31442  1.0000 0.0465151704
C   C14       1.0  0.33680  0.83420  0.31726  1.0000 -0.2363758575
C   C15       1.0  0.39290  0.11110  0.68558  1.0000 0.0465151704
C   C16       1.0  0.33680  0.16580  0.68274  1.0000 -0.2363758575
C   C17       1.0  0.31442  0.60710  0.11110  1.0000 0.0465151704
C   C18       1.0  0.31726  0.66320  0.16580  1.0000 -0.2363758575
C   C19       1.0  0.68558  0.60710  0.88890  1.0000 0.0465151704
C   C20       1.0  0.68274  0.66320  0.83420  1.0000 -0.2363758575
C   C21       1.0  0.31442  0.39290  0.88890  1.0000 0.0465151704
C   C22       1.0  0.31726  0.33680  0.83420  1.0000 -0.2363758575
C   C23       1.0  0.68558  0.39290  0.11110  1.0000 0.0465151704
C   C24       1.0  0.68274  0.33680  0.16580  1.0000 -0.2363758575
C   C25       1.0  0.81442  0.61110  0.89290  1.0000 0.0465151704
C   C26       1.0  0.81726  0.66580  0.83680  1.0000 -0.2363758575
C   C27       1.0  0.18558  0.38890  0.89290  1.0000 0.0465151704
C   C28       1.0  0.18274  0.33420  0.83680  1.0000 -0.2363758575
C   C29       1.0  0.81442  0.38890  0.10710  1.0000 0.0465151704
C   C30       1.0  0.81726  0.33420  0.16320  1.0000 -0.2363758575
C   C31       1.0  0.18558  0.61110  0.10710  1.0000 0.0465151704
C   C32       1.0  0.18274  0.66580  0.16320  1.0000 -0.2363758575
C   C33       1.0  0.61110  0.10710  0.18558  1.0000 0.0465151704
C   C34       1.0  0.66580  0.16320  0.18274  1.0000 -0.2363758575
C   C35       1.0  0.38890  0.10710  0.81442  1.0000 0.0465151704
C   C36       1.0  0.33420  0.16320  0.81726  1.0000 -0.2363758575
C   C37       1.0  0.38890  0.89290  0.18558  1.0000 0.0465151704
C   C38       1.0  0.33420  0.83680  0.18274  1.0000 -0.2363758575
C   C39       1.0  0.61110  0.89290  0.81442  1.0000 0.0465151704
C   C40       1.0  0.66580  0.83680  0.81726  1.0000 -0.2363758575
C   C41       1.0  0.10710  0.81442  0.38890  1.0000 0.0465151704
C   C42       1.0  0.16320  0.81726  0.33420  1.0000 -0.2363758575
C   C43       1.0  0.10710  0.18558  0.61110  1.0000 0.0465151704
C   C44       1.0  0.16320  0.18274  0.66580  1.0000 -0.2363758575
C   C45       1.0  0.89290  0.81442  0.61110  1.0000 0.0465151704
C   C46       1.0  0.83680  0.81726  0.66580  1.0000 -0.2363758575
C   C47       1.0  0.89290  0.18558  0.38890  1.0000 0.0465151704
C   C48       1.0  0.83680  0.18274  0.33420  1.0000 -0.2363758575
C   C49       1.0  0.88890  0.68558  0.39290  1.0000 0.0465151704
C   C50       1.0  0.83420  0.68274  0.33680  1.0000 -0.2363758575
C   C51       1.0  0.11110  0.31442  0.39290  1.0000 0.0465151704
C   C52       1.0  0.16580  0.31726  0.33680  1.0000 -0.2363758575
C   C53       1.0  0.11110  0.68558  0.60710  1.0000 0.0465151704
C   C54       1.0  0.16580  0.68274  0.66320  1.0000 -0.2363758575
C   C55       1.0  0.88890  0.31442  0.60710  1.0000 0.0465151704
C   C56       1.0  0.83420  0.31726  0.66320  1.0000 -0.2363758575
C   C57       1.0  0.39290  0.88890  0.68558  1.0000 0.0465151704
C   C58       1.0  0.33680  0.83420  0.68274  1.0000 -0.2363758575
C   C59       1.0  0.39290  0.11110  0.31442  1.0000 0.0465151704
C   C60       1.0  0.33680  0.16580  0.31726  1.0000 -0.2363758575
C   C61       1.0  0.60710  0.11110  0.68558  1.0000 0.0465151704
C   C62       1.0  0.66320  0.16580  0.68274  1.0000 -0.2363758575
C   C63       1.0  0.60710  0.88890  0.31442  1.0000 0.0465151704
C   C64       1.0  0.66320  0.83420  0.31726  1.0000 -0.2363758575
C   C65       1.0  0.68558  0.39290  0.88890  1.0000 0.0465151704
C   C66       1.0  0.68274  0.33680  0.83420  1.0000 -0.2363758575
C   C67       1.0  0.31442  0.39290  0.11110  1.0000 0.0465151704
C   C68       1.0  0.31726  0.33680  0.16580  1.0000 -0.2363758575
C   C69       1.0  0.68558  0.60710  0.11110  1.0000 0.0465151704
C   C70       1.0  0.68274  0.66320  0.16580  1.0000 -0.2363758575
C   C71       1.0  0.31442  0.60710  0.88890  1.0000 0.0465151704
C   C72       1.0  0.31726  0.66320  0.83420  1.0000 -0.2363758575
C   C73       1.0  0.18558  0.38890  0.10710  1.0000 0.0465151704
C   C74       1.0  0.18274  0.33420  0.16320  1.0000 -0.2363758575
C   C75       1.0  0.81442  0.61110  0.10710  1.0000 0.0465151704
C   C76       1.0  0.81726  0.66580  0.16320  1.0000 -0.2363758575
C   C77       1.0  0.18558  0.61110  0.89290  1.0000 0.0465151704
C   C78       1.0  0.18274  0.66580  0.83680  1.0000 -0.2363758575
C   C79       1.0  0.81442  0.38890  0.89290  1.0000 0.0465151704
C   C80       1.0  0.81726  0.33420  0.83680  1.0000 -0.2363758575
C   C81       1.0  0.38890  0.89290  0.81442  1.0000 0.0465151704
C   C82       1.0  0.33420  0.83680  0.81726  1.0000 -0.2363758575
C   C83       1.0  0.61110  0.89290  0.18558  1.0000 0.0465151704
C   C84       1.0  0.66580  0.83680  0.18274  1.0000 -0.2363758575
C   C85       1.0  0.61110  0.10710  0.81442  1.0000 0.0465151704
C   C86       1.0  0.66580  0.16320  0.81726  1.0000 -0.2363758575
C   C87       1.0  0.38890  0.10710  0.18558  1.0000 0.0465151704
C   C88       1.0  0.33420  0.16320  0.18274  1.0000 -0.2363758575
C   C89       1.0  0.89290  0.18558  0.61110  1.0000 0.0465151704
C   C90       1.0  0.83680  0.18274  0.66580  1.0000 -0.2363758575
C   C91       1.0  0.89290  0.81442  0.38890  1.0000 0.0465151704
C   C92       1.0  0.83680  0.81726  0.33420  1.0000 -0.2363758575
C   C93       1.0  0.10710  0.18558  0.38890  1.0000 0.0465151704
C   C94       1.0  0.16320  0.18274  0.33420  1.0000 -0.2363758575
C   C95       1.0  0.10710  0.81442  0.61110  1.0000 0.0465151704
C   C96       1.0  0.16320  0.81726  0.66580  1.0000 -0.2363758575
C   C97       1.0  0.19314  0.25000  0.69314  1.0000 0.1872207121
C   C98       1.0  0.80686  0.75000  0.69314  1.0000 0.1872207121
C   C99       1.0  0.80686  0.25000  0.30686  1.0000 0.1872207121
C   C100      1.0  0.19314  0.75000  0.30686  1.0000 0.1872207121
C   C101      1.0  0.69314  0.19314  0.25000  1.0000 0.1872207121
C   C102      1.0  0.69314  0.80686  0.75000  1.0000 0.1872207121
C   C103      1.0  0.30686  0.80686  0.25000  1.0000 0.1872207121
C   C104      1.0  0.30686  0.19314  0.75000  1.0000 0.1872207121
C   C105      1.0  0.25000  0.69314  0.19314  1.0000 0.1872207121
C   C106      1.0  0.75000  0.69314  0.80686  1.0000 0.1872207121
C   C107      1.0  0.25000  0.30686  0.80686  1.0000 0.1872207121
C   C108      1.0  0.75000  0.30686  0.19314  1.0000 0.1872207121
C   C109      1.0  0.80686  0.75000  0.30686  1.0000 0.1872207121
C   C110      1.0  0.19314  0.25000  0.30686  1.0000 0.1872207121
C   C111      1.0  0.19314  0.75000  0.69314  1.0000 0.1872207121
C   C112      1.0  0.80686  0.25000  0.69314  1.0000 0.1872207121
C   C113      1.0  0.30686  0.80686  0.75000  1.0000 0.1872207121
C   C114      1.0  0.30686  0.19314  0.25000  1.0000 0.1872207121
C   C115      1.0  0.69314  0.19314  0.75000  1.0000 0.1872207121
C   C116      1.0  0.69314  0.80686  0.25000  1.0000 0.1872207121
C   C117      1.0  0.75000  0.30686  0.80686  1.0000 0.1872207121
C   C118      1.0  0.25000  0.30686  0.19314  1.0000 0.1872207121
C   C119      1.0  0.75000  0.69314  0.19314  1.0000 0.1872207121
C   C120      1.0  0.25000  0.69314  0.80686  1.0000 0.1872207121
N   N1        1.0  0.08125  0.25000  0.58125  1.0000 -0.2181955437
N   N2        1.0  0.91875  0.75000  0.58125  1.0000 -0.2181955437
N   N3        1.0  0.91875  0.25000  0.41875  1.0000 -0.2181955437
N   N4        1.0  0.08125  0.75000  0.41875  1.0000 -0.2181955437
N   N5        1.0  0.58125  0.08125  0.25000  1.0000 -0.2181955437
N   N6        1.0  0.58125  0.91875  0.75000  1.0000 -0.2181955437
N   N7        1.0  0.41875  0.91875  0.25000  1.0000 -0.2181955437
N   N8        1.0  0.41875  0.08125  0.75000  1.0000 -0.2181955437
N   N9        1.0  0.25000  0.58125  0.08125  1.0000 -0.2181955437
N   N10       1.0  0.75000  0.58125  0.91875  1.0000 -0.2181955437
N   N11       1.0  0.25000  0.41875  0.91875  1.0000 -0.2181955437
N   N12       1.0  0.75000  0.41875  0.08125  1.0000 -0.2181955437
N   N13       1.0  0.91875  0.75000  0.41875  1.0000 -0.2181955437
N   N14       1.0  0.08125  0.25000  0.41875  1.0000 -0.2181955437
N   N15       1.0  0.08125  0.75000  0.58125  1.0000 -0.2181955437
N   N16       1.0  0.91875  0.25000  0.58125  1.0000 -0.2181955437
N   N17       1.0  0.41875  0.91875  0.75000  1.0000 -0.2181955437
N   N18       1.0  0.41875  0.08125  0.25000  1.0000 -0.2181955437
N   N19       1.0  0.58125  0.08125  0.75000  1.0000 -0.2181955437
N   N20       1.0  0.58125  0.91875  0.25000  1.0000 -0.2181955437
N   N21       1.0  0.75000  0.41875  0.91875  1.0000 -0.2181955437
N   N22       1.0  0.25000  0.41875  0.08125  1.0000 -0.2181955437
N   N23       1.0  0.75000  0.58125  0.08125  1.0000 -0.2181955437
N   N24       1.0  0.25000  0.58125  0.91875  1.0000 -0.2181955437
N   N25       1.0  0.25000  0.25000  0.75000  1.0000 -0.2000045283
N   N26       1.0  0.75000  0.75000  0.75000  1.0000 -0.2000045283
N   N27       1.0  0.75000  0.25000  0.25000  1.0000 -0.2000045283
N   N28       1.0  0.25000  0.75000  0.25000  1.0000 -0.2000045283
N   N29       1.0  0.75000  0.75000  0.25000  1.0000 -0.2000045283
N   N30       1.0  0.25000  0.25000  0.25000  1.0000 -0.2000045283
N   N31       1.0  0.25000  0.75000  0.75000  1.0000 -0.2000045283
N   N32       1.0  0.75000  0.25000  0.75000  1.0000 -0.2000045283
