# DDEC6 charges by PACMAN v1.1 (https://github.com/mtap-research/PACMAN-charge/)
data_2022[PbMn][nan]2[ASR]1
_chemical_formula_sum              "Mn2 H12 Pb4 C36 N16 O16"
_cell_length_a       12.3913
_cell_length_b       12.3913
_cell_length_c       19.383
_cell_angle_alpha    57.9452
_cell_angle_beta     122.055
_cell_angle_gamma    147.36

_symmetry_space_group_name_H-M    "P 1"
_symmetry_Int_Tables_number       1

loop_
  _symmetry_equiv_pos_as_xyz
  'x, y, z'

loop_
  _atom_site_type_symbol
  _atom_site_label
  _atom_site_symmetry_multiplicity
  _atom_site_fract_x
  _atom_site_fract_y
  _atom_site_fract_z
  _atom_site_occupancy
  _atom_site_charge
Mn  Mn1       1.0  0.52019  0.52019  0.75000  1.0000 0.8392204391
Mn  Mn2       1.0  0.47981  0.47981  0.25000  1.0000 0.8392204391
H   H1        1.0  0.96090  0.85990  0.33270  1.0000 0.1222955631
H   H2        1.0  0.11510  0.65290  0.35620  1.0000 0.1375095369
H   H3        1.0  0.29380  0.85060  0.54830  1.0000 0.1375095369
H   H4        1.0  0.85990  0.96090  0.16730  1.0000 0.1222955631
H   H5        1.0  0.65290  0.11510  0.14380  1.0000 0.1375095369
H   H6        1.0  0.85060  0.29380  0.95170  1.0000 0.1375095369
H   H7        1.0  0.03910  0.14010  0.66730  1.0000 0.1222955631
H   H8        1.0  0.88490  0.34710  0.64380  1.0000 0.1375095369
H   H9        1.0  0.70620  0.14940  0.45170  1.0000 0.1375095369
H   H10       1.0  0.14010  0.03910  0.83270  1.0000 0.1222955631
H   H11       1.0  0.34710  0.88490  0.85620  1.0000 0.1375095369
H   H12       1.0  0.14940  0.70620  0.04830  1.0000 0.1375095369
Pb  Pb1       1.0  0.70251  0.77267  0.43118  1.0000 0.9932709382
Pb  Pb2       1.0  0.77267  0.70251  0.06882  1.0000 0.9932709382
Pb  Pb3       1.0  0.29749  0.22733  0.56882  1.0000 0.9932709382
Pb  Pb4       1.0  0.22733  0.29749  0.93118  1.0000 0.9932709382
C   C1        1.0  0.13410  0.87390  0.44540  1.0000 -0.0160435653
C   C2        1.0  0.02780  0.83200  0.36500  1.0000 -0.1272252808
C   C3        1.0  0.02090  0.74890  0.33270  1.0000 -0.0140784791
C   C4        1.0  0.11670  0.70530  0.37940  1.0000 -0.1159342854
C   C5        1.0  0.21580  0.73980  0.46120  1.0000 0.0498895822
C   C6        1.0  0.22490  0.82530  0.49320  1.0000 -0.1073641657
C   C7        1.0  0.14490  0.96730  0.47910  1.0000 0.5688413428
C   C8        1.0  0.90960  0.71000  0.24560  1.0000 0.5779422717
C   C9        1.0  0.30380  0.68000  0.51350  1.0000 0.2275490099
C   C10       1.0  0.87390  0.13410  0.05460  1.0000 -0.0160435653
C   C11       1.0  0.83200  0.02780  0.13500  1.0000 -0.1272252808
C   C12       1.0  0.74890  0.02090  0.16730  1.0000 -0.0140784791
C   C13       1.0  0.70530  0.11670  0.12060  1.0000 -0.1159342854
C   C14       1.0  0.73980  0.21580  0.03880  1.0000 0.0498895822
C   C15       1.0  0.82530  0.22490  0.00680  1.0000 -0.1073641657
C   C16       1.0  0.96730  0.14490  0.02090  1.0000 0.5688413428
C   C17       1.0  0.71000  0.90960  0.25440  1.0000 0.5779422717
C   C18       1.0  0.68000  0.30380  0.98650  1.0000 0.2275490099
C   C19       1.0  0.86590  0.12610  0.55460  1.0000 -0.0160435653
C   C20       1.0  0.97220  0.16800  0.63500  1.0000 -0.1272252808
C   C21       1.0  0.97910  0.25110  0.66730  1.0000 -0.0140784791
C   C22       1.0  0.88330  0.29470  0.62060  1.0000 -0.1159342854
C   C23       1.0  0.78420  0.26020  0.53880  1.0000 0.0498895822
C   C24       1.0  0.77510  0.17470  0.50680  1.0000 -0.1073641657
C   C25       1.0  0.85510  0.03270  0.52090  1.0000 0.5688413428
C   C26       1.0  0.09040  0.29000  0.75440  1.0000 0.5779422717
C   C27       1.0  0.69620  0.32000  0.48650  1.0000 0.2275490099
C   C28       1.0  0.12610  0.86590  0.94540  1.0000 -0.0160435653
C   C29       1.0  0.16800  0.97220  0.86500  1.0000 -0.1272252808
C   C30       1.0  0.25110  0.97910  0.83270  1.0000 -0.0140784791
C   C31       1.0  0.29470  0.88330  0.87940  1.0000 -0.1159342854
C   C32       1.0  0.26020  0.78420  0.96120  1.0000 0.0498895822
C   C33       1.0  0.17470  0.77510  0.99320  1.0000 -0.1073641657
C   C34       1.0  0.03270  0.85510  0.97910  1.0000 0.5688413428
C   C35       1.0  0.29000  0.09040  0.74560  1.0000 0.5779422717
C   C36       1.0  0.32000  0.69620  0.01350  1.0000 0.2275490099
N   N1        1.0  0.38004  0.68636  0.59520  1.0000 -0.2684435302
N   N2        1.0  0.44083  0.61657  0.61930  1.0000 -0.0814546393
N   N3        1.0  0.40237  0.56943  0.55570  1.0000 -0.1436403447
N   N4        1.0  0.31680  0.60920  0.48840  1.0000 -0.2684435302
N   N5        1.0  0.68636  0.38004  0.90480  1.0000 -0.264955516
N   N6        1.0  0.61657  0.44083  0.88070  1.0000 -0.0814546393
N   N7        1.0  0.56943  0.40237  0.94430  1.0000 -0.1436403447
N   N8        1.0  0.60920  0.31680  0.01160  1.0000 -0.2684435302
N   N9        1.0  0.61996  0.31364  0.40480  1.0000 -0.2684435302
N   N10       1.0  0.55917  0.38343  0.38070  1.0000 -0.0814546393
N   N11       1.0  0.59763  0.43057  0.44430  1.0000 -0.1436403447
N   N12       1.0  0.68320  0.39080  0.51160  1.0000 -0.2684435302
N   N13       1.0  0.31364  0.61996  0.09520  1.0000 -0.264955516
N   N14       1.0  0.38343  0.55917  0.11930  1.0000 -0.0814546393
N   N15       1.0  0.43057  0.59763  0.05570  1.0000 -0.145137216
N   N16       1.0  0.39080  0.68320  0.98840  1.0000 -0.2684435302
O   O1        1.0  0.07367  0.02513  0.43134  1.0000 -0.5834669425
O   O2        1.0  0.22503  0.98777  0.55372  1.0000 -0.4832648291
O   O3        1.0  0.74949  0.65251  0.21774  1.0000 -0.5713828905
O   O4        1.0  0.98138  0.74262  0.19963  1.0000 -0.4553251419
O   O5        1.0  0.02513  0.07367  0.06866  1.0000 -0.5834669425
O   O6        1.0  0.98777  0.22503  0.94628  1.0000 -0.4832648291
O   O7        1.0  0.65251  0.74949  0.28226  1.0000 -0.5713828905
O   O8        1.0  0.74262  0.98138  0.30037  1.0000 -0.4553251419
O   O9        1.0  0.92633  0.97487  0.56866  1.0000 -0.5834669425
O   O10       1.0  0.77497  0.01223  0.44628  1.0000 -0.4832648291
O   O11       1.0  0.25051  0.34749  0.78226  1.0000 -0.5713828905
O   O12       1.0  0.01862  0.25738  0.80037  1.0000 -0.4553251419
O   O13       1.0  0.97487  0.92633  0.93134  1.0000 -0.5834669425
O   O14       1.0  0.01223  0.77497  0.05372  1.0000 -0.4832648291
O   O15       1.0  0.34749  0.25051  0.71774  1.0000 -0.5713828905
O   O16       1.0  0.25738  0.01862  0.69963  1.0000 -0.4542058064
