# DDEC6 charges by PACMAN v1.1 (https://github.com/mtap-research/PACMAN-charge/)
data_2022[Nd][nan]3[ASR]1
_chemical_formula_sum              "Nd4 H44 C120 N8 O48"
_cell_length_a       21.0316
_cell_length_b       21.0316
_cell_length_c       16.9369
_cell_angle_alpha    87.7876
_cell_angle_beta     92.2124
_cell_angle_gamma    117.22

_symmetry_space_group_name_H-M    "P 1"
_symmetry_Int_Tables_number       1

loop_
  _symmetry_equiv_pos_as_xyz
  'x, y, z'

loop_
  _atom_site_type_symbol
  _atom_site_label
  _atom_site_symmetry_multiplicity
  _atom_site_fract_x
  _atom_site_fract_y
  _atom_site_fract_z
  _atom_site_occupancy
  _atom_site_charge
Nd  Nd1       1.0  0.37929  0.32775  0.14071  1.0000 2.0702196197
Nd  Nd2       1.0  0.32775  0.37929  0.35929  1.0000 2.0702196197
Nd  Nd3       1.0  0.62071  0.67225  0.85929  1.0000 2.0702196197
Nd  Nd4       1.0  0.67225  0.62071  0.64071  1.0000 2.0702196197
H   H1        1.0  0.66537  0.89947  0.35694  1.0000 0.3317104863
H   H2        1.0  0.53122  0.46168  0.92454  1.0000 0.1401384325
H   H3        1.0  0.61094  0.39030  0.75404  1.0000 0.1401384325
H   H4        1.0  0.50882  0.25970  0.93897  1.0000 0.1401384325
H   H5        1.0  0.70517  0.80211  0.55602  1.0000 0.1305620327
H   H6        1.0  0.67260  0.97506  0.50617  1.0000 0.1305620327
H   H7        1.0  0.64188  0.88802  0.72761  1.0000 0.1401384325
H   H8        1.0  0.44453  0.10635  0.66124  1.0000 0.1120927395
H   H9        1.0  0.46990  0.01812  0.61428  1.0000 0.1401384325
H   H10       1.0  0.77598  0.15069  0.78957  1.0000 0.1305620327
H   H11       1.0  0.75275  0.24251  0.84374  1.0000 0.1305620327
H   H12       1.0  0.89947  0.66537  0.14306  1.0000 0.3317104863
H   H13       1.0  0.46168  0.53122  0.57546  1.0000 0.1401384325
H   H14       1.0  0.39030  0.61094  0.74596  1.0000 0.1401384325
H   H15       1.0  0.25970  0.50882  0.56103  1.0000 0.1401384325
H   H16       1.0  0.80211  0.70517  0.94398  1.0000 0.1245068745
H   H17       1.0  0.97506  0.67260  0.99383  1.0000 0.1305620327
H   H18       1.0  0.88802  0.64188  0.77239  1.0000 0.1401384325
H   H19       1.0  0.10635  0.44453  0.83876  1.0000 0.1120927395
H   H20       1.0  0.01812  0.46990  0.88572  1.0000 0.1401384325
H   H21       1.0  0.15069  0.77597  0.71043  1.0000 0.1305620327
H   H22       1.0  0.24251  0.75275  0.65626  1.0000 0.1305620327
H   H23       1.0  0.33463  0.10053  0.64306  1.0000 0.3317104863
H   H24       1.0  0.46878  0.53832  0.07546  1.0000 0.1401384325
H   H25       1.0  0.38906  0.60970  0.24596  1.0000 0.1401384325
H   H26       1.0  0.49118  0.74030  0.06103  1.0000 0.1401384325
H   H27       1.0  0.29483  0.19789  0.44398  1.0000 0.1245068745
H   H28       1.0  0.32740  0.02494  0.49383  1.0000 0.1305620327
H   H29       1.0  0.35812  0.11198  0.27239  1.0000 0.1401384325
H   H30       1.0  0.55547  0.89365  0.33876  1.0000 0.1120927395
H   H31       1.0  0.53010  0.98188  0.38572  1.0000 0.1401384325
H   H32       1.0  0.22403  0.84930  0.21043  1.0000 0.1305620327
H   H33       1.0  0.24725  0.75749  0.15626  1.0000 0.1305620327
H   H34       1.0  0.10053  0.33463  0.85694  1.0000 0.3317104863
H   H35       1.0  0.53832  0.46878  0.42454  1.0000 0.1401384325
H   H36       1.0  0.60970  0.38906  0.25404  1.0000 0.1401384325
H   H37       1.0  0.74030  0.49118  0.43897  1.0000 0.1401384325
H   H38       1.0  0.19789  0.29483  0.05602  1.0000 0.1305620327
H   H39       1.0  0.02494  0.32740  0.00617  1.0000 0.1305620327
H   H40       1.0  0.11198  0.35812  0.22761  1.0000 0.1401384325
H   H41       1.0  0.89365  0.55547  0.16124  1.0000 0.1120927395
H   H42       1.0  0.98188  0.53010  0.11428  1.0000 0.1401384325
H   H43       1.0  0.84930  0.22403  0.28957  1.0000 0.1305620327
H   H44       1.0  0.75749  0.24725  0.34374  1.0000 0.1305620327
C   C1        1.0  0.66510  0.77570  0.70580  1.0000 0.640706821
C   C2        1.0  0.71610  0.89310  0.43590  1.0000 0.5384188579
C   C3        1.0  0.48070  0.35090  0.02210  1.0000 0.5585317151
C   C4        1.0  0.60760  0.50940  0.79210  1.0000 0.6471956657
C   C5        1.0  0.51450  0.35930  0.94310  1.0000 0.011622464
C   C6        1.0  0.53950  0.42490  0.90370  1.0000 -0.102603036
C   C7        1.0  0.57650  0.43750  0.83440  1.0000 -0.0005293909
C   C8        1.0  0.58710  0.38270  0.80270  1.0000 -0.1600097953
C   C9        1.0  0.56280  0.31720  0.84270  1.0000 0.1898908453
C   C10       1.0  0.52610  0.30490  0.91230  1.0000 -0.1524079455
C   C11       1.0  0.67360  0.83620  0.65040  1.0000 -0.008590178
C   C12       1.0  0.69300  0.83760  0.57280  1.0000 -0.092095133
C   C13       1.0  0.69500  0.89000  0.51940  1.0000 -0.0305797373
C   C14       1.0  0.67530  0.94130  0.54330  1.0000 -0.1844372949
C   C15       1.0  0.65970  0.94230  0.62230  1.0000 0.1898908453
C   C16       1.0  0.65610  0.88890  0.67490  1.0000 -0.1600097953
C   C17       1.0  0.52060  0.20940  0.76170  1.0000 0.4385030703
C   C18       1.0  0.53570  0.15230  0.72840  1.0000 -0.0492974555
C   C19       1.0  0.60460  0.15680  0.74580  1.0000 0.0320637762
C   C20       1.0  0.65490  0.20710  0.79430  1.0000 -0.0359944207
C   C21       1.0  0.64070  0.26370  0.83410  1.0000 0.4264149007
C   C22       1.0  0.48750  0.10430  0.67670  1.0000 -0.102603036
C   C23       1.0  0.50350  0.05350  0.64810  1.0000 -0.092095133
C   C24       1.0  0.56690  0.05270  0.66740  1.0000 -0.0492974555
C   C25       1.0  0.61910  0.10230  0.71370  1.0000 0.011622464
C   C26       1.0  0.68400  0.10480  0.73570  1.0000 -0.0305797373
C   C27       1.0  0.73180  0.15160  0.77870  1.0000 -0.0819807401
C   C28       1.0  0.71780  0.20700  0.81110  1.0000 -0.092095133
C   C29       1.0  0.58400  0.99500  0.63100  1.0000 0.4224719899
C   C30       1.0  0.70020  0.04820  0.70130  1.0000 0.4018917369
C   C31       1.0  0.77570  0.66510  0.79420  1.0000 0.640706821
C   C32       1.0  0.89310  0.71610  0.06410  1.0000 0.5384188579
C   C33       1.0  0.35090  0.48070  0.47790  1.0000 0.5585317151
C   C34       1.0  0.50940  0.60760  0.70790  1.0000 0.6471956657
C   C35       1.0  0.35930  0.51450  0.55690  1.0000 0.011622464
C   C36       1.0  0.42490  0.53950  0.59630  1.0000 -0.102603036
C   C37       1.0  0.43750  0.57650  0.66560  1.0000 -0.0005293909
C   C38       1.0  0.38270  0.58710  0.69730  1.0000 -0.1600097953
C   C39       1.0  0.31720  0.56280  0.65730  1.0000 0.1898908453
C   C40       1.0  0.30490  0.52610  0.58770  1.0000 -0.1524079455
C   C41       1.0  0.83620  0.67360  0.84960  1.0000 -0.008590178
C   C42       1.0  0.83760  0.69300  0.92720  1.0000 -0.092095133
C   C43       1.0  0.89000  0.69500  0.98060  1.0000 -0.0305797373
C   C44       1.0  0.94130  0.67530  0.95670  1.0000 -0.1844372949
C   C45       1.0  0.94230  0.65970  0.87770  1.0000 0.1898908453
C   C46       1.0  0.88890  0.65610  0.82510  1.0000 -0.1600097953
C   C47       1.0  0.20940  0.52060  0.73830  1.0000 0.4385030703
C   C48       1.0  0.15230  0.53570  0.77160  1.0000 -0.0552419624
C   C49       1.0  0.15680  0.60460  0.75420  1.0000 0.0320637762
C   C50       1.0  0.20710  0.65490  0.70570  1.0000 -0.0359944207
C   C51       1.0  0.26370  0.64070  0.66590  1.0000 0.4264149007
C   C52       1.0  0.10430  0.48750  0.82330  1.0000 -0.1068395166
C   C53       1.0  0.05350  0.50350  0.85190  1.0000 -0.092095133
C   C54       1.0  0.05270  0.56690  0.83260  1.0000 -0.0492974555
C   C55       1.0  0.10230  0.61910  0.78630  1.0000 0.011622464
C   C56       1.0  0.10480  0.68400  0.76430  1.0000 -0.0305797373
C   C57       1.0  0.15160  0.73180  0.72130  1.0000 -0.0819807401
C   C58       1.0  0.20700  0.71780  0.68890  1.0000 -0.092095133
C   C59       1.0  0.99500  0.58400  0.86900  1.0000 0.4224719899
C   C60       1.0  0.04820  0.70020  0.79870  1.0000 0.4018917369
C   C61       1.0  0.33490  0.22430  0.29420  1.0000 0.640706821
C   C62       1.0  0.28390  0.10690  0.56410  1.0000 0.5384188579
C   C63       1.0  0.51930  0.64910  0.97790  1.0000 0.5585317151
C   C64       1.0  0.39240  0.49060  0.20790  1.0000 0.6471956657
C   C65       1.0  0.48550  0.64070  0.05690  1.0000 0.011622464
C   C66       1.0  0.46050  0.57510  0.09630  1.0000 -0.102603036
C   C67       1.0  0.42350  0.56250  0.16560  1.0000 -0.0005293909
C   C68       1.0  0.41290  0.61730  0.19730  1.0000 -0.1600097953
C   C69       1.0  0.43720  0.68280  0.15730  1.0000 0.1898908453
C   C70       1.0  0.47390  0.69510  0.08770  1.0000 -0.1524079455
C   C71       1.0  0.32640  0.16380  0.34960  1.0000 -0.008590178
C   C72       1.0  0.30700  0.16240  0.42720  1.0000 -0.092095133
C   C73       1.0  0.30500  0.11000  0.48060  1.0000 -0.0359944207
C   C74       1.0  0.32470  0.05870  0.45670  1.0000 -0.1844372949
C   C75       1.0  0.34030  0.05770  0.37770  1.0000 0.1898908453
C   C76       1.0  0.34390  0.11110  0.32510  1.0000 -0.1600097953
C   C77       1.0  0.47940  0.79060  0.23830  1.0000 0.4385030703
C   C78       1.0  0.46430  0.84770  0.27160  1.0000 -0.0492974555
C   C79       1.0  0.39540  0.84320  0.25420  1.0000 0.0320637762
C   C80       1.0  0.34510  0.79290  0.20570  1.0000 -0.0305797373
C   C81       1.0  0.35930  0.73630  0.16590  1.0000 0.4264149007
C   C82       1.0  0.51250  0.89570  0.32330  1.0000 -0.1068395166
C   C83       1.0  0.49650  0.94650  0.35190  1.0000 -0.092095133
C   C84       1.0  0.43310  0.94730  0.33260  1.0000 -0.0492974555
C   C85       1.0  0.38090  0.89770  0.28630  1.0000 0.011622464
C   C86       1.0  0.31600  0.89520  0.26430  1.0000 -0.0305797373
C   C87       1.0  0.26820  0.84840  0.22130  1.0000 -0.0819807401
C   C88       1.0  0.28220  0.79300  0.18890  1.0000 -0.092095133
C   C89       1.0  0.41600  0.00500  0.36900  1.0000 0.4224719899
C   C90       1.0  0.29980  0.95180  0.29870  1.0000 0.4018917369
C   C91       1.0  0.22430  0.33490  0.20580  1.0000 0.640706821
C   C92       1.0  0.10690  0.28390  0.93590  1.0000 0.5384188579
C   C93       1.0  0.64910  0.51930  0.52210  1.0000 0.5585317151
C   C94       1.0  0.49060  0.39240  0.29210  1.0000 0.6471956657
C   C95       1.0  0.64070  0.48550  0.44310  1.0000 0.011622464
C   C96       1.0  0.57510  0.46050  0.40370  1.0000 -0.102603036
C   C97       1.0  0.56250  0.42350  0.33440  1.0000 -0.0005293909
C   C98       1.0  0.61730  0.41290  0.30270  1.0000 -0.1600097953
C   C99       1.0  0.68280  0.43720  0.34270  1.0000 0.1846459346
C   C100      1.0  0.69510  0.47390  0.41230  1.0000 -0.1524079455
C   C101      1.0  0.16380  0.32640  0.15040  1.0000 -0.008590178
C   C102      1.0  0.16240  0.30700  0.07280  1.0000 -0.092095133
C   C103      1.0  0.11000  0.30500  0.01940  1.0000 -0.0359944207
C   C104      1.0  0.05870  0.32470  0.04330  1.0000 -0.1844372949
C   C105      1.0  0.05770  0.34030  0.12230  1.0000 0.1898908453
C   C106      1.0  0.11110  0.34390  0.17490  1.0000 -0.1600097953
C   C107      1.0  0.79060  0.47940  0.26170  1.0000 0.4385030703
C   C108      1.0  0.84770  0.46430  0.22840  1.0000 -0.0492974555
C   C109      1.0  0.84320  0.39540  0.24580  1.0000 0.0320637762
C   C110      1.0  0.79290  0.34510  0.29430  1.0000 -0.0305797373
C   C111      1.0  0.73630  0.35930  0.33410  1.0000 0.4224719899
C   C112      1.0  0.89570  0.51250  0.17670  1.0000 -0.1068395166
C   C113      1.0  0.94650  0.49650  0.14810  1.0000 -0.092095133
C   C114      1.0  0.94730  0.43310  0.16740  1.0000 -0.0492974555
C   C115      1.0  0.89770  0.38090  0.21370  1.0000 0.011622464
C   C116      1.0  0.89520  0.31600  0.23570  1.0000 -0.022260358
C   C117      1.0  0.84840  0.26820  0.27870  1.0000 -0.0819807401
C   C118      1.0  0.79300  0.28220  0.31110  1.0000 -0.092095133
C   C119      1.0  0.00500  0.41600  0.13100  1.0000 0.4224719899
C   C120      1.0  0.95180  0.29980  0.20130  1.0000 0.4018917369
N   N1        1.0  0.57340  0.25820  0.81100  1.0000 -0.2268033091
N   N2        1.0  0.65280  0.00160  0.65280  1.0000 -0.1982845528
N   N3        1.0  0.25820  0.57340  0.68900  1.0000 -0.2268033091
N   N4        1.0  0.00160  0.65280  0.84720  1.0000 -0.1982845528
N   N5        1.0  0.42660  0.74180  0.18900  1.0000 -0.2241482599
N   N6        1.0  0.34720  0.99840  0.34720  1.0000 -0.1982845528
N   N7        1.0  0.74180  0.42660  0.31100  1.0000 -0.2268033091
N   N8        1.0  0.99840  0.34720  0.15280  1.0000 -0.1982845528
O   O1        1.0  0.48360  0.40600  0.05160  1.0000 -0.6114579005
O   O2        1.0  0.44610  0.28850  0.04720  1.0000 -0.621222542
O   O3        1.0  0.60100  0.55740  0.82480  1.0000 -0.6765089496
O   O4        1.0  0.63330  0.51410  0.72360  1.0000 -0.6468179388
O   O5        1.0  0.68030  0.72910  0.68190  1.0000 -0.7174023552
O   O6        1.0  0.63630  0.77210  0.76890  1.0000 -0.6114579005
O   O7        1.0  0.75180  0.86100  0.42260  1.0000 -0.4707835837
O   O8        1.0  0.69820  0.92780  0.38670  1.0000 -0.4707835837
O   O9        1.0  0.46700  0.21380  0.74940  1.0000 -0.406041857
O   O10       1.0  0.68130  0.30770  0.87350  1.0000 -0.3729689582
O   O11       1.0  0.53750  0.94850  0.58540  1.0000 -0.4585897191
O   O12       1.0  0.75400  0.04520  0.70710  1.0000 -0.3309311955
O   O13       1.0  0.40600  0.48360  0.44840  1.0000 -0.6114579005
O   O14       1.0  0.28850  0.44610  0.45280  1.0000 -0.621222542
O   O15       1.0  0.55740  0.60100  0.67520  1.0000 -0.6765089496
O   O16       1.0  0.51410  0.63330  0.77640  1.0000 -0.6468179388
O   O17       1.0  0.72910  0.68030  0.81810  1.0000 -0.7174023552
O   O18       1.0  0.77210  0.63630  0.73110  1.0000 -0.6114579005
O   O19       1.0  0.86100  0.75180  0.07740  1.0000 -0.4585897191
O   O20       1.0  0.92780  0.69820  0.11330  1.0000 -0.4707835837
O   O21       1.0  0.21380  0.46700  0.75060  1.0000 -0.406041857
O   O22       1.0  0.30770  0.68130  0.62650  1.0000 -0.3729689582
O   O23       1.0  0.94850  0.53750  0.91460  1.0000 -0.4585897191
O   O24       1.0  0.04520  0.75400  0.79290  1.0000 -0.3309311955
O   O25       1.0  0.51640  0.59400  0.94840  1.0000 -0.6114579005
O   O26       1.0  0.55390  0.71150  0.95280  1.0000 -0.621222542
O   O27       1.0  0.39900  0.44260  0.17520  1.0000 -0.6765089496
O   O28       1.0  0.36670  0.48590  0.27640  1.0000 -0.6468179388
O   O29       1.0  0.31970  0.27090  0.31810  1.0000 -0.7174023552
O   O30       1.0  0.36370  0.22790  0.23110  1.0000 -0.6114579005
O   O31       1.0  0.24820  0.13900  0.57740  1.0000 -0.4585897191
O   O32       1.0  0.30180  0.07220  0.61330  1.0000 -0.4707835837
O   O33       1.0  0.53300  0.78620  0.25060  1.0000 -0.406041857
O   O34       1.0  0.31870  0.69230  0.12650  1.0000 -0.3729689582
O   O35       1.0  0.46250  0.05150  0.41460  1.0000 -0.4585897191
O   O36       1.0  0.24600  0.95480  0.29290  1.0000 -0.3309311955
O   O37       1.0  0.59400  0.51640  0.55160  1.0000 -0.6114579005
O   O38       1.0  0.71150  0.55390  0.54720  1.0000 -0.6250288053
O   O39       1.0  0.44260  0.39900  0.32480  1.0000 -0.6765089496
O   O40       1.0  0.48590  0.36670  0.22360  1.0000 -0.6468179388
O   O41       1.0  0.27090  0.31970  0.18190  1.0000 -0.7174023552
O   O42       1.0  0.22790  0.36370  0.26890  1.0000 -0.621222542
O   O43       1.0  0.13900  0.24820  0.92260  1.0000 -0.4707835837
O   O44       1.0  0.07220  0.30180  0.88670  1.0000 -0.4585897191
O   O45       1.0  0.78620  0.53300  0.24940  1.0000 -0.4037890001
O   O46       1.0  0.69230  0.31870  0.37350  1.0000 -0.3729689582
O   O47       1.0  0.05150  0.46250  0.08540  1.0000 -0.4585897191
O   O48       1.0  0.95480  0.24600  0.20710  1.0000 -0.3309311955
