# DDEC6 charges by PACMAN v1.1 (https://github.com/mtap-research/PACMAN-charge/)
data_2022[Ni][nan]3[ASR]4
_chemical_formula_sum              "Ni9 H42 C90 O36"
_cell_length_a       18.8639
_cell_length_b       18.8639
_cell_length_c       18.8639
_cell_angle_alpha    113.266
_cell_angle_beta     113.266
_cell_angle_gamma    113.266

_symmetry_space_group_name_H-M    "P 1"
_symmetry_Int_Tables_number       1

loop_
  _symmetry_equiv_pos_as_xyz
  'x, y, z'

loop_
  _atom_site_type_symbol
  _atom_site_label
  _atom_site_symmetry_multiplicity
  _atom_site_fract_x
  _atom_site_fract_y
  _atom_site_fract_z
  _atom_site_occupancy
  _atom_site_charge
Ni  Ni1       1.0  0.88710  0.59489  0.92590  1.0000 0.9144759575
Ni  Ni2       1.0  0.59489  0.92590  0.88710  1.0000 0.9144759575
Ni  Ni3       1.0  0.92590  0.88710  0.59489  1.0000 0.9144759575
Ni  Ni4       1.0  0.11290  0.40511  0.07410  1.0000 0.9158372798
Ni  Ni5       1.0  0.40511  0.07410  0.11290  1.0000 0.9144759575
Ni  Ni6       1.0  0.07410  0.11290  0.40511  1.0000 0.9144759575
Ni  Ni7       1.0  0.00000  0.00000  0.50000  1.0000 1.0028797307
Ni  Ni8       1.0  0.00000  0.50000  0.00000  1.0000 1.0028797307
Ni  Ni9       1.0  0.50000  0.00000  0.00000  1.0000 1.0028797307
H   H1        1.0  0.62030  0.40120  0.85380  1.0000 0.1211087912
H   H2        1.0  0.47290  0.28910  0.81480  1.0000 0.1211087912
H   H3        1.0  0.56550  0.13850  0.85150  1.0000 0.1211087912
H   H4        1.0  0.71200  0.24960  0.88730  1.0000 0.1211087912
H   H5        1.0  0.31160  0.12160  0.70950  1.0000 0.1301014939
H   H6        1.0  0.21200  0.02840  0.83300  1.0000 0.1371089437
H   H7        1.0  0.49450  0.14500  0.93820  1.0000 0.1301014939
H   H8        1.0  0.40120  0.85380  0.62030  1.0000 0.1211087912
H   H9        1.0  0.28910  0.81480  0.47290  1.0000 0.1211087912
H   H10       1.0  0.13850  0.85150  0.56550  1.0000 0.1211087912
H   H11       1.0  0.24960  0.88730  0.71200  1.0000 0.1211087912
H   H12       1.0  0.12160  0.70950  0.31160  1.0000 0.1301014939
H   H13       1.0  0.02840  0.83300  0.21200  1.0000 0.1371089437
H   H14       1.0  0.14500  0.93820  0.49450  1.0000 0.1301014939
H   H15       1.0  0.85380  0.62030  0.40120  1.0000 0.1211087912
H   H16       1.0  0.81480  0.47290  0.28910  1.0000 0.1211087912
H   H17       1.0  0.85150  0.56550  0.13850  1.0000 0.1211087912
H   H18       1.0  0.88730  0.71200  0.24960  1.0000 0.1211087912
H   H19       1.0  0.70950  0.31160  0.12160  1.0000 0.1301014939
H   H20       1.0  0.83300  0.21200  0.02840  1.0000 0.1371089437
H   H21       1.0  0.93820  0.49450  0.14500  1.0000 0.1301014939
H   H22       1.0  0.37970  0.59880  0.14620  1.0000 0.1211087912
H   H23       1.0  0.52710  0.71090  0.18520  1.0000 0.1211087912
H   H24       1.0  0.43450  0.86150  0.14850  1.0000 0.1211087912
H   H25       1.0  0.28800  0.75040  0.11270  1.0000 0.1211087912
H   H26       1.0  0.68840  0.87840  0.29050  1.0000 0.1301014939
H   H27       1.0  0.78800  0.97160  0.16700  1.0000 0.1371089437
H   H28       1.0  0.50550  0.85500  0.06180  1.0000 0.1301014939
H   H29       1.0  0.59880  0.14620  0.37970  1.0000 0.1211087912
H   H30       1.0  0.71090  0.18520  0.52710  1.0000 0.1211087912
H   H31       1.0  0.86150  0.14850  0.43450  1.0000 0.1211087912
H   H32       1.0  0.75040  0.11270  0.28800  1.0000 0.1211087912
H   H33       1.0  0.87840  0.29050  0.68840  1.0000 0.1301014939
H   H34       1.0  0.97160  0.16700  0.78800  1.0000 0.1371089437
H   H35       1.0  0.85500  0.06180  0.50550  1.0000 0.1301014939
H   H36       1.0  0.14620  0.37970  0.59880  1.0000 0.1211087912
H   H37       1.0  0.18520  0.52710  0.71090  1.0000 0.1211087912
H   H38       1.0  0.14850  0.43450  0.86150  1.0000 0.1211087912
H   H39       1.0  0.11270  0.28800  0.75040  1.0000 0.1211087912
H   H40       1.0  0.29050  0.68840  0.87840  1.0000 0.1301014939
H   H41       1.0  0.16700  0.78800  0.97160  1.0000 0.1371089437
H   H42       1.0  0.06180  0.50550  0.85500  1.0000 0.1301014939
C   C1        1.0  0.78326  0.41854  0.91140  1.0000 0.5903347087
C   C2        1.0  0.68420  0.33975  0.87865  1.0000 -0.025924782
C   C3        1.0  0.61005  0.34915  0.85460  1.0000 -0.0995713404
C   C4        1.0  0.52199  0.28252  0.83199  1.0000 -0.1492335554
C   C5        1.0  0.50560  0.20472  0.83468  1.0000 0.0788801157
C   C6        1.0  0.57704  0.19220  0.85346  1.0000 -0.1367594494
C   C7        1.0  0.66500  0.25908  0.87502  1.0000 -0.0888116887
C   C8        1.0  0.41826  0.14497  0.82637  1.0000 0.0641646801
C   C9        1.0  0.32279  0.11267  0.75674  1.0000 -0.1492335554
C   C10       1.0  0.24506  0.06752  0.75782  1.0000 -0.0166313691
C   C11       1.0  0.26291  0.05617  0.83022  1.0000 -0.1185066929
C   C12       1.0  0.35623  0.08609  0.89778  1.0000 -0.011306998
C   C13       1.0  0.43319  0.12818  0.89483  1.0000 -0.1367594494
C   C14       1.0  0.14068  0.02835  0.68147  1.0000 0.5903347087
C   C15       1.0  0.37366  0.07808  0.97716  1.0000 0.5903347087
C   C16       1.0  0.41854  0.91140  0.78326  1.0000 0.5903347087
C   C17       1.0  0.33975  0.87865  0.68420  1.0000 -0.025924782
C   C18       1.0  0.34915  0.85460  0.61005  1.0000 -0.0995713404
C   C19       1.0  0.28252  0.83199  0.52199  1.0000 -0.1492335554
C   C20       1.0  0.20472  0.83468  0.50560  1.0000 0.0788801157
C   C21       1.0  0.19220  0.85346  0.57704  1.0000 -0.1367594494
C   C22       1.0  0.25908  0.87502  0.66500  1.0000 -0.0888116887
C   C23       1.0  0.14497  0.82637  0.41826  1.0000 0.0641646801
C   C24       1.0  0.11267  0.75674  0.32279  1.0000 -0.1492335554
C   C25       1.0  0.06752  0.75782  0.24506  1.0000 -0.0166313691
C   C26       1.0  0.05617  0.83022  0.26291  1.0000 -0.1185066929
C   C27       1.0  0.08609  0.89778  0.35623  1.0000 -0.011306998
C   C28       1.0  0.12818  0.89483  0.43319  1.0000 -0.1367594494
C   C29       1.0  0.02835  0.68147  0.14068  1.0000 0.5903347087
C   C30       1.0  0.07808  0.97716  0.37366  1.0000 0.5903347087
C   C31       1.0  0.91140  0.78326  0.41854  1.0000 0.5903347087
C   C32       1.0  0.87865  0.68420  0.33975  1.0000 -0.025924782
C   C33       1.0  0.85460  0.61005  0.34915  1.0000 -0.0995713404
C   C34       1.0  0.83199  0.52199  0.28252  1.0000 -0.1492335554
C   C35       1.0  0.83468  0.50560  0.20472  1.0000 0.0788801157
C   C36       1.0  0.85346  0.57704  0.19220  1.0000 -0.1367594494
C   C37       1.0  0.87502  0.66500  0.25908  1.0000 -0.0888116887
C   C38       1.0  0.82637  0.41826  0.14497  1.0000 0.0641646801
C   C39       1.0  0.75674  0.32279  0.11267  1.0000 -0.1492335554
C   C40       1.0  0.75782  0.24506  0.06752  1.0000 -0.0166313691
C   C41       1.0  0.83022  0.26291  0.05617  1.0000 -0.1185066929
C   C42       1.0  0.89778  0.35623  0.08609  1.0000 -0.011306998
C   C43       1.0  0.89483  0.43319  0.12818  1.0000 -0.1367594494
C   C44       1.0  0.68147  0.14068  0.02835  1.0000 0.5903347087
C   C45       1.0  0.97716  0.37366  0.07808  1.0000 0.5903347087
C   C46       1.0  0.21674  0.58146  0.08860  1.0000 0.5903347087
C   C47       1.0  0.31580  0.66025  0.12135  1.0000 -0.025924782
C   C48       1.0  0.38995  0.65085  0.14540  1.0000 -0.0995713404
C   C49       1.0  0.47801  0.71748  0.16801  1.0000 -0.1492335554
C   C50       1.0  0.49440  0.79528  0.16532  1.0000 0.0788801157
C   C51       1.0  0.42296  0.80780  0.14654  1.0000 -0.1367594494
C   C52       1.0  0.33500  0.74092  0.12498  1.0000 -0.0888116887
C   C53       1.0  0.58174  0.85503  0.17363  1.0000 0.0641646801
C   C54       1.0  0.67721  0.88733  0.24326  1.0000 -0.1492335554
C   C55       1.0  0.75494  0.93248  0.24218  1.0000 -0.0166313691
C   C56       1.0  0.73709  0.94383  0.16978  1.0000 -0.1185066929
C   C57       1.0  0.64377  0.91391  0.10222  1.0000 -0.011306998
C   C58       1.0  0.56681  0.87182  0.10517  1.0000 -0.1367594494
C   C59       1.0  0.85932  0.97165  0.31853  1.0000 0.5903347087
C   C60       1.0  0.62634  0.92192  0.02284  1.0000 0.5903347087
C   C61       1.0  0.58146  0.08860  0.21674  1.0000 0.5903347087
C   C62       1.0  0.66025  0.12135  0.31580  1.0000 -0.025924782
C   C63       1.0  0.65085  0.14540  0.38995  1.0000 -0.0995713404
C   C64       1.0  0.71748  0.16801  0.47801  1.0000 -0.1492335554
C   C65       1.0  0.79528  0.16532  0.49440  1.0000 0.0788801157
C   C66       1.0  0.80780  0.14654  0.42296  1.0000 -0.1367594494
C   C67       1.0  0.74092  0.12498  0.33500  1.0000 -0.0888116887
C   C68       1.0  0.85503  0.17363  0.58174  1.0000 0.0641646801
C   C69       1.0  0.88733  0.24326  0.67721  1.0000 -0.1492335554
C   C70       1.0  0.93248  0.24218  0.75494  1.0000 -0.0166313691
C   C71       1.0  0.94383  0.16978  0.73709  1.0000 -0.1185066929
C   C72       1.0  0.91391  0.10222  0.64377  1.0000 -0.011306998
C   C73       1.0  0.87182  0.10517  0.56681  1.0000 -0.1367594494
C   C74       1.0  0.97165  0.31853  0.85932  1.0000 0.5903347087
C   C75       1.0  0.92192  0.02284  0.62634  1.0000 0.5903347087
C   C76       1.0  0.08860  0.21674  0.58146  1.0000 0.5903347087
C   C77       1.0  0.12135  0.31580  0.66025  1.0000 -0.025924782
C   C78       1.0  0.14540  0.38995  0.65085  1.0000 -0.0995713404
C   C79       1.0  0.16801  0.47801  0.71748  1.0000 -0.1492335554
C   C80       1.0  0.16532  0.49440  0.79528  1.0000 0.0788801157
C   C81       1.0  0.14654  0.42296  0.80780  1.0000 -0.1367594494
C   C82       1.0  0.12498  0.33500  0.74092  1.0000 -0.0888116887
C   C83       1.0  0.17363  0.58174  0.85503  1.0000 0.0641646801
C   C84       1.0  0.24326  0.67721  0.88733  1.0000 -0.1492335554
C   C85       1.0  0.24218  0.75494  0.93248  1.0000 -0.0166313691
C   C86       1.0  0.16978  0.73709  0.94383  1.0000 -0.1185066929
C   C87       1.0  0.10222  0.64377  0.91391  1.0000 -0.011306998
C   C88       1.0  0.10517  0.56681  0.87182  1.0000 -0.1367594494
C   C89       1.0  0.31853  0.85932  0.97165  1.0000 0.5903347087
C   C90       1.0  0.02284  0.62634  0.92192  1.0000 0.5903347087
O   O1        1.0  0.79339  0.49328  0.92163  1.0000 -0.5728873592
O   O2        1.0  0.84586  0.40563  0.92618  1.0000 -0.5407196463
O   O3        1.0  0.12419  0.03525  0.61420  1.0000 -0.5407196463
O   O4        1.0  0.07861  0.99143  0.69337  1.0000 -0.5480732601
O   O5        1.0  0.31875  0.07335  0.00014  1.0000 -0.5039125762
O   O6        1.0  0.44670  0.08133  0.02594  1.0000 -0.5728873592
O   O7        1.0  0.49328  0.92163  0.79339  1.0000 -0.5728873592
O   O8        1.0  0.40563  0.92618  0.84586  1.0000 -0.5407196463
O   O9        1.0  0.03525  0.61420  0.12419  1.0000 -0.5407196463
O   O10       1.0  0.99143  0.69337  0.07861  1.0000 -0.5480732601
O   O11       1.0  0.07335  0.00014  0.31875  1.0000 -0.5039125762
O   O12       1.0  0.08133  0.02594  0.44670  1.0000 -0.5728873592
O   O13       1.0  0.92163  0.79339  0.49328  1.0000 -0.5728873592
O   O14       1.0  0.92618  0.84586  0.40563  1.0000 -0.5407196463
O   O15       1.0  0.61420  0.12419  0.03525  1.0000 -0.5407196463
O   O16       1.0  0.69337  0.07861  0.99143  1.0000 -0.5480732601
O   O17       1.0  0.00014  0.31875  0.07335  1.0000 -0.5039125762
O   O18       1.0  0.02594  0.44670  0.08133  1.0000 -0.5728873592
O   O19       1.0  0.20661  0.50672  0.07837  1.0000 -0.5728873592
O   O20       1.0  0.15414  0.59437  0.07382  1.0000 -0.5407196463
O   O21       1.0  0.87581  0.96475  0.38580  1.0000 -0.5407196463
O   O22       1.0  0.92139  0.00857  0.30663  1.0000 -0.5480732601
O   O23       1.0  0.68125  0.92665  0.99986  1.0000 -0.5039125762
O   O24       1.0  0.55330  0.91867  0.97406  1.0000 -0.5728873592
O   O25       1.0  0.50672  0.07837  0.20661  1.0000 -0.5728873592
O   O26       1.0  0.59437  0.07382  0.15414  1.0000 -0.5407196463
O   O27       1.0  0.96475  0.38580  0.87581  1.0000 -0.5407196463
O   O28       1.0  0.00857  0.30663  0.92139  1.0000 -0.5480732601
O   O29       1.0  0.92665  0.99986  0.68125  1.0000 -0.5039125762
O   O30       1.0  0.91867  0.97406  0.55330  1.0000 -0.5728873592
O   O31       1.0  0.07837  0.20661  0.50672  1.0000 -0.5728873592
O   O32       1.0  0.07382  0.15414  0.59437  1.0000 -0.5407196463
O   O33       1.0  0.38580  0.87581  0.96475  1.0000 -0.5407196463
O   O34       1.0  0.30663  0.92139  0.00857  1.0000 -0.5480732601
O   O35       1.0  0.99986  0.68125  0.92665  1.0000 -0.5039125762
O   O36       1.0  0.97406  0.55330  0.91867  1.0000 -0.5728873592
