# DDEC6 charges by PACMAN v1.1 (https://github.com/mtap-research/PACMAN-charge/)
data_2022[ZnPb][nan]2[ASR]1
_chemical_formula_sum              "Zn2 H12 Pb4 C36 N16 O16"
_cell_length_a       12.3409
_cell_length_b       12.3409
_cell_length_c       19.4032
_cell_angle_alpha    57.1726
_cell_angle_beta     122.827
_cell_angle_gamma    147.392

_symmetry_space_group_name_H-M    "P 1"
_symmetry_Int_Tables_number       1

loop_
  _symmetry_equiv_pos_as_xyz
  'x, y, z'

loop_
  _atom_site_type_symbol
  _atom_site_label
  _atom_site_symmetry_multiplicity
  _atom_site_fract_x
  _atom_site_fract_y
  _atom_site_fract_z
  _atom_site_occupancy
  _atom_site_charge
Zn  Zn1       1.0  0.51795  0.51795  0.75000  1.0000 0.7232063331
Zn  Zn2       1.0  0.48205  0.48205  0.25000  1.0000 0.7232063331
H   H1        1.0  0.97130  0.87150  0.33250  1.0000 0.1224424087
H   H2        1.0  0.29990  0.85210  0.55320  1.0000 0.1367874064
H   H3        1.0  0.12080  0.65360  0.36220  1.0000 0.1367874064
H   H4        1.0  0.87150  0.97130  0.16750  1.0000 0.1224424087
H   H5        1.0  0.85210  0.29990  0.94680  1.0000 0.1367874064
H   H6        1.0  0.65360  0.12080  0.13780  1.0000 0.1367874064
H   H7        1.0  0.02870  0.12850  0.66750  1.0000 0.1224424087
H   H8        1.0  0.70010  0.14790  0.44680  1.0000 0.1367874064
H   H9        1.0  0.87920  0.34640  0.63780  1.0000 0.1367874064
H   H10       1.0  0.12850  0.02870  0.83250  1.0000 0.1224424087
H   H11       1.0  0.14790  0.70010  0.05320  1.0000 0.1367874064
H   H12       1.0  0.34640  0.87920  0.86220  1.0000 0.1367874064
Pb  Pb1       1.0  0.70505  0.77565  0.42842  1.0000 0.9794622578
Pb  Pb2       1.0  0.77565  0.70505  0.07158  1.0000 0.9794622578
Pb  Pb3       1.0  0.29495  0.22435  0.57158  1.0000 0.9794622578
Pb  Pb4       1.0  0.22435  0.29495  0.92842  1.0000 0.9794622578
C   C1        1.0  0.02810  0.75490  0.33430  1.0000 -0.0182357446
C   C2        1.0  0.03640  0.84020  0.36610  1.0000 -0.118845795
C   C3        1.0  0.14000  0.87920  0.44680  1.0000 -0.0182357446
C   C4        1.0  0.23150  0.82790  0.49760  1.0000 -0.1093470722
C   C5        1.0  0.22160  0.74060  0.46600  1.0000 0.0426807117
C   C6        1.0  0.12340  0.70820  0.38440  1.0000 -0.1093470722
C   C7        1.0  0.91440  0.71400  0.24780  1.0000 0.5710026093
C   C8        1.0  0.15050  0.97250  0.48070  1.0000 0.5642584332
C   C9        1.0  0.30730  0.67670  0.52000  1.0000 0.2357810505
C   C10       1.0  0.75490  0.02810  0.16570  1.0000 -0.0182357446
C   C11       1.0  0.84020  0.03640  0.13390  1.0000 -0.118845795
C   C12       1.0  0.87920  0.14000  0.05320  1.0000 -0.0182357446
C   C13       1.0  0.82790  0.23150  0.00240  1.0000 -0.1093470722
C   C14       1.0  0.74060  0.22160  0.03400  1.0000 0.0426807117
C   C15       1.0  0.70820  0.12340  0.11560  1.0000 -0.1093470722
C   C16       1.0  0.71400  0.91440  0.25220  1.0000 0.5710026093
C   C17       1.0  0.97250  0.15050  0.01930  1.0000 0.5642584332
C   C18       1.0  0.67670  0.30730  0.98000  1.0000 0.2357810505
C   C19       1.0  0.97190  0.24510  0.66570  1.0000 -0.0182357446
C   C20       1.0  0.96360  0.15980  0.63390  1.0000 -0.118845795
C   C21       1.0  0.86000  0.12080  0.55320  1.0000 -0.0182357446
C   C22       1.0  0.76850  0.17210  0.50240  1.0000 -0.1093470722
C   C23       1.0  0.77840  0.25940  0.53400  1.0000 0.0426807117
C   C24       1.0  0.87660  0.29180  0.61560  1.0000 -0.1093470722
C   C25       1.0  0.08560  0.28600  0.75220  1.0000 0.5710026093
C   C26       1.0  0.84950  0.02750  0.51930  1.0000 0.5642584332
C   C27       1.0  0.69270  0.32330  0.48000  1.0000 0.2347347208
C   C28       1.0  0.24510  0.97190  0.83430  1.0000 -0.0182357446
C   C29       1.0  0.15980  0.96360  0.86610  1.0000 -0.118845795
C   C30       1.0  0.12080  0.86000  0.94680  1.0000 -0.0182357446
C   C31       1.0  0.17210  0.76850  0.99760  1.0000 -0.1093470722
C   C32       1.0  0.25940  0.77840  0.96600  1.0000 0.0426807117
C   C33       1.0  0.29180  0.87660  0.88440  1.0000 -0.1093470722
C   C34       1.0  0.28600  0.08560  0.74780  1.0000 0.5710026093
C   C35       1.0  0.02750  0.84950  0.98070  1.0000 0.5642584332
C   C36       1.0  0.32330  0.69270  0.02000  1.0000 0.2357810505
N   N1        1.0  0.37880  0.67780  0.60150  1.0000 -0.2586430393
N   N2        1.0  0.43540  0.60200  0.62770  1.0000 -0.0553894646
N   N3        1.0  0.40170  0.56090  0.56310  1.0000 -0.1299160652
N   N4        1.0  0.31910  0.60590  0.49410  1.0000 -0.2683591179
N   N5        1.0  0.67780  0.37880  0.89850  1.0000 -0.2586430393
N   N6        1.0  0.60200  0.43540  0.87230  1.0000 -0.0553894646
N   N7        1.0  0.56090  0.40170  0.93690  1.0000 -0.1299160652
N   N8        1.0  0.60590  0.31910  0.00590  1.0000 -0.2683591179
N   N9        1.0  0.62120  0.32220  0.39850  1.0000 -0.2586430393
N   N10       1.0  0.56460  0.39800  0.37230  1.0000 -0.0553894646
N   N11       1.0  0.59830  0.43910  0.43690  1.0000 -0.1299160652
N   N12       1.0  0.68090  0.39410  0.50590  1.0000 -0.2683591179
N   N13       1.0  0.32220  0.62120  0.10150  1.0000 -0.2586430393
N   N14       1.0  0.39800  0.56460  0.12770  1.0000 -0.0553894646
N   N15       1.0  0.43910  0.59830  0.06310  1.0000 -0.1299160652
N   N16       1.0  0.39410  0.68090  0.99410  1.0000 -0.2683591179
O   O1        1.0  0.98640  0.74400  0.20330  1.0000 -0.4569502852
O   O2        1.0  0.75490  0.65810  0.21880  1.0000 -0.5546666167
O   O3        1.0  0.08010  0.03130  0.43160  1.0000 -0.5692495189
O   O4        1.0  0.22720  0.98820  0.55600  1.0000 -0.4833583317
O   O5        1.0  0.74400  0.98640  0.29670  1.0000 -0.4569502852
O   O6        1.0  0.65810  0.75490  0.28120  1.0000 -0.5546666167
O   O7        1.0  0.03130  0.08010  0.06840  1.0000 -0.5692495189
O   O8        1.0  0.98820  0.22720  0.94400  1.0000 -0.4833583317
O   O9        1.0  0.01360  0.25600  0.79670  1.0000 -0.4569502852
O   O10       1.0  0.24510  0.34190  0.78120  1.0000 -0.5546666167
O   O11       1.0  0.91990  0.96870  0.56840  1.0000 -0.5692495189
O   O12       1.0  0.77280  0.01180  0.44400  1.0000 -0.4833583317
O   O13       1.0  0.25600  0.01360  0.70330  1.0000 -0.4569502852
O   O14       1.0  0.34190  0.24510  0.71880  1.0000 -0.5546666167
O   O15       1.0  0.96870  0.91990  0.93160  1.0000 -0.5692495189
O   O16       1.0  0.01180  0.77280  0.05600  1.0000 -0.4833583317
