# DDEC6 charges by PACMAN v1.1 (https://github.com/mtap-research/PACMAN-charge/)
data_2022[Sc][fmz]3[ASR]1
_chemical_formula_sum              "Sc18 H132 C252 O78"
_cell_length_a       29.7212
_cell_length_b       29.7212
_cell_length_c       29.7212
_cell_angle_alpha    54.8472
_cell_angle_beta     54.8472
_cell_angle_gamma    54.8472

_symmetry_space_group_name_H-M    "P 1"
_symmetry_Int_Tables_number       1

loop_
  _symmetry_equiv_pos_as_xyz
  'x, y, z'

loop_
  _atom_site_type_symbol
  _atom_site_label
  _atom_site_symmetry_multiplicity
  _atom_site_fract_x
  _atom_site_fract_y
  _atom_site_fract_z
  _atom_site_occupancy
  _atom_site_charge
Sc  Sc1       1.0  0.69807  0.22052  0.36639  1.0000 1.7862770889
Sc  Sc2       1.0  0.36639  0.69807  0.22052  1.0000 1.7862770889
Sc  Sc3       1.0  0.22052  0.36639  0.69807  1.0000 1.7862770889
Sc  Sc4       1.0  0.27948  0.80193  0.13361  1.0000 1.7862770889
Sc  Sc5       1.0  0.80193  0.13361  0.27948  1.0000 1.7862770889
Sc  Sc6       1.0  0.13361  0.27948  0.80193  1.0000 1.7862770889
Sc  Sc7       1.0  0.30193  0.77948  0.63361  1.0000 1.7862770889
Sc  Sc8       1.0  0.63361  0.30193  0.77948  1.0000 1.7862770889
Sc  Sc9       1.0  0.77948  0.63361  0.30193  1.0000 1.7862770889
Sc  Sc10      1.0  0.72052  0.19807  0.86639  1.0000 1.7862770889
Sc  Sc11      1.0  0.19807  0.86639  0.72052  1.0000 1.7862770889
Sc  Sc12      1.0  0.86639  0.72052  0.19807  1.0000 1.7862770889
Sc  Sc13      1.0  0.75000  0.06767  0.43233  1.0000 1.7690639629
Sc  Sc14      1.0  0.43233  0.75000  0.06767  1.0000 1.7690639629
Sc  Sc15      1.0  0.06767  0.43233  0.75000  1.0000 1.7690639629
Sc  Sc16      1.0  0.25000  0.93233  0.56767  1.0000 1.7690639629
Sc  Sc17      1.0  0.56767  0.25000  0.93233  1.0000 1.7690639629
Sc  Sc18      1.0  0.93233  0.56767  0.25000  1.0000 1.7690639629
H   H1        1.0  0.69440  0.21700  0.17630  1.0000 0.1188199583
H   H2        1.0  0.58360  0.37810  0.10620  1.0000 0.0989158822
H   H3        1.0  0.52360  0.42130  0.25110  1.0000 0.1081425656
H   H4        1.0  0.61970  0.34820  0.23440  1.0000 0.1188199583
H   H5        1.0  0.73170  0.22580  0.07380  1.0000 0.1081425656
H   H6        1.0  0.58500  0.47120  0.07380  1.0000 0.1081425656
H   H7        1.0  0.55660  0.31380  0.10930  1.0000 0.1081425656
H   H8        1.0  0.56380  0.28990  0.04440  1.0000 0.1188199583
H   H9        1.0  0.46690  0.52100  0.24020  1.0000 0.1188199583
H   H10       1.0  0.53250  0.56990  0.06270  1.0000 0.1188199583
H   H11       1.0  0.73850  0.20670  0.00300  1.0000 0.1188199583
H   H12       1.0  0.17630  0.69440  0.21700  1.0000 0.1188199583
H   H13       1.0  0.10620  0.58360  0.37810  1.0000 0.0989158822
H   H14       1.0  0.25110  0.52360  0.42130  1.0000 0.1081425656
H   H15       1.0  0.23440  0.61970  0.34820  1.0000 0.1188199583
H   H16       1.0  0.07380  0.73170  0.22580  1.0000 0.1081425656
H   H17       1.0  0.07380  0.58500  0.47120  1.0000 0.1081425656
H   H18       1.0  0.10930  0.55660  0.31380  1.0000 0.1081425656
H   H19       1.0  0.04440  0.56380  0.28990  1.0000 0.1188199583
H   H20       1.0  0.24020  0.46690  0.52100  1.0000 0.1188199583
H   H21       1.0  0.06270  0.53250  0.56990  1.0000 0.1188199583
H   H22       1.0  0.00300  0.73850  0.20670  1.0000 0.1188199583
H   H23       1.0  0.21700  0.17630  0.69440  1.0000 0.1188199583
H   H24       1.0  0.37810  0.10620  0.58360  1.0000 0.0989158822
H   H25       1.0  0.42130  0.25110  0.52360  1.0000 0.1081425656
H   H26       1.0  0.34820  0.23440  0.61970  1.0000 0.1188199583
H   H27       1.0  0.22580  0.07380  0.73170  1.0000 0.1081425656
H   H28       1.0  0.47120  0.07380  0.58500  1.0000 0.1081425656
H   H29       1.0  0.31380  0.10930  0.55660  1.0000 0.1081425656
H   H30       1.0  0.28990  0.04440  0.56380  1.0000 0.1188199583
H   H31       1.0  0.52100  0.24020  0.46690  1.0000 0.1188199583
H   H32       1.0  0.56990  0.06270  0.53250  1.0000 0.1188199583
H   H33       1.0  0.20670  0.00300  0.73850  1.0000 0.1188199583
H   H34       1.0  0.28300  0.80560  0.32370  1.0000 0.1188199583
H   H35       1.0  0.12190  0.91640  0.39380  1.0000 0.0989158822
H   H36       1.0  0.07870  0.97640  0.24890  1.0000 0.1081425656
H   H37       1.0  0.15180  0.88030  0.26560  1.0000 0.1188199583
H   H38       1.0  0.27420  0.76830  0.42620  1.0000 0.1081425656
H   H39       1.0  0.02880  0.91500  0.42620  1.0000 0.1081425656
H   H40       1.0  0.18620  0.94340  0.39070  1.0000 0.1081425656
H   H41       1.0  0.21010  0.93620  0.45560  1.0000 0.1188199583
H   H42       1.0  0.97900  0.03310  0.25980  1.0000 0.1188199583
H   H43       1.0  0.93010  0.96750  0.43730  1.0000 0.1188199583
H   H44       1.0  0.29330  0.76150  0.49700  1.0000 0.1188199583
H   H45       1.0  0.80560  0.32370  0.28300  1.0000 0.1188199583
H   H46       1.0  0.91640  0.39380  0.12190  1.0000 0.0989158822
H   H47       1.0  0.97640  0.24890  0.07870  1.0000 0.1081425656
H   H48       1.0  0.88030  0.26560  0.15180  1.0000 0.1188199583
H   H49       1.0  0.76830  0.42620  0.27420  1.0000 0.1081425656
H   H50       1.0  0.91500  0.42620  0.02880  1.0000 0.1081425656
H   H51       1.0  0.94340  0.39070  0.18620  1.0000 0.1081425656
H   H52       1.0  0.93620  0.45560  0.21010  1.0000 0.1188199583
H   H53       1.0  0.03310  0.25980  0.97900  1.0000 0.1188199583
H   H54       1.0  0.96750  0.43730  0.93010  1.0000 0.1188199583
H   H55       1.0  0.76150  0.49700  0.29330  1.0000 0.1188199583
H   H56       1.0  0.32370  0.28300  0.80560  1.0000 0.1188199583
H   H57       1.0  0.39380  0.12190  0.91640  1.0000 0.0989158822
H   H58       1.0  0.24890  0.07870  0.97640  1.0000 0.1081425656
H   H59       1.0  0.26560  0.15180  0.88030  1.0000 0.1188199583
H   H60       1.0  0.42620  0.27420  0.76830  1.0000 0.1081425656
H   H61       1.0  0.42620  0.02880  0.91500  1.0000 0.1081425656
H   H62       1.0  0.39070  0.18620  0.94340  1.0000 0.1081425656
H   H63       1.0  0.45560  0.21010  0.93620  1.0000 0.1188199583
H   H64       1.0  0.25980  0.97900  0.03310  1.0000 0.1188199583
H   H65       1.0  0.43730  0.93010  0.96750  1.0000 0.1188199583
H   H66       1.0  0.49700  0.29330  0.76150  1.0000 0.1188199583
H   H67       1.0  0.30560  0.78300  0.82370  1.0000 0.1188199583
H   H68       1.0  0.41640  0.62190  0.89380  1.0000 0.0989158822
H   H69       1.0  0.47640  0.57870  0.74890  1.0000 0.1081425656
H   H70       1.0  0.38030  0.65180  0.76560  1.0000 0.1188199583
H   H71       1.0  0.26830  0.77420  0.92620  1.0000 0.1081425656
H   H72       1.0  0.41500  0.52880  0.92620  1.0000 0.1081425656
H   H73       1.0  0.44340  0.68620  0.89070  1.0000 0.1081425656
H   H74       1.0  0.43620  0.71010  0.95560  1.0000 0.1188199583
H   H75       1.0  0.53310  0.47900  0.75980  1.0000 0.1188199583
H   H76       1.0  0.46750  0.43010  0.93730  1.0000 0.1188199583
H   H77       1.0  0.26150  0.79330  0.99700  1.0000 0.1188199583
H   H78       1.0  0.82370  0.30560  0.78300  1.0000 0.1188199583
H   H79       1.0  0.89380  0.41640  0.62190  1.0000 0.0989158822
H   H80       1.0  0.74890  0.47640  0.57870  1.0000 0.1081425656
H   H81       1.0  0.76560  0.38030  0.65180  1.0000 0.1188199583
H   H82       1.0  0.92620  0.26830  0.77420  1.0000 0.1081425656
H   H83       1.0  0.92620  0.41500  0.52880  1.0000 0.1081425656
H   H84       1.0  0.89070  0.44340  0.68620  1.0000 0.1081425656
H   H85       1.0  0.95560  0.43620  0.71010  1.0000 0.1188199583
H   H86       1.0  0.75980  0.53310  0.47900  1.0000 0.1188199583
H   H87       1.0  0.93730  0.46750  0.43010  1.0000 0.1188199583
H   H88       1.0  0.99700  0.26150  0.79330  1.0000 0.1188199583
H   H89       1.0  0.78300  0.82370  0.30560  1.0000 0.1188199583
H   H90       1.0  0.62190  0.89380  0.41640  1.0000 0.0989158822
H   H91       1.0  0.57870  0.74890  0.47640  1.0000 0.1081425656
H   H92       1.0  0.65180  0.76560  0.38030  1.0000 0.1188199583
H   H93       1.0  0.77420  0.92620  0.26830  1.0000 0.1081425656
H   H94       1.0  0.52880  0.92620  0.41500  1.0000 0.1081425656
H   H95       1.0  0.68620  0.89070  0.44340  1.0000 0.1081425656
H   H96       1.0  0.71010  0.95560  0.43620  1.0000 0.1188199583
H   H97       1.0  0.47900  0.75980  0.53310  1.0000 0.1188199583
H   H98       1.0  0.43010  0.93730  0.46750  1.0000 0.1188199583
H   H99       1.0  0.79330  0.99700  0.26150  1.0000 0.1188199583
H   H100      1.0  0.71700  0.19440  0.67630  1.0000 0.1188199583
H   H101      1.0  0.87810  0.08360  0.60620  1.0000 0.0989158822
H   H102      1.0  0.92130  0.02360  0.75110  1.0000 0.1081425656
H   H103      1.0  0.84820  0.11970  0.73440  1.0000 0.1188199583
H   H104      1.0  0.72580  0.23170  0.57380  1.0000 0.1081425656
H   H105      1.0  0.97120  0.08500  0.57380  1.0000 0.1081425656
H   H106      1.0  0.81380  0.05660  0.60930  1.0000 0.1081425656
H   H107      1.0  0.78990  0.06380  0.54440  1.0000 0.1188199583
H   H108      1.0  0.02100  0.96690  0.74020  1.0000 0.1188199583
H   H109      1.0  0.06990  0.03250  0.56270  1.0000 0.1188199583
H   H110      1.0  0.70670  0.23850  0.50300  1.0000 0.1188199583
H   H111      1.0  0.19440  0.67630  0.71700  1.0000 0.1188199583
H   H112      1.0  0.08360  0.60620  0.87810  1.0000 0.0989158822
H   H113      1.0  0.02360  0.75110  0.92130  1.0000 0.1081425656
H   H114      1.0  0.11970  0.73440  0.84820  1.0000 0.1188199583
H   H115      1.0  0.23170  0.57380  0.72580  1.0000 0.1081425656
H   H116      1.0  0.08500  0.57380  0.97120  1.0000 0.1081425656
H   H117      1.0  0.05660  0.60930  0.81380  1.0000 0.1081425656
H   H118      1.0  0.06380  0.54440  0.78990  1.0000 0.1188199583
H   H119      1.0  0.96690  0.74020  0.02100  1.0000 0.1188199583
H   H120      1.0  0.03250  0.56270  0.06990  1.0000 0.1188199583
H   H121      1.0  0.23850  0.50300  0.70670  1.0000 0.1188199583
H   H122      1.0  0.67630  0.71700  0.19440  1.0000 0.1188199583
H   H123      1.0  0.60620  0.87810  0.08360  1.0000 0.0989158822
H   H124      1.0  0.75110  0.92130  0.02360  1.0000 0.1081425656
H   H125      1.0  0.73440  0.84820  0.11970  1.0000 0.1188199583
H   H126      1.0  0.57380  0.72580  0.23170  1.0000 0.1081425656
H   H127      1.0  0.57380  0.97120  0.08500  1.0000 0.1081425656
H   H128      1.0  0.60930  0.81380  0.05660  1.0000 0.1081425656
H   H129      1.0  0.54440  0.78990  0.06380  1.0000 0.1188199583
H   H130      1.0  0.74020  0.02100  0.96690  1.0000 0.1188199583
H   H131      1.0  0.56270  0.06990  0.03250  1.0000 0.1188199583
H   H132      1.0  0.50300  0.70670  0.23850  1.0000 0.1188199583
C   C1        1.0  0.66922  0.25642  0.17442  1.0000 -0.1697093164
C   C2        1.0  0.66102  0.27812  0.21132  1.0000 -0.0434590066
C   C3        1.0  0.60389  0.35229  0.13299  1.0000 -0.1888695101
C   C4        1.0  0.63909  0.29509  0.13489  1.0000 0.0598284276
C   C5        1.0  0.69263  0.23823  0.25233  1.0000 0.6246458624
C   C6        1.0  0.56061  0.43701  0.16271  1.0000 0.0756230016
C   C7        1.0  0.59668  0.37408  0.16758  1.0000 0.0598284276
C   C8        1.0  0.52525  0.45125  0.21305  1.0000 -0.1697093164
C   C9        1.0  0.62532  0.33492  0.20852  1.0000 -0.1697093164
C   C10       1.0  0.69741  0.24091  0.06661  1.0000 -0.1587340938
C   C11       1.0  0.56173  0.48153  0.10783  1.0000 -0.1587340938
C   C12       1.0  0.64490  0.27530  0.09580  1.0000 0.0675779839
C   C13       1.0  0.59422  0.29192  0.08762  1.0000 -0.1587340938
C   C14       1.0  0.59841  0.27731  0.04971  1.0000 -0.0885450703
C   C15       1.0  0.49221  0.51051  0.20621  1.0000 -0.080269343
C   C16       1.0  0.53019  0.54019  0.10099  1.0000 -0.080269343
C   C17       1.0  0.65121  0.24521  0.01881  1.0000 -0.0603743373
C   C18       1.0  0.70112  0.22772  0.02572  1.0000 -0.0885450703
C   C19       1.0  0.49555  0.55515  0.14995  1.0000 -0.080269343
C   C20       1.0  0.46066  0.61696  0.14526  1.0000 0.629344129
C   C21       1.0  0.65410  0.23290  0.97570  1.0000 0.629344129
C   C22       1.0  0.17442  0.66922  0.25642  1.0000 -0.1697093164
C   C23       1.0  0.21132  0.66102  0.27812  1.0000 -0.0434590066
C   C24       1.0  0.13299  0.60389  0.35229  1.0000 -0.1888695101
C   C25       1.0  0.13489  0.63909  0.29509  1.0000 0.0598284276
C   C26       1.0  0.25233  0.69263  0.23823  1.0000 0.6246458624
C   C27       1.0  0.16271  0.56061  0.43701  1.0000 0.0756230016
C   C28       1.0  0.16758  0.59668  0.37408  1.0000 0.0598284276
C   C29       1.0  0.21305  0.52525  0.45125  1.0000 -0.1697093164
C   C30       1.0  0.20852  0.62532  0.33492  1.0000 -0.1697093164
C   C31       1.0  0.06661  0.69741  0.24091  1.0000 -0.1587340938
C   C32       1.0  0.10783  0.56173  0.48153  1.0000 -0.1587340938
C   C33       1.0  0.09580  0.64490  0.27530  1.0000 0.0675779839
C   C34       1.0  0.08762  0.59422  0.29192  1.0000 -0.1587340938
C   C35       1.0  0.04971  0.59841  0.27731  1.0000 -0.0885450703
C   C36       1.0  0.20621  0.49221  0.51051  1.0000 -0.080269343
C   C37       1.0  0.10099  0.53019  0.54019  1.0000 -0.080269343
C   C38       1.0  0.01881  0.65121  0.24521  1.0000 -0.0603743373
C   C39       1.0  0.02572  0.70112  0.22772  1.0000 -0.0885450703
C   C40       1.0  0.14995  0.49555  0.55515  1.0000 -0.080269343
C   C41       1.0  0.14526  0.46066  0.61696  1.0000 0.629344129
C   C42       1.0  0.97570  0.65410  0.23290  1.0000 0.629344129
C   C43       1.0  0.25642  0.17442  0.66922  1.0000 -0.1697093164
C   C44       1.0  0.27812  0.21132  0.66102  1.0000 -0.0434590066
C   C45       1.0  0.35229  0.13299  0.60389  1.0000 -0.1888695101
C   C46       1.0  0.29509  0.13489  0.63909  1.0000 0.0598284276
C   C47       1.0  0.23823  0.25233  0.69263  1.0000 0.6246458624
C   C48       1.0  0.43701  0.16271  0.56061  1.0000 0.0756230016
C   C49       1.0  0.37408  0.16758  0.59668  1.0000 0.0598284276
C   C50       1.0  0.45125  0.21305  0.52525  1.0000 -0.1697093164
C   C51       1.0  0.33492  0.20852  0.62532  1.0000 -0.1697093164
C   C52       1.0  0.24091  0.06661  0.69741  1.0000 -0.1587340938
C   C53       1.0  0.48153  0.10783  0.56173  1.0000 -0.1587340938
C   C54       1.0  0.27530  0.09580  0.64490  1.0000 0.0675779839
C   C55       1.0  0.29192  0.08762  0.59422  1.0000 -0.1587340938
C   C56       1.0  0.27731  0.04971  0.59841  1.0000 -0.0885450703
C   C57       1.0  0.51051  0.20621  0.49221  1.0000 -0.080269343
C   C58       1.0  0.54019  0.10099  0.53019  1.0000 -0.080269343
C   C59       1.0  0.24521  0.01881  0.65121  1.0000 -0.0603743373
C   C60       1.0  0.22772  0.02572  0.70112  1.0000 -0.0885450703
C   C61       1.0  0.55515  0.14995  0.49555  1.0000 -0.080269343
C   C62       1.0  0.61696  0.14526  0.46066  1.0000 0.629344129
C   C63       1.0  0.23290  0.97570  0.65410  1.0000 0.629344129
C   C64       1.0  0.24358  0.83078  0.32558  1.0000 -0.1697093164
C   C65       1.0  0.22188  0.83898  0.28868  1.0000 -0.0434590066
C   C66       1.0  0.14771  0.89611  0.36701  1.0000 -0.1888695101
C   C67       1.0  0.20491  0.86091  0.36511  1.0000 0.0598284276
C   C68       1.0  0.26177  0.80737  0.24767  1.0000 0.6246458624
C   C69       1.0  0.06299  0.93939  0.33729  1.0000 0.0756230016
C   C70       1.0  0.12592  0.90332  0.33242  1.0000 0.0598284276
C   C71       1.0  0.04875  0.97475  0.28695  1.0000 -0.1697093164
C   C72       1.0  0.16508  0.87468  0.29148  1.0000 -0.1697093164
C   C73       1.0  0.25909  0.80259  0.43339  1.0000 -0.1587340938
C   C74       1.0  0.01847  0.93827  0.39217  1.0000 -0.1587340938
C   C75       1.0  0.22470  0.85510  0.40420  1.0000 0.0675779839
C   C76       1.0  0.20808  0.90578  0.41238  1.0000 -0.1587340938
C   C77       1.0  0.22269  0.90159  0.45029  1.0000 -0.0885450703
C   C78       1.0  0.98949  0.00779  0.29379  1.0000 -0.080269343
C   C79       1.0  0.95981  0.96981  0.39901  1.0000 -0.080269343
C   C80       1.0  0.25479  0.84879  0.48119  1.0000 -0.0603743373
C   C81       1.0  0.27228  0.79888  0.47428  1.0000 -0.0885450703
C   C82       1.0  0.94485  0.00445  0.35005  1.0000 -0.080269343
C   C83       1.0  0.88304  0.03934  0.35474  1.0000 0.629344129
C   C84       1.0  0.26710  0.84590  0.52430  1.0000 0.629344129
C   C85       1.0  0.83078  0.32558  0.24358  1.0000 -0.1697093164
C   C86       1.0  0.83898  0.28868  0.22188  1.0000 -0.0434590066
C   C87       1.0  0.89611  0.36701  0.14771  1.0000 -0.1888695101
C   C88       1.0  0.86091  0.36511  0.20491  1.0000 0.0598284276
C   C89       1.0  0.80737  0.24767  0.26177  1.0000 0.6246458624
C   C90       1.0  0.93939  0.33729  0.06299  1.0000 0.0756230016
C   C91       1.0  0.90332  0.33242  0.12592  1.0000 0.0598284276
C   C92       1.0  0.97475  0.28695  0.04875  1.0000 -0.1697093164
C   C93       1.0  0.87468  0.29148  0.16508  1.0000 -0.1697093164
C   C94       1.0  0.80259  0.43339  0.25909  1.0000 -0.1587340938
C   C95       1.0  0.93827  0.39217  0.01847  1.0000 -0.1587340938
C   C96       1.0  0.85510  0.40420  0.22470  1.0000 0.0675779839
C   C97       1.0  0.90578  0.41238  0.20808  1.0000 -0.1587340938
C   C98       1.0  0.90159  0.45029  0.22269  1.0000 -0.0885450703
C   C99       1.0  0.00779  0.29379  0.98949  1.0000 -0.080269343
C   C100      1.0  0.96981  0.39901  0.95981  1.0000 -0.080269343
C   C101      1.0  0.84879  0.48119  0.25479  1.0000 -0.0603743373
C   C102      1.0  0.79888  0.47428  0.27228  1.0000 -0.0885450703
C   C103      1.0  0.00445  0.35005  0.94485  1.0000 -0.080269343
C   C104      1.0  0.03934  0.35474  0.88304  1.0000 0.629344129
C   C105      1.0  0.84590  0.52430  0.26710  1.0000 0.629344129
C   C106      1.0  0.32558  0.24358  0.83078  1.0000 -0.1697093164
C   C107      1.0  0.28868  0.22188  0.83898  1.0000 -0.0434590066
C   C108      1.0  0.36701  0.14771  0.89611  1.0000 -0.1888695101
C   C109      1.0  0.36511  0.20491  0.86091  1.0000 0.0598284276
C   C110      1.0  0.24767  0.26177  0.80737  1.0000 0.6246458624
C   C111      1.0  0.33729  0.06299  0.93939  1.0000 0.0756230016
C   C112      1.0  0.33242  0.12592  0.90332  1.0000 0.0598284276
C   C113      1.0  0.28695  0.04875  0.97475  1.0000 -0.1697093164
C   C114      1.0  0.29148  0.16508  0.87468  1.0000 -0.1697093164
C   C115      1.0  0.43339  0.25909  0.80259  1.0000 -0.1587340938
C   C116      1.0  0.39217  0.01847  0.93827  1.0000 -0.1587340938
C   C117      1.0  0.40420  0.22470  0.85510  1.0000 0.0675779839
C   C118      1.0  0.41238  0.20808  0.90578  1.0000 -0.1587340938
C   C119      1.0  0.45029  0.22269  0.90159  1.0000 -0.0885450703
C   C120      1.0  0.29379  0.98949  0.00779  1.0000 -0.080269343
C   C121      1.0  0.39901  0.95981  0.96981  1.0000 -0.080269343
C   C122      1.0  0.48119  0.25479  0.84879  1.0000 -0.0603743373
C   C123      1.0  0.47428  0.27228  0.79888  1.0000 -0.0885450703
C   C124      1.0  0.35005  0.94485  0.00445  1.0000 -0.080269343
C   C125      1.0  0.35474  0.88304  0.03934  1.0000 0.629344129
C   C126      1.0  0.52430  0.26710  0.84590  1.0000 0.629344129
C   C127      1.0  0.33078  0.74358  0.82558  1.0000 -0.1697093164
C   C128      1.0  0.33898  0.72188  0.78868  1.0000 -0.0434590066
C   C129      1.0  0.39611  0.64771  0.86701  1.0000 -0.1888695101
C   C130      1.0  0.36091  0.70491  0.86511  1.0000 0.0598284276
C   C131      1.0  0.30737  0.76177  0.74767  1.0000 0.6246458624
C   C132      1.0  0.43939  0.56299  0.83729  1.0000 0.0756230016
C   C133      1.0  0.40332  0.62592  0.83242  1.0000 0.0598284276
C   C134      1.0  0.47475  0.54875  0.78695  1.0000 -0.1697093164
C   C135      1.0  0.37468  0.66508  0.79148  1.0000 -0.1697093164
C   C136      1.0  0.30259  0.75909  0.93339  1.0000 -0.1587340938
C   C137      1.0  0.43827  0.51847  0.89217  1.0000 -0.1587340938
C   C138      1.0  0.35510  0.72470  0.90420  1.0000 0.0675779839
C   C139      1.0  0.40578  0.70808  0.91238  1.0000 -0.1587340938
C   C140      1.0  0.40159  0.72269  0.95029  1.0000 -0.0885450703
C   C141      1.0  0.50779  0.48949  0.79379  1.0000 -0.080269343
C   C142      1.0  0.46981  0.45981  0.89901  1.0000 -0.080269343
C   C143      1.0  0.34879  0.75479  0.98119  1.0000 -0.0603743373
C   C144      1.0  0.29888  0.77228  0.97428  1.0000 -0.0885450703
C   C145      1.0  0.50445  0.44485  0.85005  1.0000 -0.080269343
C   C146      1.0  0.53934  0.38304  0.85474  1.0000 0.629344129
C   C147      1.0  0.34590  0.76710  0.02430  1.0000 0.629344129
C   C148      1.0  0.82558  0.33078  0.74358  1.0000 -0.1697093164
C   C149      1.0  0.78868  0.33898  0.72188  1.0000 -0.0434590066
C   C150      1.0  0.86701  0.39611  0.64771  1.0000 -0.1888695101
C   C151      1.0  0.86511  0.36091  0.70491  1.0000 0.0598284276
C   C152      1.0  0.74767  0.30737  0.76177  1.0000 0.6246458624
C   C153      1.0  0.83729  0.43939  0.56299  1.0000 0.0756230016
C   C154      1.0  0.83242  0.40332  0.62592  1.0000 0.0598284276
C   C155      1.0  0.78695  0.47475  0.54875  1.0000 -0.1697093164
C   C156      1.0  0.79148  0.37468  0.66508  1.0000 -0.1697093164
C   C157      1.0  0.93339  0.30259  0.75909  1.0000 -0.1587340938
C   C158      1.0  0.89217  0.43827  0.51847  1.0000 -0.1587340938
C   C159      1.0  0.90420  0.35510  0.72470  1.0000 0.0675779839
C   C160      1.0  0.91238  0.40578  0.70808  1.0000 -0.1587340938
C   C161      1.0  0.95029  0.40159  0.72269  1.0000 -0.0885450703
C   C162      1.0  0.79379  0.50779  0.48949  1.0000 -0.080269343
C   C163      1.0  0.89901  0.46981  0.45981  1.0000 -0.080269343
C   C164      1.0  0.98119  0.34879  0.75479  1.0000 -0.0603743373
C   C165      1.0  0.97428  0.29888  0.77228  1.0000 -0.0885450703
C   C166      1.0  0.85005  0.50445  0.44485  1.0000 -0.080269343
C   C167      1.0  0.85474  0.53934  0.38304  1.0000 0.629344129
C   C168      1.0  0.02430  0.34590  0.76710  1.0000 0.629344129
C   C169      1.0  0.74358  0.82558  0.33078  1.0000 -0.1697093164
C   C170      1.0  0.72188  0.78868  0.33898  1.0000 -0.0434590066
C   C171      1.0  0.64771  0.86701  0.39611  1.0000 -0.1888695101
C   C172      1.0  0.70491  0.86511  0.36091  1.0000 0.0598284276
C   C173      1.0  0.76177  0.74767  0.30737  1.0000 0.6246458624
C   C174      1.0  0.56299  0.83729  0.43939  1.0000 0.0756230016
C   C175      1.0  0.62592  0.83242  0.40332  1.0000 0.0598284276
C   C176      1.0  0.54875  0.78695  0.47475  1.0000 -0.1697093164
C   C177      1.0  0.66508  0.79148  0.37468  1.0000 -0.1697093164
C   C178      1.0  0.75909  0.93339  0.30259  1.0000 -0.1587340938
C   C179      1.0  0.51847  0.89217  0.43827  1.0000 -0.1587340938
C   C180      1.0  0.72470  0.90420  0.35510  1.0000 0.0675779839
C   C181      1.0  0.70808  0.91238  0.40578  1.0000 -0.1587340938
C   C182      1.0  0.72269  0.95029  0.40159  1.0000 -0.0885450703
C   C183      1.0  0.48949  0.79379  0.50779  1.0000 -0.080269343
C   C184      1.0  0.45981  0.89901  0.46981  1.0000 -0.080269343
C   C185      1.0  0.75479  0.98119  0.34879  1.0000 -0.0603743373
C   C186      1.0  0.77228  0.97428  0.29888  1.0000 -0.0885450703
C   C187      1.0  0.44485  0.85005  0.50445  1.0000 -0.080269343
C   C188      1.0  0.38304  0.85474  0.53934  1.0000 0.629344129
C   C189      1.0  0.76710  0.02430  0.34590  1.0000 0.629344129
C   C190      1.0  0.75642  0.16922  0.67442  1.0000 -0.1697093164
C   C191      1.0  0.77812  0.16102  0.71132  1.0000 -0.0434590066
C   C192      1.0  0.85229  0.10389  0.63299  1.0000 -0.1888695101
C   C193      1.0  0.79509  0.13909  0.63489  1.0000 0.0598284276
C   C194      1.0  0.73823  0.19263  0.75233  1.0000 0.6246458624
C   C195      1.0  0.93701  0.06061  0.66271  1.0000 0.0756230016
C   C196      1.0  0.87408  0.09668  0.66758  1.0000 0.0598284276
C   C197      1.0  0.95125  0.02525  0.71305  1.0000 -0.1697093164
C   C198      1.0  0.83492  0.12532  0.70852  1.0000 -0.1697093164
C   C199      1.0  0.74091  0.19741  0.56661  1.0000 -0.1587340938
C   C200      1.0  0.98153  0.06173  0.60783  1.0000 -0.1587340938
C   C201      1.0  0.77530  0.14490  0.59580  1.0000 0.0675779839
C   C202      1.0  0.79192  0.09422  0.58762  1.0000 -0.1587340938
C   C203      1.0  0.77731  0.09841  0.54971  1.0000 -0.0885450703
C   C204      1.0  0.01051  0.99221  0.70621  1.0000 -0.080269343
C   C205      1.0  0.04019  0.03019  0.60099  1.0000 -0.080269343
C   C206      1.0  0.74521  0.15121  0.51881  1.0000 -0.0603743373
C   C207      1.0  0.72772  0.20112  0.52572  1.0000 -0.0885450703
C   C208      1.0  0.05515  0.99555  0.64995  1.0000 -0.080269343
C   C209      1.0  0.11696  0.96066  0.64526  1.0000 0.629344129
C   C210      1.0  0.73290  0.15410  0.47570  1.0000 0.629344129
C   C211      1.0  0.16922  0.67442  0.75642  1.0000 -0.1697093164
C   C212      1.0  0.16102  0.71132  0.77812  1.0000 -0.0434590066
C   C213      1.0  0.10389  0.63299  0.85229  1.0000 -0.1888695101
C   C214      1.0  0.13909  0.63489  0.79509  1.0000 0.0598284276
C   C215      1.0  0.19263  0.75233  0.73823  1.0000 0.6246458624
C   C216      1.0  0.06061  0.66271  0.93701  1.0000 0.0756230016
C   C217      1.0  0.09668  0.66758  0.87408  1.0000 0.0598284276
C   C218      1.0  0.02525  0.71305  0.95125  1.0000 -0.1697093164
C   C219      1.0  0.12532  0.70852  0.83492  1.0000 -0.1697093164
C   C220      1.0  0.19741  0.56661  0.74091  1.0000 -0.1587340938
C   C221      1.0  0.06173  0.60783  0.98153  1.0000 -0.1587340938
C   C222      1.0  0.14490  0.59580  0.77530  1.0000 0.0675779839
C   C223      1.0  0.09422  0.58762  0.79192  1.0000 -0.1587340938
C   C224      1.0  0.09841  0.54971  0.77731  1.0000 -0.0885450703
C   C225      1.0  0.99221  0.70621  0.01051  1.0000 -0.080269343
C   C226      1.0  0.03019  0.60099  0.04019  1.0000 -0.080269343
C   C227      1.0  0.15121  0.51881  0.74521  1.0000 -0.0603743373
C   C228      1.0  0.20112  0.52572  0.72772  1.0000 -0.0885450703
C   C229      1.0  0.99555  0.64995  0.05515  1.0000 -0.080269343
C   C230      1.0  0.96066  0.64526  0.11696  1.0000 0.629344129
C   C231      1.0  0.15410  0.47570  0.73290  1.0000 0.629344129
C   C232      1.0  0.67442  0.75642  0.16922  1.0000 -0.1697093164
C   C233      1.0  0.71132  0.77812  0.16102  1.0000 -0.0434590066
C   C234      1.0  0.63299  0.85229  0.10389  1.0000 -0.1888695101
C   C235      1.0  0.63489  0.79509  0.13909  1.0000 0.0598284276
C   C236      1.0  0.75233  0.73823  0.19263  1.0000 0.6246458624
C   C237      1.0  0.66271  0.93701  0.06061  1.0000 0.0756230016
C   C238      1.0  0.66758  0.87408  0.09668  1.0000 0.0598284276
C   C239      1.0  0.71305  0.95125  0.02525  1.0000 -0.1697093164
C   C240      1.0  0.70852  0.83492  0.12532  1.0000 -0.1697093164
C   C241      1.0  0.56661  0.74091  0.19741  1.0000 -0.1587340938
C   C242      1.0  0.60783  0.98153  0.06173  1.0000 -0.1587340938
C   C243      1.0  0.59580  0.77530  0.14490  1.0000 0.0675779839
C   C244      1.0  0.58762  0.79192  0.09422  1.0000 -0.1587340938
C   C245      1.0  0.54971  0.77731  0.09841  1.0000 -0.0885450703
C   C246      1.0  0.70621  0.01051  0.99221  1.0000 -0.080269343
C   C247      1.0  0.60099  0.04019  0.03019  1.0000 -0.080269343
C   C248      1.0  0.51881  0.74521  0.15121  1.0000 -0.0603743373
C   C249      1.0  0.52572  0.72772  0.20112  1.0000 -0.0885450703
C   C250      1.0  0.64995  0.05515  0.99555  1.0000 -0.080269343
C   C251      1.0  0.64526  0.11696  0.96066  1.0000 0.629344129
C   C252      1.0  0.47570  0.73290  0.15410  1.0000 0.629344129
O   O1        1.0  0.42657  0.62727  0.19277  1.0000 -0.6473387065
O   O2        1.0  0.73180  0.19030  0.24750  1.0000 -0.6041683669
O   O3        1.0  0.67744  0.25437  0.29230  1.0000 -0.6473387065
O   O4        1.0  0.70226  0.21415  0.93807  1.0000 -0.6084986692
O   O5        1.0  0.46647  0.65557  0.09607  1.0000 -0.5859977122
O   O6        1.0  0.60522  0.24262  0.97862  1.0000 -0.6473387065
O   O7        1.0  0.19277  0.42657  0.62727  1.0000 -0.6473387065
O   O8        1.0  0.24750  0.73180  0.19030  1.0000 -0.6041683669
O   O9        1.0  0.29230  0.67744  0.25437  1.0000 -0.6473387065
O   O10       1.0  0.93807  0.70226  0.21415  1.0000 -0.6084986692
O   O11       1.0  0.09607  0.46647  0.65557  1.0000 -0.5859977122
O   O12       1.0  0.97862  0.60522  0.24262  1.0000 -0.6473387065
O   O13       1.0  0.62727  0.19277  0.42657  1.0000 -0.6473387065
O   O14       1.0  0.19030  0.24750  0.73180  1.0000 -0.6041683669
O   O15       1.0  0.25437  0.29230  0.67744  1.0000 -0.6473387065
O   O16       1.0  0.21415  0.93807  0.70226  1.0000 -0.6084986692
O   O17       1.0  0.65557  0.09607  0.46647  1.0000 -0.5859977122
O   O18       1.0  0.24262  0.97862  0.60522  1.0000 -0.6473387065
O   O19       1.0  0.87273  0.07343  0.30723  1.0000 -0.6473387065
O   O20       1.0  0.30970  0.76820  0.25250  1.0000 -0.6041683669
O   O21       1.0  0.24563  0.82256  0.20770  1.0000 -0.6473387065
O   O22       1.0  0.28585  0.79774  0.56193  1.0000 -0.6084986692
O   O23       1.0  0.84443  0.03353  0.40393  1.0000 -0.5859977122
O   O24       1.0  0.25738  0.89478  0.52138  1.0000 -0.6473387065
O   O25       1.0  0.07343  0.30723  0.87273  1.0000 -0.6473387065
O   O26       1.0  0.76820  0.25250  0.30970  1.0000 -0.6041683669
O   O27       1.0  0.82256  0.20770  0.24563  1.0000 -0.6473387065
O   O28       1.0  0.79774  0.56193  0.28585  1.0000 -0.6084986692
O   O29       1.0  0.03353  0.40393  0.84443  1.0000 -0.5859977122
O   O30       1.0  0.89478  0.52138  0.25738  1.0000 -0.6473387065
O   O31       1.0  0.30723  0.87273  0.07343  1.0000 -0.6473387065
O   O32       1.0  0.25250  0.30970  0.76820  1.0000 -0.6041683669
O   O33       1.0  0.20770  0.24563  0.82256  1.0000 -0.6473387065
O   O34       1.0  0.56193  0.28585  0.79774  1.0000 -0.6084986692
O   O35       1.0  0.40393  0.84443  0.03353  1.0000 -0.5859977122
O   O36       1.0  0.52138  0.25738  0.89478  1.0000 -0.6473387065
O   O37       1.0  0.57343  0.37273  0.80723  1.0000 -0.6473387065
O   O38       1.0  0.26820  0.80970  0.75250  1.0000 -0.6041683669
O   O39       1.0  0.32256  0.74563  0.70770  1.0000 -0.6473387065
O   O40       1.0  0.29774  0.78585  0.06193  1.0000 -0.6084986692
O   O41       1.0  0.53353  0.34443  0.90393  1.0000 -0.5859977122
O   O42       1.0  0.39478  0.75738  0.02138  1.0000 -0.6473387065
O   O43       1.0  0.80723  0.57343  0.37273  1.0000 -0.6473387065
O   O44       1.0  0.75250  0.26820  0.80970  1.0000 -0.6041683669
O   O45       1.0  0.70770  0.32256  0.74563  1.0000 -0.6473387065
O   O46       1.0  0.06193  0.29774  0.78585  1.0000 -0.6084986692
O   O47       1.0  0.90393  0.53353  0.34443  1.0000 -0.5859977122
O   O48       1.0  0.02138  0.39478  0.75738  1.0000 -0.6473387065
O   O49       1.0  0.37273  0.80723  0.57343  1.0000 -0.6473387065
O   O50       1.0  0.80970  0.75250  0.26820  1.0000 -0.6041683669
O   O51       1.0  0.74563  0.70770  0.32256  1.0000 -0.6473387065
O   O52       1.0  0.78585  0.06193  0.29774  1.0000 -0.6084986692
O   O53       1.0  0.34443  0.90393  0.53353  1.0000 -0.5859977122
O   O54       1.0  0.75738  0.02138  0.39478  1.0000 -0.6473387065
O   O55       1.0  0.12727  0.92657  0.69277  1.0000 -0.6473387065
O   O56       1.0  0.69030  0.23180  0.74750  1.0000 -0.6041683669
O   O57       1.0  0.75437  0.17744  0.79230  1.0000 -0.6473387065
O   O58       1.0  0.71415  0.20226  0.43807  1.0000 -0.6084986692
O   O59       1.0  0.15557  0.96647  0.59607  1.0000 -0.5859977122
O   O60       1.0  0.74262  0.10522  0.47862  1.0000 -0.6473387065
O   O61       1.0  0.92657  0.69277  0.12727  1.0000 -0.6473387065
O   O62       1.0  0.23180  0.74750  0.69030  1.0000 -0.6041683669
O   O63       1.0  0.17744  0.79230  0.75437  1.0000 -0.6473387065
O   O64       1.0  0.20226  0.43807  0.71415  1.0000 -0.6084986692
O   O65       1.0  0.96647  0.59607  0.15557  1.0000 -0.5859977122
O   O66       1.0  0.10522  0.47862  0.74262  1.0000 -0.6473387065
O   O67       1.0  0.69277  0.12727  0.92657  1.0000 -0.6473387065
O   O68       1.0  0.74750  0.69030  0.23180  1.0000 -0.6041683669
O   O69       1.0  0.79230  0.75437  0.17744  1.0000 -0.6473387065
O   O70       1.0  0.43807  0.71415  0.20226  1.0000 -0.6084986692
O   O71       1.0  0.59607  0.15557  0.96647  1.0000 -0.5859977122
O   O72       1.0  0.47862  0.74262  0.10522  1.0000 -0.6473387065
O   O73       1.0  0.75000  0.14060  0.35940  1.0000 -1.2495896086
O   O74       1.0  0.35940  0.75000  0.14060  1.0000 -1.2495896086
O   O75       1.0  0.14060  0.35940  0.75000  1.0000 -1.2495896086
O   O76       1.0  0.25000  0.85940  0.64060  1.0000 -1.2495896086
O   O77       1.0  0.64060  0.25000  0.85940  1.0000 -1.2495896086
O   O78       1.0  0.85940  0.64060  0.25000  1.0000 -1.2495896086
