# DDEC6 charges by PACMAN v1.1 (https://github.com/mtap-research/PACMAN-charge/)
data_2022[Cu][tbo]3[ASR]10
_chemical_formula_sum              "Cu12 H24 C72 O48"
_cell_length_a       18.5792
_cell_length_b       18.5792
_cell_length_c       18.5792
_cell_angle_alpha    60
_cell_angle_beta     60
_cell_angle_gamma    60

_symmetry_space_group_name_H-M    "P 1"
_symmetry_Int_Tables_number       1

loop_
  _symmetry_equiv_pos_as_xyz
  'x, y, z'

loop_
  _atom_site_type_symbol
  _atom_site_label
  _atom_site_symmetry_multiplicity
  _atom_site_fract_x
  _atom_site_fract_y
  _atom_site_fract_z
  _atom_site_occupancy
  _atom_site_charge
Cu  Cu1       1.0  0.57032  0.00000  0.42968  1.0000 0.8556844369
Cu  Cu2       1.0  0.00000  0.57032  0.00000  1.0000 0.8556844369
Cu  Cu3       1.0  0.42968  0.00000  0.57032  1.0000 0.8556844369
Cu  Cu4       1.0  0.00000  0.42968  0.00000  1.0000 0.8556844369
Cu  Cu5       1.0  0.42968  0.57032  0.00000  1.0000 0.8556844369
Cu  Cu6       1.0  0.00000  0.00000  0.57032  1.0000 0.8556844369
Cu  Cu7       1.0  0.57032  0.42968  0.00000  1.0000 0.8556844369
Cu  Cu8       1.0  0.00000  0.00000  0.42968  1.0000 0.8556844369
Cu  Cu9       1.0  0.00000  0.42968  0.57032  1.0000 0.8556844369
Cu  Cu10      1.0  0.57032  0.00000  0.00000  1.0000 0.8556844369
Cu  Cu11      1.0  0.00000  0.57032  0.42968  1.0000 0.8556844369
Cu  Cu12      1.0  0.42968  0.00000  0.00000  1.0000 0.8556844369
H   H1        1.0  0.51189  0.03053  0.72879  1.0000 0.1379983798
H   H2        1.0  0.03053  0.51189  0.72879  1.0000 0.1379983798
H   H3        1.0  0.72879  0.72879  0.51189  1.0000 0.1379983798
H   H4        1.0  0.72879  0.72879  0.03053  1.0000 0.1379983798
H   H5        1.0  0.72879  0.51189  0.03053  1.0000 0.1379983798
H   H6        1.0  0.72879  0.03053  0.51189  1.0000 0.1379983798
H   H7        1.0  0.51189  0.72879  0.72879  1.0000 0.1379983798
H   H8        1.0  0.03053  0.72879  0.72879  1.0000 0.1379983798
H   H9        1.0  0.03053  0.72879  0.51189  1.0000 0.1379983798
H   H10       1.0  0.51189  0.72879  0.03053  1.0000 0.1379983798
H   H11       1.0  0.72879  0.51189  0.72879  1.0000 0.1379983798
H   H12       1.0  0.72879  0.03053  0.72879  1.0000 0.1379983798
H   H13       1.0  0.48811  0.96947  0.27121  1.0000 0.1379983798
H   H14       1.0  0.96947  0.48811  0.27121  1.0000 0.1379983798
H   H15       1.0  0.27121  0.27121  0.96947  1.0000 0.1379983798
H   H16       1.0  0.27121  0.27121  0.48811  1.0000 0.1379983798
H   H17       1.0  0.27121  0.48811  0.27121  1.0000 0.1379983798
H   H18       1.0  0.27121  0.96947  0.27121  1.0000 0.1379983798
H   H19       1.0  0.48811  0.27121  0.96947  1.0000 0.1379983798
H   H20       1.0  0.96947  0.27121  0.48811  1.0000 0.1379983798
H   H21       1.0  0.96947  0.27121  0.27121  1.0000 0.1379983798
H   H22       1.0  0.48811  0.27121  0.27121  1.0000 0.1379983798
H   H23       1.0  0.27121  0.48811  0.96947  1.0000 0.1379983798
H   H24       1.0  0.27121  0.96947  0.48811  1.0000 0.1379983798
C   C1        1.0  0.56872  0.02448  0.56872  1.0000 0.5824297145
C   C2        1.0  0.61344  0.03000  0.61344  1.0000 -0.0279216655
C   C3        1.0  0.02448  0.56872  0.83808  1.0000 0.5824297145
C   C4        1.0  0.03000  0.61344  0.74312  1.0000 -0.0279216655
C   C5        1.0  0.56872  0.83808  0.56872  1.0000 0.5824297145
C   C6        1.0  0.61344  0.74312  0.61344  1.0000 -0.0279216655
C   C7        1.0  0.83808  0.56872  0.02448  1.0000 0.5824297145
C   C8        1.0  0.74312  0.61344  0.03000  1.0000 -0.0279216655
C   C9        1.0  0.56872  0.56872  0.02448  1.0000 0.5824297145
C   C10       1.0  0.61344  0.61344  0.03000  1.0000 -0.0279216655
C   C11       1.0  0.83808  0.02448  0.56872  1.0000 0.5824297145
C   C12       1.0  0.74312  0.03000  0.61344  1.0000 -0.0279216655
C   C13       1.0  0.56872  0.56872  0.83808  1.0000 0.5824297145
C   C14       1.0  0.61344  0.61344  0.74312  1.0000 -0.0279216655
C   C15       1.0  0.02448  0.83808  0.56872  1.0000 0.5824297145
C   C16       1.0  0.03000  0.74312  0.61344  1.0000 -0.0279216655
C   C17       1.0  0.02448  0.56872  0.56872  1.0000 0.5824297145
C   C18       1.0  0.03000  0.61344  0.61344  1.0000 -0.0279216655
C   C19       1.0  0.56872  0.83808  0.02448  1.0000 0.5824297145
C   C20       1.0  0.61344  0.74312  0.03000  1.0000 -0.0279216655
C   C21       1.0  0.83808  0.56872  0.56872  1.0000 0.5824297145
C   C22       1.0  0.74312  0.61344  0.61344  1.0000 -0.0279216655
C   C23       1.0  0.56872  0.02448  0.83808  1.0000 0.5824297145
C   C24       1.0  0.61344  0.03000  0.74312  1.0000 -0.0279216655
C   C25       1.0  0.43128  0.97552  0.16192  1.0000 0.5824297145
C   C26       1.0  0.38656  0.97000  0.25688  1.0000 -0.0279216655
C   C27       1.0  0.97552  0.43128  0.43128  1.0000 0.5824297145
C   C28       1.0  0.97000  0.38656  0.38656  1.0000 -0.0279216655
C   C29       1.0  0.43128  0.16192  0.97552  1.0000 0.5824297145
C   C30       1.0  0.38656  0.25688  0.97000  1.0000 -0.0279216655
C   C31       1.0  0.16192  0.43128  0.43128  1.0000 0.5824297145
C   C32       1.0  0.25688  0.38656  0.38656  1.0000 -0.0279216655
C   C33       1.0  0.43128  0.43128  0.16192  1.0000 0.5824297145
C   C34       1.0  0.38656  0.38656  0.25688  1.0000 -0.0279216655
C   C35       1.0  0.16192  0.97552  0.43128  1.0000 0.5824297145
C   C36       1.0  0.25688  0.97000  0.38656  1.0000 -0.0279216655
C   C37       1.0  0.43128  0.43128  0.97552  1.0000 0.5824297145
C   C38       1.0  0.38656  0.38656  0.97000  1.0000 -0.0279216655
C   C39       1.0  0.97552  0.16192  0.43128  1.0000 0.5824297145
C   C40       1.0  0.97000  0.25688  0.38656  1.0000 -0.0279216655
C   C41       1.0  0.97552  0.43128  0.16192  1.0000 0.5824297145
C   C42       1.0  0.97000  0.38656  0.25688  1.0000 -0.0279216655
C   C43       1.0  0.43128  0.16192  0.43128  1.0000 0.5824297145
C   C44       1.0  0.38656  0.25688  0.38656  1.0000 -0.0279216655
C   C45       1.0  0.16192  0.43128  0.97552  1.0000 0.5824297145
C   C46       1.0  0.25688  0.38656  0.97000  1.0000 -0.0279216655
C   C47       1.0  0.43128  0.97552  0.43128  1.0000 0.5824297145
C   C48       1.0  0.38656  0.97000  0.38656  1.0000 -0.0279216655
C   C49       1.0  0.57039  0.03023  0.69969  1.0000 -0.0862632021
C   C50       1.0  0.03023  0.57039  0.69969  1.0000 -0.0862632021
C   C51       1.0  0.69969  0.69969  0.57039  1.0000 -0.0862632021
C   C52       1.0  0.69969  0.69969  0.03023  1.0000 -0.0862632021
C   C53       1.0  0.69969  0.57039  0.03023  1.0000 -0.0862632021
C   C54       1.0  0.69969  0.03023  0.57039  1.0000 -0.0862632021
C   C55       1.0  0.57039  0.69969  0.69969  1.0000 -0.0862632021
C   C56       1.0  0.03023  0.69969  0.69969  1.0000 -0.0862632021
C   C57       1.0  0.03023  0.69969  0.57039  1.0000 -0.0862632021
C   C58       1.0  0.57039  0.69969  0.03023  1.0000 -0.0862632021
C   C59       1.0  0.69969  0.57039  0.69969  1.0000 -0.0862632021
C   C60       1.0  0.69969  0.03023  0.69969  1.0000 -0.0862632021
C   C61       1.0  0.42961  0.96977  0.30031  1.0000 -0.0862632021
C   C62       1.0  0.96977  0.42961  0.30031  1.0000 -0.0862632021
C   C63       1.0  0.30031  0.30031  0.96977  1.0000 -0.0862632021
C   C64       1.0  0.30031  0.30031  0.42961  1.0000 -0.0862632021
C   C65       1.0  0.30031  0.42961  0.30031  1.0000 -0.0862632021
C   C66       1.0  0.30031  0.96977  0.30031  1.0000 -0.0862632021
C   C67       1.0  0.42961  0.30031  0.96977  1.0000 -0.0862632021
C   C68       1.0  0.96977  0.30031  0.42961  1.0000 -0.0862632021
C   C69       1.0  0.96977  0.30031  0.30031  1.0000 -0.0862632021
C   C70       1.0  0.42961  0.30031  0.30031  1.0000 -0.0862632021
C   C71       1.0  0.30031  0.42961  0.96977  1.0000 -0.0862632021
C   C72       1.0  0.30031  0.96977  0.42961  1.0000 -0.0862632021
O   O1        1.0  0.61282  0.02114  0.49206  1.0000 -0.5170427225
O   O2        1.0  0.02114  0.61282  0.87398  1.0000 -0.5170427225
O   O3        1.0  0.49206  0.87398  0.61282  1.0000 -0.5170427225
O   O4        1.0  0.87398  0.49206  0.02114  1.0000 -0.5170427225
O   O5        1.0  0.49206  0.61282  0.02114  1.0000 -0.5170427225
O   O6        1.0  0.87398  0.02114  0.61282  1.0000 -0.5170427225
O   O7        1.0  0.61282  0.49206  0.87398  1.0000 -0.5170427225
O   O8        1.0  0.02114  0.87398  0.49206  1.0000 -0.5170427225
O   O9        1.0  0.02114  0.49206  0.61282  1.0000 -0.5170427225
O   O10       1.0  0.61282  0.87398  0.02114  1.0000 -0.5170427225
O   O11       1.0  0.87398  0.61282  0.49206  1.0000 -0.5170427225
O   O12       1.0  0.49206  0.02114  0.87398  1.0000 -0.5170427225
O   O13       1.0  0.38718  0.97886  0.12602  1.0000 -0.5170427225
O   O14       1.0  0.97886  0.38718  0.50794  1.0000 -0.5170427225
O   O15       1.0  0.50794  0.12602  0.97886  1.0000 -0.5170427225
O   O16       1.0  0.12602  0.50794  0.38718  1.0000 -0.5170427225
O   O17       1.0  0.50794  0.38718  0.12602  1.0000 -0.5170427225
O   O18       1.0  0.12602  0.97886  0.50794  1.0000 -0.5170427225
O   O19       1.0  0.38718  0.50794  0.97886  1.0000 -0.5170427225
O   O20       1.0  0.97886  0.12602  0.38718  1.0000 -0.5170427225
O   O21       1.0  0.97886  0.50794  0.12602  1.0000 -0.5170427225
O   O22       1.0  0.38718  0.12602  0.50794  1.0000 -0.5170427225
O   O23       1.0  0.12602  0.38718  0.97886  1.0000 -0.5170427225
O   O24       1.0  0.50794  0.97886  0.38718  1.0000 -0.5170427225
O   O25       1.0  0.38718  0.97886  0.50794  1.0000 -0.5170427225
O   O26       1.0  0.97886  0.38718  0.12602  1.0000 -0.5170427225
O   O27       1.0  0.50794  0.12602  0.38718  1.0000 -0.5170427225
O   O28       1.0  0.12602  0.50794  0.97886  1.0000 -0.5170427225
O   O29       1.0  0.50794  0.38718  0.97886  1.0000 -0.5170427225
O   O30       1.0  0.12602  0.97886  0.38718  1.0000 -0.5170427225
O   O31       1.0  0.38718  0.50794  0.12602  1.0000 -0.5170427225
O   O32       1.0  0.97886  0.12602  0.50794  1.0000 -0.5170427225
O   O33       1.0  0.97886  0.50794  0.38718  1.0000 -0.5170427225
O   O34       1.0  0.38718  0.12602  0.97886  1.0000 -0.5170427225
O   O35       1.0  0.12602  0.38718  0.50794  1.0000 -0.5170427225
O   O36       1.0  0.50794  0.97886  0.12602  1.0000 -0.5170427225
O   O37       1.0  0.61282  0.02114  0.87398  1.0000 -0.5170427225
O   O38       1.0  0.02114  0.61282  0.49206  1.0000 -0.5170427225
O   O39       1.0  0.49206  0.87398  0.02114  1.0000 -0.5170427225
O   O40       1.0  0.87398  0.49206  0.61282  1.0000 -0.5170427225
O   O41       1.0  0.49206  0.61282  0.87398  1.0000 -0.5170427225
O   O42       1.0  0.87398  0.02114  0.49206  1.0000 -0.5170427225
O   O43       1.0  0.61282  0.49206  0.02114  1.0000 -0.5170427225
O   O44       1.0  0.02114  0.87398  0.61282  1.0000 -0.5170427225
O   O45       1.0  0.02114  0.49206  0.87398  1.0000 -0.5170427225
O   O46       1.0  0.61282  0.87398  0.49206  1.0000 -0.5170427225
O   O47       1.0  0.87398  0.61282  0.02114  1.0000 -0.5170427225
O   O48       1.0  0.49206  0.02114  0.61282  1.0000 -0.5170427225
