# DDEC6 charges by PACMAN v1.1 (https://github.com/mtap-research/PACMAN-charge/)
data_2022[Zn][hcb]2[ASR]1
_chemical_formula_sum              "Zn8 H80 C120 N24 O32"
_cell_length_a       11.2089
_cell_length_b       15.0413
_cell_length_c       26.774
_cell_angle_alpha    90
_cell_angle_beta     90
_cell_angle_gamma    90

_symmetry_space_group_name_H-M    "P 1"
_symmetry_Int_Tables_number       1

loop_
  _symmetry_equiv_pos_as_xyz
  'x, y, z'

loop_
  _atom_site_type_symbol
  _atom_site_label
  _atom_site_symmetry_multiplicity
  _atom_site_fract_x
  _atom_site_fract_y
  _atom_site_fract_z
  _atom_site_occupancy
  _atom_site_charge
Zn  Zn1       1.0  0.18214  0.59376  0.85139  1.0000 0.7556837082
Zn  Zn2       1.0  0.68214  0.40624  0.64861  1.0000 0.7556837082
Zn  Zn3       1.0  0.81786  0.40624  0.14861  1.0000 0.7556837082
Zn  Zn4       1.0  0.31786  0.59376  0.35139  1.0000 0.7556837082
Zn  Zn5       1.0  0.81786  0.90624  0.35139  1.0000 0.7543694854
Zn  Zn6       1.0  0.31786  0.09376  0.14861  1.0000 0.7543694854
Zn  Zn7       1.0  0.18214  0.09376  0.64861  1.0000 0.7543694854
Zn  Zn8       1.0  0.68214  0.90624  0.85139  1.0000 0.7543694854
H   H1        1.0  0.60219  0.58919  0.05545  1.0000 0.1277231748
H   H2        1.0  0.37625  0.49112  0.78823  1.0000 0.120356178
H   H3        1.0  0.04358  0.76628  0.88359  1.0000 0.1073064238
H   H4        1.0  0.06716  0.91798  0.87865  1.0000 0.1277231748
H   H5        1.0  0.22474  0.97558  0.83252  1.0000 0.120356178
H   H6        1.0  0.35448  0.87838  0.79184  1.0000 0.1277231748
H   H7        1.0  0.46393  0.78223  0.75325  1.0000 0.1422477246
H   H8        1.0  0.57194  0.67017  0.71443  1.0000 0.1277231748
H   H9        1.0  0.52071  0.70917  0.01809  1.0000 0.2988605008
H   H10       1.0  0.43515  0.70487  0.97559  1.0000 0.3081927926
H   H11       1.0  0.10219  0.41081  0.44455  1.0000 0.1277231748
H   H12       1.0  0.87625  0.50888  0.71177  1.0000 0.120356178
H   H13       1.0  0.54358  0.23372  0.61641  1.0000 0.1073064238
H   H14       1.0  0.56716  0.08202  0.62135  1.0000 0.1277231748
H   H15       1.0  0.72474  0.02442  0.66748  1.0000 0.120356178
H   H16       1.0  0.85448  0.12162  0.70816  1.0000 0.1277231748
H   H17       1.0  0.96393  0.21777  0.74675  1.0000 0.1422477246
H   H18       1.0  0.07194  0.32983  0.78557  1.0000 0.1277231748
H   H19       1.0  0.02071  0.29083  0.48191  1.0000 0.2988605008
H   H20       1.0  0.93515  0.29513  0.52441  1.0000 0.3081927926
H   H21       1.0  0.39781  0.41081  0.94455  1.0000 0.1277231748
H   H22       1.0  0.62375  0.50888  0.21177  1.0000 0.120356178
H   H23       1.0  0.95642  0.23372  0.11641  1.0000 0.1073064238
H   H24       1.0  0.93284  0.08202  0.12135  1.0000 0.1277231748
H   H25       1.0  0.77526  0.02442  0.16748  1.0000 0.120356178
H   H26       1.0  0.64552  0.12162  0.20816  1.0000 0.1277231748
H   H27       1.0  0.53607  0.21777  0.24675  1.0000 0.1422477246
H   H28       1.0  0.42806  0.32983  0.28557  1.0000 0.1277231748
H   H29       1.0  0.47929  0.29083  0.98191  1.0000 0.2988605008
H   H30       1.0  0.56485  0.29513  0.02441  1.0000 0.3081927926
H   H31       1.0  0.89781  0.58919  0.55545  1.0000 0.120356178
H   H32       1.0  0.12375  0.49112  0.28823  1.0000 0.120356178
H   H33       1.0  0.45642  0.76628  0.38359  1.0000 0.1073064238
H   H34       1.0  0.43284  0.91798  0.37865  1.0000 0.1277231748
H   H35       1.0  0.27526  0.97558  0.33252  1.0000 0.120356178
H   H36       1.0  0.14552  0.87838  0.29184  1.0000 0.1277231748
H   H37       1.0  0.03607  0.78223  0.25325  1.0000 0.1422477246
H   H38       1.0  0.92806  0.67017  0.21443  1.0000 0.1277231748
H   H39       1.0  0.97929  0.70917  0.51809  1.0000 0.2988605008
H   H40       1.0  0.06485  0.70487  0.47559  1.0000 0.3081927926
H   H41       1.0  0.39781  0.91081  0.55545  1.0000 0.1277231748
H   H42       1.0  0.62375  0.00888  0.28823  1.0000 0.120356178
H   H43       1.0  0.95642  0.73372  0.38359  1.0000 0.1073064238
H   H44       1.0  0.93284  0.58202  0.37865  1.0000 0.1277231748
H   H45       1.0  0.77526  0.52442  0.33252  1.0000 0.120356178
H   H46       1.0  0.64552  0.62162  0.29184  1.0000 0.1277231748
H   H47       1.0  0.53607  0.71777  0.25325  1.0000 0.1422477246
H   H48       1.0  0.42806  0.82983  0.21443  1.0000 0.1277231748
H   H49       1.0  0.47929  0.79083  0.51809  1.0000 0.2988605008
H   H50       1.0  0.56485  0.79513  0.47559  1.0000 0.3081927926
H   H51       1.0  0.89781  0.08919  0.94455  1.0000 0.1277231748
H   H52       1.0  0.12375  0.99112  0.21177  1.0000 0.120356178
H   H53       1.0  0.45642  0.26628  0.11641  1.0000 0.1073064238
H   H54       1.0  0.43284  0.41798  0.12135  1.0000 0.1277231748
H   H55       1.0  0.27526  0.47558  0.16748  1.0000 0.120356178
H   H56       1.0  0.14552  0.37838  0.20816  1.0000 0.1277231748
H   H57       1.0  0.03607  0.28223  0.24675  1.0000 0.1422477246
H   H58       1.0  0.92806  0.17017  0.28557  1.0000 0.1277231748
H   H59       1.0  0.97929  0.20917  0.98191  1.0000 0.2988605008
H   H60       1.0  0.06485  0.20487  0.02441  1.0000 0.3081927926
H   H61       1.0  0.60219  0.08919  0.44455  1.0000 0.1277231748
H   H62       1.0  0.37625  0.99112  0.71177  1.0000 0.120356178
H   H63       1.0  0.04358  0.26628  0.61641  1.0000 0.1073064238
H   H64       1.0  0.06716  0.41798  0.62135  1.0000 0.1277231748
H   H65       1.0  0.22474  0.47558  0.66748  1.0000 0.120356178
H   H66       1.0  0.35448  0.37838  0.70816  1.0000 0.1277231748
H   H67       1.0  0.46393  0.28223  0.74675  1.0000 0.1422477246
H   H68       1.0  0.57194  0.17017  0.78557  1.0000 0.1277231748
H   H69       1.0  0.52071  0.20917  0.48191  1.0000 0.2988605008
H   H70       1.0  0.43515  0.20487  0.52441  1.0000 0.3081927926
H   H71       1.0  0.10219  0.91081  0.05545  1.0000 0.1277231748
H   H72       1.0  0.87625  0.00888  0.78823  1.0000 0.120356178
H   H73       1.0  0.54358  0.73372  0.88359  1.0000 0.1073064238
H   H74       1.0  0.56716  0.58202  0.87865  1.0000 0.1277231748
H   H75       1.0  0.72474  0.52442  0.83252  1.0000 0.120356178
H   H76       1.0  0.85448  0.62162  0.79184  1.0000 0.1277231748
H   H77       1.0  0.96393  0.71777  0.75325  1.0000 0.1422477246
H   H78       1.0  0.07194  0.82983  0.71443  1.0000 0.1277231748
H   H79       1.0  0.02071  0.79083  0.01809  1.0000 0.2988605008
H   H80       1.0  0.93515  0.79513  0.97559  1.0000 0.3081927926
C   C1        1.0  0.56110  0.55330  0.03302  1.0000 -0.2411425977
C   C2        1.0  0.48650  0.59350  0.99742  1.0000 0.2652710898
C   C3        1.0  0.42460  0.53780  0.96416  1.0000 -0.1288757843
C   C4        1.0  0.34170  0.57770  0.92597  1.0000 0.5562117801
C   C5        1.0  0.55500  0.49215  0.72427  1.0000 0.539682518
C   C6        1.0  0.48580  0.56733  0.74726  1.0000 -0.0733287835
C   C7        1.0  0.39280  0.54995  0.78011  1.0000 0.0654676196
C   C8        1.0  0.35130  0.69940  0.79075  1.0000 0.1740310297
C   C9        1.0  0.27170  0.76600  0.81513  1.0000 0.1740310297
C   C10       1.0  0.10630  0.78930  0.86490  1.0000 0.0768974984
C   C11       1.0  0.12000  0.88030  0.86225  1.0000 -0.145615679
C   C12       1.0  0.21360  0.91440  0.83480  1.0000 -0.027733322
C   C13       1.0  0.29100  0.85670  0.81064  1.0000 -0.1683160632
C   C14       1.0  0.44560  0.72280  0.75907  1.0000 -0.1683160632
C   C15       1.0  0.51100  0.65596  0.73663  1.0000 -0.0462961604
C   C16       1.0  0.06110  0.44670  0.46698  1.0000 -0.2411425977
C   C17       1.0  0.98650  0.40650  0.50258  1.0000 0.2652710898
C   C18       1.0  0.92460  0.46220  0.53584  1.0000 -0.1288757843
C   C19       1.0  0.84170  0.42230  0.57403  1.0000 0.5562117801
C   C20       1.0  0.05500  0.50785  0.77573  1.0000 0.539682518
C   C21       1.0  0.98580  0.43267  0.75274  1.0000 -0.0733287835
C   C22       1.0  0.89280  0.45005  0.71989  1.0000 0.0654676196
C   C23       1.0  0.85130  0.30060  0.70925  1.0000 0.1740310297
C   C24       1.0  0.77170  0.23400  0.68487  1.0000 0.1740310297
C   C25       1.0  0.60630  0.21070  0.63510  1.0000 0.0768974984
C   C26       1.0  0.62000  0.11970  0.63775  1.0000 -0.145615679
C   C27       1.0  0.71360  0.08560  0.66520  1.0000 -0.027733322
C   C28       1.0  0.79100  0.14330  0.68936  1.0000 -0.1683160632
C   C29       1.0  0.94560  0.27720  0.74093  1.0000 -0.1683160632
C   C30       1.0  0.01100  0.34404  0.76337  1.0000 -0.0462961604
C   C31       1.0  0.43890  0.44670  0.96698  1.0000 -0.2411425977
C   C32       1.0  0.51350  0.40650  0.00258  1.0000 0.2652710898
C   C33       1.0  0.57540  0.46220  0.03584  1.0000 -0.1288757843
C   C34       1.0  0.65830  0.42230  0.07403  1.0000 0.5562117801
C   C35       1.0  0.44500  0.50785  0.27573  1.0000 0.539682518
C   C36       1.0  0.51420  0.43267  0.25274  1.0000 -0.0733287835
C   C37       1.0  0.60720  0.45005  0.21989  1.0000 0.0654676196
C   C38       1.0  0.64870  0.30060  0.20925  1.0000 0.1740310297
C   C39       1.0  0.72830  0.23400  0.18487  1.0000 0.1740310297
C   C40       1.0  0.89370  0.21070  0.13510  1.0000 0.0768974984
C   C41       1.0  0.88000  0.11970  0.13775  1.0000 -0.145615679
C   C42       1.0  0.78640  0.08560  0.16520  1.0000 -0.027733322
C   C43       1.0  0.70900  0.14330  0.18936  1.0000 -0.1683160632
C   C44       1.0  0.55440  0.27720  0.24093  1.0000 -0.1683160632
C   C45       1.0  0.48900  0.34404  0.26337  1.0000 -0.0462961604
C   C46       1.0  0.93890  0.55330  0.53302  1.0000 -0.2411425977
C   C47       1.0  0.01350  0.59350  0.49742  1.0000 0.2652710898
C   C48       1.0  0.07540  0.53780  0.46416  1.0000 -0.1288757843
C   C49       1.0  0.15830  0.57770  0.42597  1.0000 0.5562117801
C   C50       1.0  0.94500  0.49215  0.22427  1.0000 0.539682518
C   C51       1.0  0.01420  0.56733  0.24726  1.0000 -0.0733287835
C   C52       1.0  0.10720  0.54995  0.28011  1.0000 0.0654676196
C   C53       1.0  0.14870  0.69940  0.29075  1.0000 0.1740310297
C   C54       1.0  0.22830  0.76600  0.31513  1.0000 0.1740310297
C   C55       1.0  0.39370  0.78930  0.36490  1.0000 0.0768974984
C   C56       1.0  0.38000  0.88030  0.36225  1.0000 -0.145615679
C   C57       1.0  0.28640  0.91440  0.33480  1.0000 -0.027733322
C   C58       1.0  0.20900  0.85670  0.31064  1.0000 -0.1683160632
C   C59       1.0  0.05440  0.72280  0.25907  1.0000 -0.1683160632
C   C60       1.0  0.98900  0.65596  0.23663  1.0000 -0.0462961604
C   C61       1.0  0.43890  0.94670  0.53302  1.0000 -0.2411425977
C   C62       1.0  0.51350  0.90650  0.49742  1.0000 0.2652710898
C   C63       1.0  0.57540  0.96220  0.46416  1.0000 -0.1288757843
C   C64       1.0  0.65830  0.92230  0.42597  1.0000 0.5562117801
C   C65       1.0  0.44500  0.00785  0.22427  1.0000 0.539682518
C   C66       1.0  0.51420  0.93267  0.24726  1.0000 -0.0733287835
C   C67       1.0  0.60720  0.95005  0.28011  1.0000 0.0654676196
C   C68       1.0  0.64870  0.80060  0.29075  1.0000 0.1740310297
C   C69       1.0  0.72830  0.73400  0.31513  1.0000 0.1740310297
C   C70       1.0  0.89370  0.71070  0.36490  1.0000 0.0768974984
C   C71       1.0  0.88000  0.61970  0.36225  1.0000 -0.145615679
C   C72       1.0  0.78640  0.58560  0.33480  1.0000 -0.027733322
C   C73       1.0  0.70900  0.64330  0.31064  1.0000 -0.1683160632
C   C74       1.0  0.55440  0.77720  0.25907  1.0000 -0.1683160632
C   C75       1.0  0.48900  0.84404  0.23663  1.0000 -0.0462961604
C   C76       1.0  0.93890  0.05330  0.96698  1.0000 -0.2411425977
C   C77       1.0  0.01350  0.09350  0.00258  1.0000 0.2646314085
C   C78       1.0  0.07540  0.03780  0.03584  1.0000 -0.1288757843
C   C79       1.0  0.15830  0.07770  0.07403  1.0000 0.5562117801
C   C80       1.0  0.94500  0.99215  0.27573  1.0000 0.539682518
C   C81       1.0  0.01420  0.06733  0.25274  1.0000 -0.0733287835
C   C82       1.0  0.10720  0.04995  0.21989  1.0000 0.0654676196
C   C83       1.0  0.14870  0.19940  0.20925  1.0000 0.1740310297
C   C84       1.0  0.22830  0.26600  0.18487  1.0000 0.1740310297
C   C85       1.0  0.39370  0.28930  0.13510  1.0000 0.0768974984
C   C86       1.0  0.38000  0.38030  0.13775  1.0000 -0.145615679
C   C87       1.0  0.28640  0.41440  0.16520  1.0000 -0.027733322
C   C88       1.0  0.20900  0.35670  0.18936  1.0000 -0.1683160632
C   C89       1.0  0.05440  0.22280  0.24093  1.0000 -0.1683160632
C   C90       1.0  0.98900  0.15596  0.26337  1.0000 -0.0462961604
C   C91       1.0  0.56110  0.05330  0.46698  1.0000 -0.2411425977
C   C92       1.0  0.48650  0.09350  0.50258  1.0000 0.2652710898
C   C93       1.0  0.42460  0.03780  0.53584  1.0000 -0.1288757843
C   C94       1.0  0.34170  0.07770  0.57403  1.0000 0.5562117801
C   C95       1.0  0.55500  0.99215  0.77573  1.0000 0.539682518
C   C96       1.0  0.48580  0.06733  0.75274  1.0000 -0.0733287835
C   C97       1.0  0.39280  0.04995  0.71989  1.0000 0.0654676196
C   C98       1.0  0.35130  0.19940  0.70925  1.0000 0.1740310297
C   C99       1.0  0.27170  0.26600  0.68487  1.0000 0.1740310297
C   C100      1.0  0.10630  0.28930  0.63510  1.0000 0.0768974984
C   C101      1.0  0.12000  0.38030  0.63775  1.0000 -0.145615679
C   C102      1.0  0.21360  0.41440  0.66520  1.0000 -0.027733322
C   C103      1.0  0.29100  0.35670  0.68936  1.0000 -0.1683160632
C   C104      1.0  0.44560  0.22280  0.74093  1.0000 -0.1683160632
C   C105      1.0  0.51100  0.15596  0.76337  1.0000 -0.0462961604
C   C106      1.0  0.06110  0.94670  0.03302  1.0000 -0.2411425977
C   C107      1.0  0.98650  0.90650  0.99742  1.0000 0.2652710898
C   C108      1.0  0.92460  0.96220  0.96416  1.0000 -0.1288757843
C   C109      1.0  0.84170  0.92230  0.92597  1.0000 0.5562117801
C   C110      1.0  0.05500  0.00785  0.72427  1.0000 0.539682518
C   C111      1.0  0.98580  0.93267  0.74726  1.0000 -0.0733287835
C   C112      1.0  0.89280  0.95005  0.78011  1.0000 0.0654676196
C   C113      1.0  0.85130  0.80060  0.79075  1.0000 0.1740310297
C   C114      1.0  0.77170  0.73400  0.81513  1.0000 0.1740310297
C   C115      1.0  0.60630  0.71070  0.86490  1.0000 0.0768974984
C   C116      1.0  0.62000  0.61970  0.86225  1.0000 -0.145615679
C   C117      1.0  0.71360  0.58560  0.83480  1.0000 -0.027733322
C   C118      1.0  0.79100  0.64330  0.81064  1.0000 -0.1683160632
C   C119      1.0  0.94560  0.77720  0.75907  1.0000 -0.1683160632
C   C120      1.0  0.01100  0.84404  0.73663  1.0000 -0.0462961604
N   N1        1.0  0.32590  0.61410  0.80064  1.0000 -0.2557008087
N   N2        1.0  0.18010  0.73280  0.84152  1.0000 -0.2660332255
N   N3        1.0  0.48010  0.67850  0.99700  1.0000 -0.5041840196
N   N4        1.0  0.82590  0.38590  0.69936  1.0000 -0.2546125421
N   N5        1.0  0.68010  0.26720  0.65848  1.0000 -0.2660332255
N   N6        1.0  0.98010  0.32150  0.50300  1.0000 -0.5041840196
N   N7        1.0  0.67410  0.38590  0.19936  1.0000 -0.2546125421
N   N8        1.0  0.81990  0.26720  0.15848  1.0000 -0.2660332255
N   N9        1.0  0.51990  0.32150  0.00300  1.0000 -0.5041840196
N   N10       1.0  0.17410  0.61410  0.30064  1.0000 -0.2557008087
N   N11       1.0  0.31990  0.73280  0.34152  1.0000 -0.2660332255
N   N12       1.0  0.01990  0.67850  0.49700  1.0000 -0.5041840196
N   N13       1.0  0.67410  0.88590  0.30064  1.0000 -0.2546125421
N   N14       1.0  0.81990  0.76720  0.34152  1.0000 -0.2660332255
N   N15       1.0  0.51990  0.82150  0.49700  1.0000 -0.5041840196
N   N16       1.0  0.17410  0.11410  0.19936  1.0000 -0.2557008087
N   N17       1.0  0.31990  0.23280  0.15848  1.0000 -0.2660332255
N   N18       1.0  0.01990  0.17850  0.00300  1.0000 -0.5041840196
N   N19       1.0  0.32590  0.11410  0.69936  1.0000 -0.2557008087
N   N20       1.0  0.18010  0.23280  0.65848  1.0000 -0.2660332255
N   N21       1.0  0.48010  0.17850  0.50300  1.0000 -0.5041840196
N   N22       1.0  0.82590  0.88590  0.80064  1.0000 -0.2557008087
N   N23       1.0  0.68010  0.76720  0.84152  1.0000 -0.2660332255
N   N24       1.0  0.98010  0.82150  0.99700  1.0000 -0.5041840196
O   O1        1.0  0.27490  0.52431  0.90195  1.0000 -0.525707674
O   O2        1.0  0.34240  0.65852  0.91843  1.0000 -0.5609238714
O   O3        1.0  0.61524  0.51250  0.68549  1.0000 -0.5359419703
O   O4        1.0  0.54920  0.41739  0.74353  1.0000 -0.5661229014
O   O5        1.0  0.77490  0.47569  0.59805  1.0000 -0.525707674
O   O6        1.0  0.84240  0.34148  0.58157  1.0000 -0.5609238714
O   O7        1.0  0.11524  0.48750  0.81451  1.0000 -0.5359419703
O   O8        1.0  0.04920  0.58261  0.75647  1.0000 -0.5661229014
O   O9        1.0  0.72510  0.47569  0.09805  1.0000 -0.525707674
O   O10       1.0  0.65760  0.34148  0.08157  1.0000 -0.5609238714
O   O11       1.0  0.38476  0.48750  0.31451  1.0000 -0.5359419703
O   O12       1.0  0.45080  0.58261  0.25647  1.0000 -0.5661229014
O   O13       1.0  0.22510  0.52431  0.40195  1.0000 -0.525707674
O   O14       1.0  0.15760  0.65852  0.41843  1.0000 -0.5609238714
O   O15       1.0  0.88476  0.51250  0.18549  1.0000 -0.5359419703
O   O16       1.0  0.95080  0.41739  0.24353  1.0000 -0.5661229014
O   O17       1.0  0.72510  0.97569  0.40195  1.0000 -0.525707674
O   O18       1.0  0.65760  0.84148  0.41843  1.0000 -0.5609238714
O   O19       1.0  0.38476  0.98750  0.18549  1.0000 -0.5359419703
O   O20       1.0  0.45080  0.08261  0.24353  1.0000 -0.5661229014
O   O21       1.0  0.22510  0.02431  0.09805  1.0000 -0.525707674
O   O22       1.0  0.15760  0.15852  0.08157  1.0000 -0.5609238714
O   O23       1.0  0.88476  0.01250  0.31451  1.0000 -0.5359419703
O   O24       1.0  0.95080  0.91739  0.25647  1.0000 -0.5661229014
O   O25       1.0  0.27490  0.02431  0.59805  1.0000 -0.525707674
O   O26       1.0  0.34240  0.15852  0.58157  1.0000 -0.5609238714
O   O27       1.0  0.61524  0.01250  0.81451  1.0000 -0.5359419703
O   O28       1.0  0.54920  0.91739  0.75647  1.0000 -0.5661229014
O   O29       1.0  0.77490  0.97569  0.90195  1.0000 -0.525707674
O   O30       1.0  0.84240  0.84148  0.91843  1.0000 -0.5609238714
O   O31       1.0  0.11524  0.98750  0.68549  1.0000 -0.5359419703
O   O32       1.0  0.04920  0.08261  0.74353  1.0000 -0.5661229014
