# DDEC6 charges by PACMAN v1.1 (https://github.com/mtap-research/PACMAN-charge/)
data_2022[Zr][bcu]3[ASR]1
_chemical_formula_sum              "Zr6 H48 C72 N8 O32"
_cell_length_a       19.8244
_cell_length_b       19.8244
_cell_length_c       19.8244
_cell_angle_alpha    126.288
_cell_angle_beta     102.628
_cell_angle_gamma    100.926

_symmetry_space_group_name_H-M    "P 1"
_symmetry_Int_Tables_number       1

loop_
  _symmetry_equiv_pos_as_xyz
  'x, y, z'

loop_
  _atom_site_type_symbol
  _atom_site_label
  _atom_site_symmetry_multiplicity
  _atom_site_fract_x
  _atom_site_fract_y
  _atom_site_fract_z
  _atom_site_occupancy
  _atom_site_charge
Zr  Zr1       1.0  0.90287  0.90287  0.00000  1.0000 2.3713412641
Zr  Zr2       1.0  0.09713  0.09713  0.00000  1.0000 2.3713412641
Zr  Zr3       1.0  0.07159  0.09906  0.17065  1.0000 2.4673980235
Zr  Zr4       1.0  0.92841  0.90094  0.82935  1.0000 2.4673980235
Zr  Zr5       1.0  0.07159  0.90094  0.97253  1.0000 2.4673980235
Zr  Zr6       1.0  0.92841  0.09906  0.02747  1.0000 2.4673980235
H   H1        1.0  0.38860  0.44700  0.52960  1.0000 0.1086223971
H   H2        1.0  0.44130  0.53720  0.55470  1.0000 0.1086223971
H   H3        1.0  0.57800  0.53710  0.71230  1.0000 0.1226073283
H   H4        1.0  0.69850  0.65650  0.81280  1.0000 0.1329804748
H   H5        1.0  0.70220  0.66770  0.61590  1.0000 0.1329804748
H   H6        1.0  0.52380  0.37730  0.56390  1.0000 0.0740555956
H   H7        1.0  0.91740  0.85900  0.47040  1.0000 0.1086223971
H   H8        1.0  0.98250  0.88660  0.44530  1.0000 0.1086223971
H   H9        1.0  0.82480  0.86570  0.28770  1.0000 0.1226073283
H   H10       1.0  0.84370  0.88570  0.18720  1.0000 0.1329804748
H   H11       1.0  0.05180  0.08630  0.38410  1.0000 0.1329804748
H   H12       1.0  0.81340  0.95990  0.43610  1.0000 0.0751306771
H   H13       1.0  0.08260  0.55300  0.94160  1.0000 0.1086223971
H   H14       1.0  0.01750  0.46280  0.90410  1.0000 0.1086223971
H   H15       1.0  0.17520  0.46290  0.04090  1.0000 0.1226073283
H   H16       1.0  0.15630  0.34350  0.04200  1.0000 0.1329804748
H   H17       1.0  0.94820  0.33230  0.03450  1.0000 0.1329804748
H   H18       1.0  0.18660  0.62270  0.14650  1.0000 0.0751306771
H   H19       1.0  0.61140  0.14100  0.05840  1.0000 0.1086223971
H   H20       1.0  0.55870  0.11340  0.09590  1.0000 0.1086223971
H   H21       1.0  0.42200  0.13430  0.95910  1.0000 0.1226073283
H   H22       1.0  0.30150  0.11430  0.95800  1.0000 0.1329804748
H   H23       1.0  0.29780  0.91370  0.96550  1.0000 0.1329804748
H   H24       1.0  0.47620  0.04010  0.85350  1.0000 0.0740555956
H   H25       1.0  0.61140  0.55300  0.47040  1.0000 0.1086223971
H   H26       1.0  0.55870  0.46280  0.44530  1.0000 0.1086223971
H   H27       1.0  0.42200  0.46290  0.28770  1.0000 0.1226073283
H   H28       1.0  0.30150  0.34350  0.18720  1.0000 0.1329804748
H   H29       1.0  0.29780  0.33230  0.38410  1.0000 0.1329804748
H   H30       1.0  0.47620  0.62270  0.43610  1.0000 0.0751306771
H   H31       1.0  0.08260  0.14100  0.52960  1.0000 0.1086223971
H   H32       1.0  0.01750  0.11340  0.55470  1.0000 0.1086223971
H   H33       1.0  0.17520  0.13430  0.71230  1.0000 0.1226073283
H   H34       1.0  0.15630  0.11430  0.81280  1.0000 0.1329804748
H   H35       1.0  0.94820  0.91370  0.61590  1.0000 0.1329804748
H   H36       1.0  0.18660  0.04010  0.56390  1.0000 0.0740555956
H   H37       1.0  0.91740  0.44700  0.05840  1.0000 0.1086223971
H   H38       1.0  0.98250  0.53720  0.09590  1.0000 0.1086223971
H   H39       1.0  0.82480  0.53710  0.95910  1.0000 0.1226073283
H   H40       1.0  0.84370  0.65650  0.95800  1.0000 0.1329804748
H   H41       1.0  0.05180  0.66770  0.96550  1.0000 0.1329804748
H   H42       1.0  0.81340  0.37730  0.85350  1.0000 0.0751306771
H   H43       1.0  0.38860  0.85900  0.94160  1.0000 0.1086223971
H   H44       1.0  0.44130  0.88660  0.90410  1.0000 0.1086223971
H   H45       1.0  0.57800  0.86570  0.04090  1.0000 0.1226073283
H   H46       1.0  0.69850  0.88570  0.04200  1.0000 0.1329804748
H   H47       1.0  0.70220  0.08630  0.03450  1.0000 0.1329804748
H   H48       1.0  0.52380  0.95990  0.14650  1.0000 0.0751306771
C   C1        1.0  0.78220  0.75380  0.78960  1.0000 0.6340286641
C   C2        1.0  0.42710  0.47050  0.51580  1.0000 -0.1407635302
C   C3        1.0  0.60320  0.56360  0.69260  1.0000 -0.2106066716
C   C4        1.0  0.67480  0.63460  0.75240  1.0000 -0.0740823017
C   C5        1.0  0.71170  0.67330  0.72380  1.0000 -0.0786517908
C   C6        1.0  0.67710  0.64120  0.63550  1.0000 -0.1169603101
C   C7        1.0  0.60550  0.57020  0.57570  1.0000 0.0227344742
C   C8        1.0  0.56850  0.53140  0.60430  1.0000 0.1329804748
C   C9        1.0  0.48320  0.38100  0.53240  1.0000 0.2932151689
C   C10       1.0  0.96420  0.99260  0.21040  1.0000 0.6340286641
C   C11       1.0  0.95470  0.91130  0.48420  1.0000 -0.1407635302
C   C12       1.0  0.87100  0.91060  0.30740  1.0000 -0.2106066716
C   C13       1.0  0.88220  0.92240  0.24760  1.0000 -0.0740823017
C   C14       1.0  0.94950  0.98790  0.27620  1.0000 -0.0786517908
C   C15       1.0  0.00570  0.04160  0.36450  1.0000 -0.1169603101
C   C16       1.0  0.99450  0.02980  0.42430  1.0000 0.0227344742
C   C17       1.0  0.92710  0.96420  0.39570  1.0000 0.1329804748
C   C18       1.0  0.84860  0.95080  0.46760  1.0000 0.2932151689
C   C19       1.0  0.03580  0.24620  0.02840  1.0000 0.6340286641
C   C20       1.0  0.04530  0.52950  0.95660  1.0000 -0.1407635302
C   C21       1.0  0.12900  0.43640  0.03960  1.0000 -0.2106066716
C   C22       1.0  0.11780  0.36540  0.04020  1.0000 -0.0786517908
C   C23       1.0  0.05050  0.32670  0.03840  1.0000 -0.0786517908
C   C24       1.0  0.99430  0.35880  0.03590  1.0000 -0.1169603101
C   C25       1.0  0.00550  0.42980  0.03530  1.0000 0.0227344742
C   C26       1.0  0.07290  0.46860  0.03710  1.0000 0.1329804748
C   C27       1.0  0.15140  0.61900  0.10220  1.0000 0.2932151689
C   C28       1.0  0.21780  0.00740  0.97160  1.0000 0.6340286641
C   C29       1.0  0.57290  0.08870  0.04340  1.0000 -0.1407635302
C   C30       1.0  0.39680  0.08940  0.96040  1.0000 -0.2106066716
C   C31       1.0  0.32520  0.07760  0.95980  1.0000 -0.0786517908
C   C32       1.0  0.28830  0.01210  0.96160  1.0000 -0.0786517908
C   C33       1.0  0.32290  0.95840  0.96410  1.0000 -0.1169603101
C   C34       1.0  0.39450  0.97020  0.96470  1.0000 0.0227344742
C   C35       1.0  0.43150  0.03580  0.96290  1.0000 0.1329804748
C   C36       1.0  0.51680  0.04920  0.89780  1.0000 0.2932151689
C   C37       1.0  0.21780  0.24620  0.21040  1.0000 0.6340286641
C   C38       1.0  0.57290  0.52950  0.48420  1.0000 -0.1407635302
C   C39       1.0  0.39680  0.43640  0.30740  1.0000 -0.2106066716
C   C40       1.0  0.32520  0.36540  0.24760  1.0000 -0.0740823017
C   C41       1.0  0.28830  0.32670  0.27620  1.0000 -0.0786517908
C   C42       1.0  0.32290  0.35880  0.36450  1.0000 -0.1169603101
C   C43       1.0  0.39450  0.42980  0.42430  1.0000 0.0227344742
C   C44       1.0  0.43150  0.46860  0.39570  1.0000 0.1329804748
C   C45       1.0  0.51680  0.61900  0.46760  1.0000 0.2932151689
C   C46       1.0  0.03580  0.00740  0.78960  1.0000 0.6340286641
C   C47       1.0  0.04530  0.08870  0.51580  1.0000 -0.1407635302
C   C48       1.0  0.12900  0.08940  0.69260  1.0000 -0.2106066716
C   C49       1.0  0.11780  0.07760  0.75240  1.0000 -0.0786517908
C   C50       1.0  0.05050  0.01210  0.72380  1.0000 -0.0786517908
C   C51       1.0  0.99430  0.95840  0.63550  1.0000 -0.1169603101
C   C52       1.0  0.00550  0.97020  0.57570  1.0000 0.0227344742
C   C53       1.0  0.07290  0.03580  0.60430  1.0000 0.1329804748
C   C54       1.0  0.15140  0.04920  0.53240  1.0000 0.2932151689
C   C55       1.0  0.96420  0.75380  0.97160  1.0000 0.6340286641
C   C56       1.0  0.95470  0.47050  0.04340  1.0000 -0.1407635302
C   C57       1.0  0.87100  0.56360  0.96040  1.0000 -0.2106066716
C   C58       1.0  0.88220  0.63460  0.95980  1.0000 -0.0740823017
C   C59       1.0  0.94950  0.67330  0.96160  1.0000 -0.0786517908
C   C60       1.0  0.00570  0.64120  0.96410  1.0000 -0.1169603101
C   C61       1.0  0.99450  0.57020  0.96470  1.0000 0.0227344742
C   C62       1.0  0.92710  0.53140  0.96290  1.0000 0.1329804748
C   C63       1.0  0.84860  0.38100  0.89780  1.0000 0.2932151689
C   C64       1.0  0.78220  0.99260  0.02840  1.0000 0.6340286641
C   C65       1.0  0.42710  0.91130  0.95660  1.0000 -0.1407635302
C   C66       1.0  0.60320  0.91060  0.03960  1.0000 -0.2106066716
C   C67       1.0  0.67480  0.92240  0.04020  1.0000 -0.0740823017
C   C68       1.0  0.71170  0.98790  0.03840  1.0000 -0.0786517908
C   C69       1.0  0.67710  0.04160  0.03590  1.0000 -0.1169603101
C   C70       1.0  0.60550  0.02980  0.03530  1.0000 0.0227344742
C   C71       1.0  0.56850  0.96420  0.03710  1.0000 0.1329804748
C   C72       1.0  0.48320  0.95080  0.10220  1.0000 0.2932151689
N   N1        1.0  0.49510  0.45550  0.54280  1.0000 -0.1407635302
N   N2        1.0  0.91270  0.95230  0.45720  1.0000 -0.1407635302
N   N3        1.0  0.08730  0.54450  0.03960  1.0000 -0.1407635302
N   N4        1.0  0.50490  0.04770  0.96040  1.0000 -0.1407635302
N   N5        1.0  0.50490  0.54450  0.45720  1.0000 -0.1407635302
N   N6        1.0  0.08730  0.04770  0.54280  1.0000 -0.1407635302
N   N7        1.0  0.91270  0.45550  0.96040  1.0000 -0.1407635302
N   N8        1.0  0.49510  0.95230  0.03960  1.0000 -0.1407635302
O   O1        1.0  0.80600  0.78720  0.87360  1.0000 -0.5881499664
O   O2        1.0  0.81930  0.78270  0.75880  1.0000 -0.6307946311
O   O3        1.0  0.41860  0.31460  0.48120  1.0000 -0.4176335351
O   O4        1.0  0.91360  0.93240  0.12640  1.0000 -0.5881499664
O   O5        1.0  0.02390  0.06050  0.24120  1.0000 -0.6307946311
O   O6        1.0  0.83340  0.93740  0.51880  1.0000 -0.4176335351
O   O7        1.0  0.08640  0.21280  0.01880  1.0000 -0.5881499664
O   O8        1.0  0.97610  0.21730  0.03660  1.0000 -0.6307946311
O   O9        1.0  0.16660  0.68540  0.10400  1.0000 -0.4176335351
O   O10       1.0  0.19400  0.06760  0.98120  1.0000 -0.5881499664
O   O11       1.0  0.18070  0.93950  0.96340  1.0000 -0.6307946311
O   O12       1.0  0.58140  0.06260  0.89600  1.0000 -0.4176335351
O   O13       1.0  0.19400  0.21280  0.12640  1.0000 -0.5881499664
O   O14       1.0  0.18070  0.21730  0.24120  1.0000 -0.6307946311
O   O15       1.0  0.58140  0.68540  0.51880  1.0000 -0.4176335351
O   O16       1.0  0.08640  0.06760  0.87360  1.0000 -0.5881499664
O   O17       1.0  0.97610  0.93950  0.75880  1.0000 -0.6307946311
O   O18       1.0  0.16660  0.06260  0.48120  1.0000 -0.4176335351
O   O19       1.0  0.91360  0.78720  0.98120  1.0000 -0.5881499664
O   O20       1.0  0.02390  0.78270  0.96340  1.0000 -0.6307946311
O   O21       1.0  0.83340  0.31460  0.89600  1.0000 -0.4176335351
O   O22       1.0  0.80600  0.93240  0.01880  1.0000 -0.5881499664
O   O23       1.0  0.81930  0.06050  0.03660  1.0000 -0.6307946311
O   O24       1.0  0.41860  0.93740  0.10400  1.0000 -0.4176335351
O   O25       1.0  0.94850  0.04950  0.10100  1.0000 -1.2033767741
O   O26       1.0  0.94850  0.84750  0.89900  1.0000 -1.2033767741
O   O27       1.0  0.05150  0.95050  0.89900  1.0000 -1.2090001942
O   O28       1.0  0.05150  0.15250  0.10100  1.0000 -1.2033767741
O   O29       1.0  0.02760  0.95440  0.07320  1.0000 -1.1738327385
O   O30       1.0  0.88120  0.95440  0.92680  1.0000 -1.1738327385
O   O31       1.0  0.11880  0.04560  0.07320  1.0000 -1.1786822916
O   O32       1.0  0.97240  0.04560  0.92680  1.0000 -1.1738327385
