# DDEC6 charges by PACMAN v1.1 (https://github.com/mtap-research/PACMAN-charge/)
data_2022[CuSi][mmo]2[ASR]1
_chemical_formula_sum              "Cu3 Si3 H60 C72 N24 F30"
_cell_length_a       13.3398
_cell_length_b       13.3398
_cell_length_c       13.3398
_cell_angle_alpha    89.4177
_cell_angle_beta     89.4177
_cell_angle_gamma    89.4177

_symmetry_space_group_name_H-M    "P 1"
_symmetry_Int_Tables_number       1

loop_
  _symmetry_equiv_pos_as_xyz
  'x, y, z'

loop_
  _atom_site_type_symbol
  _atom_site_label
  _atom_site_symmetry_multiplicity
  _atom_site_fract_x
  _atom_site_fract_y
  _atom_site_fract_z
  _atom_site_occupancy
  _atom_site_charge
Cu  Cu1       1.0  0.00000  0.62892  0.37108  1.0000 0.450906015
Cu  Cu2       1.0  0.62892  0.37108  0.00000  1.0000 0.450906015
Cu  Cu3       1.0  0.37108  0.00000  0.62892  1.0000 0.450906015
Si  Si1       1.0  0.23860  0.76140  0.50000  1.0000 1.0515610442
Si  Si2       1.0  0.76140  0.50000  0.23860  1.0000 1.0515610442
Si  Si3       1.0  0.50000  0.23860  0.76140  1.0000 1.0515610442
H   H1        1.0  0.06183  0.84764  0.36538  1.0000 0.071795331
H   H2        1.0  0.78660  0.75424  0.33812  1.0000 0.1007978849
H   H3        1.0  0.77995  0.93846  0.33468  1.0000 0.1007978849
H   H4        1.0  0.10799  0.99708  0.39904  1.0000 0.0949401424
H   H5        1.0  0.84076  0.09570  0.31283  1.0000 0.1090560124
H   H6        1.0  0.20816  0.50349  0.41665  1.0000 0.1007978849
H   H7        1.0  0.21916  0.32057  0.40757  1.0000 0.1007978849
H   H8        1.0  0.94249  0.40696  0.34973  1.0000 0.071795331
H   H9        1.0  0.89269  0.25752  0.33027  1.0000 0.1007978849
H   H10       1.0  0.16383  0.16111  0.40729  1.0000 0.1090560124
H   H11       1.0  0.84764  0.36538  0.06183  1.0000 0.071795331
H   H12       1.0  0.75424  0.33812  0.78660  1.0000 0.1007978849
H   H13       1.0  0.93846  0.33468  0.77995  1.0000 0.1007978849
H   H14       1.0  0.99708  0.39904  0.10799  1.0000 0.0949401424
H   H15       1.0  0.09570  0.31283  0.84076  1.0000 0.1090560124
H   H16       1.0  0.50349  0.41665  0.20816  1.0000 0.1007978849
H   H17       1.0  0.32057  0.40757  0.21916  1.0000 0.1007978849
H   H18       1.0  0.40696  0.34973  0.94249  1.0000 0.071795331
H   H19       1.0  0.25752  0.33027  0.89269  1.0000 0.1007978849
H   H20       1.0  0.16111  0.40729  0.16383  1.0000 0.1090560124
H   H21       1.0  0.36538  0.06183  0.84764  1.0000 0.071795331
H   H22       1.0  0.33812  0.78660  0.75424  1.0000 0.1007978849
H   H23       1.0  0.33468  0.77995  0.93846  1.0000 0.1007978849
H   H24       1.0  0.39904  0.10799  0.99708  1.0000 0.0949401424
H   H25       1.0  0.31283  0.84076  0.09570  1.0000 0.1090560124
H   H26       1.0  0.41665  0.20816  0.50349  1.0000 0.1007978849
H   H27       1.0  0.40757  0.21916  0.32057  1.0000 0.1007978849
H   H28       1.0  0.34973  0.94249  0.40696  1.0000 0.071795331
H   H29       1.0  0.33027  0.89269  0.25752  1.0000 0.1007978849
H   H30       1.0  0.40729  0.16383  0.16111  1.0000 0.1090560124
H   H31       1.0  0.93817  0.63462  0.15236  1.0000 0.071795331
H   H32       1.0  0.21340  0.66188  0.24576  1.0000 0.1007978849
H   H33       1.0  0.22005  0.66532  0.06154  1.0000 0.1007978849
H   H34       1.0  0.89201  0.60096  0.00292  1.0000 0.0949401424
H   H35       1.0  0.15924  0.68717  0.90430  1.0000 0.1090560124
H   H36       1.0  0.79184  0.58335  0.49651  1.0000 0.1007978849
H   H37       1.0  0.78084  0.59243  0.67943  1.0000 0.1007978849
H   H38       1.0  0.05751  0.65027  0.59304  1.0000 0.071795331
H   H39       1.0  0.10731  0.66973  0.74248  1.0000 0.1007978849
H   H40       1.0  0.83617  0.59271  0.83889  1.0000 0.1090560124
H   H41       1.0  0.15236  0.93817  0.63462  1.0000 0.071795331
H   H42       1.0  0.24576  0.21340  0.66188  1.0000 0.1007978849
H   H43       1.0  0.06154  0.22005  0.66532  1.0000 0.1007978849
H   H44       1.0  0.00292  0.89201  0.60096  1.0000 0.0949401424
H   H45       1.0  0.90430  0.15924  0.68717  1.0000 0.1090560124
H   H46       1.0  0.49651  0.79184  0.58335  1.0000 0.1007978849
H   H47       1.0  0.67943  0.78084  0.59243  1.0000 0.1007978849
H   H48       1.0  0.59304  0.05751  0.65027  1.0000 0.071795331
H   H49       1.0  0.74248  0.10731  0.66973  1.0000 0.1007978849
H   H50       1.0  0.83889  0.83617  0.59271  1.0000 0.1090560124
H   H51       1.0  0.63462  0.15236  0.93817  1.0000 0.071795331
H   H52       1.0  0.66188  0.24576  0.21340  1.0000 0.1007978849
H   H53       1.0  0.66532  0.06154  0.22005  1.0000 0.1007978849
H   H54       1.0  0.60096  0.00292  0.89201  1.0000 0.0949401424
H   H55       1.0  0.68717  0.90430  0.15924  1.0000 0.1090560124
H   H56       1.0  0.58335  0.49651  0.79184  1.0000 0.1007978849
H   H57       1.0  0.59243  0.67943  0.78084  1.0000 0.1007978849
H   H58       1.0  0.65027  0.59304  0.05751  1.0000 0.071795331
H   H59       1.0  0.66973  0.74248  0.10731  1.0000 0.1007978849
H   H60       1.0  0.59271  0.83889  0.83617  1.0000 0.1090560124
C   C1        1.0  0.99260  0.84700  0.35850  1.0000 0.0573741871
C   C2        1.0  0.84120  0.79650  0.34350  1.0000 -0.0506224251
C   C3        1.0  0.83680  0.89820  0.34130  1.0000 -0.1400303114
C   C4        1.0  0.06460  0.04990  0.38360  1.0000 -0.1812626791
C   C5        1.0  0.96940  0.03050  0.35600  1.0000 0.1406081868
C   C6        1.0  0.90560  0.10850  0.33370  1.0000 -0.1812626791
C   C7        1.0  0.15580  0.46090  0.40220  1.0000 -0.041285385
C   C8        1.0  0.16220  0.36000  0.39800  1.0000 -0.1400303114
C   C9        1.0  0.01010  0.40850  0.36630  1.0000 0.083088181
C   C10       1.0  0.93740  0.20480  0.34210  1.0000 -0.1812626791
C   C11       1.0  0.03480  0.22490  0.36800  1.0000 0.1406081868
C   C12       1.0  0.09820  0.14840  0.38920  1.0000 -0.1812626791
C   C13       1.0  0.84700  0.35850  0.99260  1.0000 0.0573741871
C   C14       1.0  0.79650  0.34350  0.84120  1.0000 -0.0506224251
C   C15       1.0  0.89820  0.34130  0.83680  1.0000 -0.1400303114
C   C16       1.0  0.04990  0.38360  0.06460  1.0000 -0.1812626791
C   C17       1.0  0.03050  0.35600  0.96940  1.0000 0.1406081868
C   C18       1.0  0.10850  0.33370  0.90560  1.0000 -0.1812626791
C   C19       1.0  0.46090  0.40220  0.15580  1.0000 -0.041285385
C   C20       1.0  0.36000  0.39800  0.16220  1.0000 -0.1400303114
C   C21       1.0  0.40850  0.36630  0.01010  1.0000 0.083088181
C   C22       1.0  0.20480  0.34210  0.93740  1.0000 -0.1812626791
C   C23       1.0  0.22490  0.36800  0.03480  1.0000 0.1406081868
C   C24       1.0  0.14840  0.38920  0.09820  1.0000 -0.1812626791
C   C25       1.0  0.35850  0.99260  0.84700  1.0000 0.0573741871
C   C26       1.0  0.34350  0.84120  0.79650  1.0000 -0.0506224251
C   C27       1.0  0.34130  0.83680  0.89820  1.0000 -0.1400303114
C   C28       1.0  0.38360  0.06460  0.04990  1.0000 -0.1812626791
C   C29       1.0  0.35600  0.96940  0.03050  1.0000 0.1406081868
C   C30       1.0  0.33370  0.90560  0.10850  1.0000 -0.1812626791
C   C31       1.0  0.40220  0.15580  0.46090  1.0000 -0.041285385
C   C32       1.0  0.39800  0.16220  0.36000  1.0000 -0.1400303114
C   C33       1.0  0.36630  0.01010  0.40850  1.0000 0.083088181
C   C34       1.0  0.34210  0.93740  0.20480  1.0000 -0.1812626791
C   C35       1.0  0.36800  0.03480  0.22490  1.0000 0.1406081868
C   C36       1.0  0.38920  0.09820  0.14840  1.0000 -0.1812626791
C   C37       1.0  0.00740  0.64150  0.15300  1.0000 0.0573741871
C   C38       1.0  0.15880  0.65650  0.20350  1.0000 -0.0506224251
C   C39       1.0  0.16320  0.65870  0.10180  1.0000 -0.1400303114
C   C40       1.0  0.93540  0.61640  0.95010  1.0000 -0.1812626791
C   C41       1.0  0.03060  0.64400  0.96950  1.0000 0.1406081868
C   C42       1.0  0.09440  0.66630  0.89150  1.0000 -0.1812626791
C   C43       1.0  0.84420  0.59780  0.53910  1.0000 -0.041285385
C   C44       1.0  0.83780  0.60200  0.64000  1.0000 -0.1347213372
C   C45       1.0  0.98990  0.63370  0.59150  1.0000 0.083088181
C   C46       1.0  0.06260  0.65790  0.79520  1.0000 -0.1812626791
C   C47       1.0  0.96520  0.63200  0.77510  1.0000 0.1406081868
C   C48       1.0  0.90180  0.61080  0.85160  1.0000 -0.1812626791
C   C49       1.0  0.15300  0.00740  0.64150  1.0000 0.0573741871
C   C50       1.0  0.20350  0.15880  0.65650  1.0000 -0.0506224251
C   C51       1.0  0.10180  0.16320  0.65870  1.0000 -0.1400303114
C   C52       1.0  0.95010  0.93540  0.61640  1.0000 -0.1812626791
C   C53       1.0  0.96950  0.03060  0.64400  1.0000 0.1406081868
C   C54       1.0  0.89150  0.09440  0.66630  1.0000 -0.1812626791
C   C55       1.0  0.53910  0.84420  0.59780  1.0000 -0.041285385
C   C56       1.0  0.64000  0.83780  0.60200  1.0000 -0.1400303114
C   C57       1.0  0.59150  0.98990  0.63370  1.0000 0.083088181
C   C58       1.0  0.79520  0.06260  0.65790  1.0000 -0.1812626791
C   C59       1.0  0.77510  0.96520  0.63200  1.0000 0.1406081868
C   C60       1.0  0.85160  0.90180  0.61080  1.0000 -0.1812626791
C   C61       1.0  0.64150  0.15300  0.00740  1.0000 0.0573741871
C   C62       1.0  0.65650  0.20350  0.15880  1.0000 -0.0506224251
C   C63       1.0  0.65870  0.10180  0.16320  1.0000 -0.1400303114
C   C64       1.0  0.61640  0.95010  0.93540  1.0000 -0.1812626791
C   C65       1.0  0.64400  0.96950  0.03060  1.0000 0.1406081868
C   C66       1.0  0.66630  0.89150  0.09440  1.0000 -0.1812626791
C   C67       1.0  0.59780  0.53910  0.84420  1.0000 -0.041285385
C   C68       1.0  0.60200  0.64000  0.83780  1.0000 -0.1400303114
C   C69       1.0  0.63370  0.59150  0.98990  1.0000 0.083088181
C   C70       1.0  0.65790  0.79520  0.06260  1.0000 -0.1812626791
C   C71       1.0  0.63200  0.77510  0.96520  1.0000 0.1406081868
C   C72       1.0  0.61080  0.85160  0.90180  1.0000 -0.1812626791
N   N1        1.0  0.93896  0.76576  0.35496  1.0000 -0.2721842065
N   N2        1.0  0.93470  0.92920  0.35100  1.0000 -0.0020986165
N   N3        1.0  0.05992  0.49042  0.38192  1.0000 -0.263377203
N   N4        1.0  0.06785  0.32735  0.37695  1.0000 -0.0020986165
N   N5        1.0  0.76576  0.35496  0.93896  1.0000 -0.2721842065
N   N6        1.0  0.92920  0.35100  0.93470  1.0000 -0.0020986165
N   N7        1.0  0.49042  0.38192  0.05992  1.0000 -0.263377203
N   N8        1.0  0.32735  0.37695  0.06785  1.0000 -0.0020986165
N   N9        1.0  0.35496  0.93896  0.76576  1.0000 -0.2721842065
N   N10       1.0  0.35100  0.93470  0.92920  1.0000 -0.0020986165
N   N11       1.0  0.38192  0.05992  0.49042  1.0000 -0.263377203
N   N12       1.0  0.37695  0.06785  0.32735  1.0000 -0.0020986165
N   N13       1.0  0.06104  0.64504  0.23424  1.0000 -0.2721842065
N   N14       1.0  0.06530  0.64900  0.07080  1.0000 -0.0020986165
N   N15       1.0  0.94008  0.61808  0.50958  1.0000 -0.263377203
N   N16       1.0  0.93215  0.62305  0.67265  1.0000 -0.0020986165
N   N17       1.0  0.23424  0.06104  0.64504  1.0000 -0.2721842065
N   N18       1.0  0.07080  0.06530  0.64900  1.0000 -0.0020986165
N   N19       1.0  0.50958  0.94008  0.61808  1.0000 -0.263377203
N   N20       1.0  0.67265  0.93215  0.62305  1.0000 -0.0020986165
N   N21       1.0  0.64504  0.23424  0.06104  1.0000 -0.2721842065
N   N22       1.0  0.64900  0.07080  0.06530  1.0000 -0.0020986165
N   N23       1.0  0.61808  0.50958  0.94008  1.0000 -0.263377203
N   N24       1.0  0.62305  0.67265  0.93215  1.0000 -0.0020986165
F   F1        1.0  0.15852  0.68452  0.44122  1.0000 -0.4357234969
F   F2        1.0  0.28720  0.65570  0.54440  1.0000 -0.041285385
F   F3        1.0  0.30710  0.75900  0.39900  1.0000 -0.020601401
F   F4        1.0  0.16310  0.77030  0.60280  1.0000 -0.0296131767
F   F5        1.0  0.18470  0.86750  0.46270  1.0000 0.0295718973
F   F6        1.0  0.68452  0.44122  0.15852  1.0000 -0.4357234969
F   F7        1.0  0.65570  0.54440  0.28720  1.0000 -0.041285385
F   F8        1.0  0.75900  0.39900  0.30710  1.0000 -0.020601401
F   F9        1.0  0.77030  0.60280  0.16310  1.0000 -0.0296131767
F   F10       1.0  0.86750  0.46270  0.18470  1.0000 0.0295718973
F   F11       1.0  0.44122  0.15852  0.68452  1.0000 -0.4357234969
F   F12       1.0  0.54440  0.28720  0.65570  1.0000 -0.041285385
F   F13       1.0  0.39900  0.30710  0.75900  1.0000 -0.020601401
F   F14       1.0  0.60280  0.16310  0.77030  1.0000 -0.0296131767
F   F15       1.0  0.46270  0.18470  0.86750  1.0000 0.0295718973
F   F16       1.0  0.84148  0.55878  0.31548  1.0000 -0.4357234969
F   F17       1.0  0.71280  0.45560  0.34430  1.0000 -0.041285385
F   F18       1.0  0.69290  0.60100  0.24100  1.0000 -0.020601401
F   F19       1.0  0.83690  0.39720  0.22970  1.0000 -0.0296131767
F   F20       1.0  0.81530  0.53730  0.13250  1.0000 0.0295718973
F   F21       1.0  0.31548  0.84148  0.55878  1.0000 -0.4357234969
F   F22       1.0  0.34430  0.71280  0.45560  1.0000 -0.041285385
F   F23       1.0  0.24100  0.69290  0.60100  1.0000 -0.020601401
F   F24       1.0  0.22970  0.83690  0.39720  1.0000 -0.0296131767
F   F25       1.0  0.13250  0.81530  0.53730  1.0000 0.0295718973
F   F26       1.0  0.55878  0.31548  0.84148  1.0000 -0.4357234969
F   F27       1.0  0.45560  0.34430  0.71280  1.0000 -0.041285385
F   F28       1.0  0.60100  0.24100  0.69290  1.0000 -0.020601401
F   F29       1.0  0.39720  0.22970  0.83690  1.0000 -0.0296131767
F   F30       1.0  0.53730  0.13250  0.81530  1.0000 0.0295718973
