# DDEC6 charges by PACMAN v1.1 (https://github.com/mtap-research/PACMAN-charge/)
data_2023[Cd][nan]2[ASR]2
_chemical_formula_sum              "Cd8 H40 C92 O40"
_cell_length_a       13.4555
_cell_length_b       15.7288
_cell_length_c       19.5797
_cell_angle_alpha    90
_cell_angle_beta     112.699
_cell_angle_gamma    90

_symmetry_space_group_name_H-M    "P 1"
_symmetry_Int_Tables_number       1

loop_
  _symmetry_equiv_pos_as_xyz
  'x, y, z'

loop_
  _atom_site_type_symbol
  _atom_site_label
  _atom_site_symmetry_multiplicity
  _atom_site_fract_x
  _atom_site_fract_y
  _atom_site_fract_z
  _atom_site_occupancy
  _atom_site_charge
Cd  Cd1       1.0  0.99173  0.06990  0.69737  1.0000 0.986678303
Cd  Cd2       1.0  0.00827  0.56990  0.80263  1.0000 0.986678303
Cd  Cd3       1.0  0.00827  0.93010  0.30263  1.0000 0.986678303
Cd  Cd4       1.0  0.99173  0.43010  0.19737  1.0000 0.986678303
Cd  Cd5       1.0  0.91725  0.15949  0.22831  1.0000 1.0471882082
Cd  Cd6       1.0  0.08275  0.65949  0.27169  1.0000 1.0471882082
Cd  Cd7       1.0  0.08275  0.84051  0.77169  1.0000 1.0471882082
Cd  Cd8       1.0  0.91725  0.34051  0.72831  1.0000 1.0471882082
H   H1        1.0  0.79510  0.49420  0.50440  1.0000 0.3772962249
H   H2        1.0  0.20490  0.99420  0.99560  1.0000 0.3772962249
H   H3        1.0  0.20490  0.50580  0.49560  1.0000 0.3772962249
H   H4        1.0  0.79510  0.00580  0.00440  1.0000 0.3772962249
H   H5        1.0  0.52030  0.32580  0.44330  1.0000 0.1208285246
H   H6        1.0  0.47970  0.82580  0.05670  1.0000 0.1208285246
H   H7        1.0  0.47970  0.67420  0.55670  1.0000 0.1208285246
H   H8        1.0  0.52030  0.17420  0.94330  1.0000 0.1208285246
H   H9        1.0  0.20240  0.35210  0.41390  1.0000 0.1208285246
H   H10       1.0  0.79760  0.85210  0.08610  1.0000 0.1208285246
H   H11       1.0  0.79760  0.64790  0.58610  1.0000 0.1208285246
H   H12       1.0  0.20240  0.14790  0.91390  1.0000 0.1208285246
H   H13       1.0  0.55260  0.57500  0.41550  1.0000 0.1142835997
H   H14       1.0  0.44740  0.07500  0.08450  1.0000 0.1142835997
H   H15       1.0  0.44740  0.42500  0.58450  1.0000 0.1142835997
H   H16       1.0  0.55260  0.92500  0.91550  1.0000 0.1142835997
H   H17       1.0  0.36920  0.58600  0.35470  1.0000 0.1208285246
H   H18       1.0  0.63080  0.08600  0.14530  1.0000 0.1208285246
H   H19       1.0  0.63080  0.41400  0.64530  1.0000 0.1208285246
H   H20       1.0  0.36920  0.91400  0.85470  1.0000 0.1208285246
H   H21       1.0  0.31360  0.10390  0.34050  1.0000 0.1208285246
H   H22       1.0  0.68640  0.60390  0.15950  1.0000 0.1208285246
H   H23       1.0  0.68640  0.89610  0.65950  1.0000 0.1208285246
H   H24       1.0  0.31360  0.39610  0.84050  1.0000 0.1208285246
H   H25       1.0  0.12160  0.14000  0.49430  1.0000 0.1299252405
H   H26       1.0  0.87840  0.64000  0.00570  1.0000 0.1299252405
H   H27       1.0  0.87840  0.86000  0.50570  1.0000 0.1299252405
H   H28       1.0  0.12160  0.36000  0.99430  1.0000 0.1299252405
H   H29       1.0  0.86710  0.26860  0.49920  1.0000 0.1299252405
H   H30       1.0  0.13290  0.76860  0.00080  1.0000 0.1299252405
H   H31       1.0  0.13290  0.73140  0.50080  1.0000 0.1299252405
H   H32       1.0  0.86710  0.23140  0.99920  1.0000 0.1299252405
H   H33       1.0  0.86210  0.34950  0.39920  1.0000 0.1208285246
H   H34       1.0  0.13790  0.84950  0.10080  1.0000 0.1208285246
H   H35       1.0  0.13790  0.65050  0.60080  1.0000 0.1208285246
H   H36       1.0  0.86210  0.15050  0.89920  1.0000 0.1208285246
H   H37       1.0  0.41090  0.22660  0.35140  1.0000 0.1208285246
H   H38       1.0  0.58910  0.72660  0.14860  1.0000 0.1208285246
H   H39       1.0  0.58910  0.77340  0.64860  1.0000 0.1208285246
H   H40       1.0  0.41090  0.27340  0.85140  1.0000 0.1208285246
C   C1        1.0  0.31390  0.30350  0.38050  1.0000 0.0921706937
C   C2        1.0  0.68610  0.80350  0.11950  1.0000 0.0921706937
C   C3        1.0  0.68610  0.69650  0.61950  1.0000 0.0921706937
C   C4        1.0  0.31390  0.19650  0.88050  1.0000 0.0921706937
C   C5        1.0  0.48960  0.37810  0.42470  1.0000 -0.1440663033
C   C6        1.0  0.51040  0.87810  0.07530  1.0000 -0.1455896162
C   C7        1.0  0.51040  0.62190  0.57530  1.0000 -0.1440663033
C   C8        1.0  0.48960  0.12190  0.92470  1.0000 -0.1440663033
C   C9        1.0  0.33260  0.46280  0.36040  1.0000 -0.0507746853
C   C10       1.0  0.66740  0.96280  0.13960  1.0000 -0.0507746853
C   C11       1.0  0.66740  0.53720  0.63960  1.0000 -0.0507746853
C   C12       1.0  0.33260  0.03720  0.86040  1.0000 -0.0507746853
C   C13       1.0  0.37860  0.38320  0.38780  1.0000 0.0494307762
C   C14       1.0  0.62140  0.88320  0.11220  1.0000 0.0494307762
C   C15       1.0  0.62140  0.61680  0.61220  1.0000 0.0494307762
C   C16       1.0  0.37860  0.11680  0.88780  1.0000 0.0494307762
C   C17       1.0  0.22350  0.30230  0.39770  1.0000 -0.1656821624
C   C18       1.0  0.77650  0.80230  0.10230  1.0000 -0.1656821624
C   C19       1.0  0.77650  0.69770  0.60230  1.0000 -0.1656821624
C   C20       1.0  0.22350  0.19770  0.89770  1.0000 -0.1656821624
C   C21       1.0  0.67390  0.43630  0.47360  1.0000 0.5420122515
C   C22       1.0  0.32610  0.93630  0.02640  1.0000 0.5420122515
C   C23       1.0  0.32610  0.56370  0.52640  1.0000 0.5420122515
C   C24       1.0  0.67390  0.06370  0.97360  1.0000 0.5420122515
C   C25       1.0  0.21390  0.47620  0.31510  1.0000 0.5870612122
C   C26       1.0  0.78610  0.97620  0.18490  1.0000 0.5870612122
C   C27       1.0  0.78610  0.52380  0.68490  1.0000 0.5870612122
C   C28       1.0  0.21390  0.02380  0.81510  1.0000 0.5870612122
C   C29       1.0  0.55650  0.44860  0.43480  1.0000 -0.0430751957
C   C30       1.0  0.44350  0.94860  0.06520  1.0000 -0.0430751957
C   C31       1.0  0.44350  0.55140  0.56520  1.0000 -0.0430751957
C   C32       1.0  0.55650  0.05140  0.93480  1.0000 -0.0430751957
C   C33       1.0  0.50970  0.52690  0.40850  1.0000 -0.1097446276
C   C34       1.0  0.49030  0.02690  0.09150  1.0000 -0.1097446276
C   C35       1.0  0.49030  0.47310  0.59150  1.0000 -0.1097446276
C   C36       1.0  0.50970  0.97310  0.90850  1.0000 -0.1097446276
C   C37       1.0  0.39950  0.53320  0.37200  1.0000 -0.1097446276
C   C38       1.0  0.60050  0.03320  0.12800  1.0000 -0.1097446276
C   C39       1.0  0.60050  0.46680  0.62800  1.0000 -0.1097446276
C   C40       1.0  0.39950  0.96680  0.87200  1.0000 -0.1097446276
C   C41       1.0  0.19570  0.15310  0.36750  1.0000 -0.0833360079
C   C42       1.0  0.80430  0.65310  0.13250  1.0000 -0.0833360079
C   C43       1.0  0.80430  0.84690  0.63250  1.0000 -0.0833360079
C   C44       1.0  0.19570  0.34690  0.86750  1.0000 -0.087666706
C   C45       1.0  0.06980  0.23250  0.41580  1.0000 0.0416672377
C   C46       1.0  0.93020  0.73250  0.08420  1.0000 0.0416672377
C   C47       1.0  0.93020  0.76750  0.58420  1.0000 0.0416672377
C   C48       1.0  0.06980  0.26750  0.91580  1.0000 0.0416672377
C   C49       1.0  0.13040  0.07310  0.34960  1.0000 0.577750989
C   C50       1.0  0.86960  0.57310  0.15040  1.0000 0.577750989
C   C51       1.0  0.86960  0.92690  0.65040  1.0000 0.577750989
C   C52       1.0  0.13040  0.42690  0.84960  1.0000 0.577750989
C   C53       1.0  0.16250  0.22810  0.39150  1.0000 0.0625620268
C   C54       1.0  0.83750  0.72810  0.10850  1.0000 0.0625620268
C   C55       1.0  0.83750  0.77190  0.60850  1.0000 0.0625620268
C   C56       1.0  0.16250  0.27190  0.89150  1.0000 0.0625620268
C   C57       1.0  0.28950  0.15400  0.35410  1.0000 -0.0833360079
C   C58       1.0  0.71050  0.65400  0.14590  1.0000 -0.0833360079
C   C59       1.0  0.71050  0.84600  0.64590  1.0000 -0.0833360079
C   C60       1.0  0.28950  0.34600  0.85410  1.0000 -0.0833360079
C   C61       1.0  0.97810  0.34140  0.31720  1.0000 0.577750989
C   C62       1.0  0.02190  0.84140  0.18280  1.0000 0.577750989
C   C63       1.0  0.02190  0.65860  0.68280  1.0000 0.577750989
C   C64       1.0  0.97810  0.15860  0.81720  1.0000 0.577750989
C   C65       1.0  0.98940  0.29370  0.38640  1.0000 -0.0833360079
C   C66       1.0  0.01060  0.79370  0.11360  1.0000 -0.0833360079
C   C67       1.0  0.01060  0.70630  0.61360  1.0000 -0.0833360079
C   C68       1.0  0.98940  0.20630  0.88640  1.0000 -0.0833360079
C   C69       1.0  0.06970  0.18210  0.47500  1.0000 -0.1218722493
C   C70       1.0  0.93030  0.68210  0.02500  1.0000 -0.1218722493
C   C71       1.0  0.93030  0.81790  0.52500  1.0000 -0.1218722493
C   C72       1.0  0.06970  0.31790  0.97500  1.0000 -0.1218722493
C   C73       1.0  0.91650  0.25860  0.47750  1.0000 -0.087666706
C   C74       1.0  0.08350  0.75860  0.02250  1.0000 -0.087666706
C   C75       1.0  0.08350  0.74140  0.52250  1.0000 -0.087666706
C   C76       1.0  0.91650  0.24140  0.97750  1.0000 -0.087666706
C   C77       1.0  0.91410  0.30740  0.41810  1.0000 -0.1097446276
C   C78       1.0  0.08590  0.80740  0.08190  1.0000 -0.1097446276
C   C79       1.0  0.08590  0.69260  0.58190  1.0000 -0.1097446276
C   C80       1.0  0.91410  0.19260  0.91810  1.0000 -0.1097446276
C   C81       1.0  0.99300  0.19470  0.50470  1.0000 0.0066431674
C   C82       1.0  0.00700  0.69470  0.99530  1.0000 0.0066431674
C   C83       1.0  0.00700  0.80530  0.49530  1.0000 0.0066431674
C   C84       1.0  0.99300  0.30530  0.00470  1.0000 0.0066431674
C   C85       1.0  0.99530  0.14060  0.56960  1.0000 0.5420122515
C   C86       1.0  0.00470  0.64060  0.93040  1.0000 0.5420122515
C   C87       1.0  0.00470  0.85940  0.43040  1.0000 0.5451423384
C   C88       1.0  0.99530  0.35940  0.06960  1.0000 0.5420122515
C   C89       1.0  0.34800  0.22770  0.36050  1.0000 -0.1455896162
C   C90       1.0  0.65200  0.72770  0.13950  1.0000 -0.1455896162
C   C91       1.0  0.65200  0.77230  0.63950  1.0000 -0.1455896162
C   C92       1.0  0.34800  0.27230  0.86050  1.0000 -0.1455896162
O   O1        1.0  0.73100  0.50580  0.48340  1.0000 -0.4411036664
O   O2        1.0  0.26900  0.00580  0.01660  1.0000 -0.4411036664
O   O3        1.0  0.26900  0.49420  0.51660  1.0000 -0.4411036664
O   O4        1.0  0.73100  0.99420  0.98340  1.0000 -0.4411036664
O   O5        1.0  0.71350  0.36680  0.49450  1.0000 -0.4898816191
O   O6        1.0  0.28650  0.86680  0.00550  1.0000 -0.4898816191
O   O7        1.0  0.28650  0.63320  0.50550  1.0000 -0.4898816191
O   O8        1.0  0.71350  0.13320  0.99450  1.0000 -0.4898816191
O   O9        1.0  0.02766  0.07801  0.32256  1.0000 -0.5866803073
O   O10       1.0  0.97234  0.57801  0.17744  1.0000 -0.5866803073
O   O11       1.0  0.97234  0.92199  0.67744  1.0000 -0.5866803073
O   O12       1.0  0.02766  0.42199  0.82256  1.0000 -0.5866803073
O   O13       1.0  0.17620  0.00324  0.35790  1.0000 -0.4799086892
O   O14       1.0  0.82380  0.50324  0.14210  1.0000 -0.4799086892
O   O15       1.0  0.82380  0.99676  0.64210  1.0000 -0.4799086892
O   O16       1.0  0.17620  0.49676  0.85790  1.0000 -0.4799086892
O   O17       1.0  0.97175  0.42069  0.31565  1.0000 -0.5077464275
O   O18       1.0  0.02825  0.92069  0.18435  1.0000 -0.5077464275
O   O19       1.0  0.02825  0.57931  0.68435  1.0000 -0.5077464275
O   O20       1.0  0.97175  0.07931  0.81565  1.0000 -0.5077464275
O   O21       1.0  0.97458  0.29837  0.26148  1.0000 -0.5847426497
O   O22       1.0  0.02542  0.79837  0.23852  1.0000 -0.5847426497
O   O23       1.0  0.02542  0.70163  0.73852  1.0000 -0.5847426497
O   O24       1.0  0.97458  0.20163  0.76148  1.0000 -0.5847426497
O   O25       1.0  0.16865  0.42360  0.26425  1.0000 -0.5190074586
O   O26       1.0  0.83135  0.92360  0.23575  1.0000 -0.5190074586
O   O27       1.0  0.83135  0.57640  0.73575  1.0000 -0.5190074586
O   O28       1.0  0.16865  0.07640  0.76425  1.0000 -0.5190074586
O   O29       1.0  0.17091  0.53980  0.33051  1.0000 -0.5951793336
O   O30       1.0  0.82909  0.03980  0.16949  1.0000 -0.5951793336
O   O31       1.0  0.82909  0.46020  0.66949  1.0000 -0.5951793336
O   O32       1.0  0.17091  0.96020  0.83051  1.0000 -0.5951793336
O   O33       1.0  0.93039  0.15920  0.59929  1.0000 -0.5386831753
O   O34       1.0  0.06961  0.65920  0.90071  1.0000 -0.5386831753
O   O35       1.0  0.06961  0.84080  0.40071  1.0000 -0.5386831753
O   O36       1.0  0.93039  0.34080  0.09929  1.0000 -0.5386831753
O   O37       1.0  0.06010  0.08190  0.59180  1.0000 -0.5077464275
O   O38       1.0  0.93990  0.58190  0.90820  1.0000 -0.5077464275
O   O39       1.0  0.93990  0.91810  0.40820  1.0000 -0.5077464275
O   O40       1.0  0.06010  0.41810  0.09180  1.0000 -0.5077464275
