# DDEC6 charges by PACMAN v1.1 (https://github.com/mtap-research/PACMAN-charge/)
data_2023[Zr][nbo]3[ASR]1
_chemical_formula_sum              "Zr36 H324 C540 O168"
_cell_length_a       42.198
_cell_length_b       42.198
_cell_length_c       42.198
_cell_angle_alpha    60
_cell_angle_beta     60
_cell_angle_gamma    60

_symmetry_space_group_name_H-M    "P 1"
_symmetry_Int_Tables_number       1

loop_
  _symmetry_equiv_pos_as_xyz
  'x, y, z'

loop_
  _atom_site_type_symbol
  _atom_site_label
  _atom_site_symmetry_multiplicity
  _atom_site_fract_x
  _atom_site_fract_y
  _atom_site_fract_z
  _atom_site_occupancy
  _atom_site_charge
Zr  Zr1       1.0  0.99998  0.00002  0.44222  1.0000 2.3512513013
Zr  Zr2       1.0  0.00002  0.99998  0.55778  1.0000 2.3512513013
Zr  Zr3       1.0  0.44222  0.55778  0.99998  1.0000 2.3512513013
Zr  Zr4       1.0  0.55778  0.44222  0.00002  1.0000 2.3561880918
Zr  Zr5       1.0  0.44222  0.99998  0.00002  1.0000 2.3512513013
Zr  Zr6       1.0  0.55778  0.00002  0.99998  1.0000 2.3512513013
Zr  Zr7       1.0  0.99998  0.44222  0.55778  1.0000 2.3512513013
Zr  Zr8       1.0  0.00002  0.55778  0.44222  1.0000 2.3512513013
Zr  Zr9       1.0  0.00002  0.44222  0.99998  1.0000 2.3512513013
Zr  Zr10      1.0  0.99998  0.55778  0.00002  1.0000 2.3561880918
Zr  Zr11      1.0  0.55778  0.99998  0.44222  1.0000 2.3512513013
Zr  Zr12      1.0  0.44222  0.00002  0.55778  1.0000 2.3512513013
Zr  Zr13      1.0  0.07170  0.98774  0.47026  1.0000 2.4467225079
Zr  Zr14      1.0  0.98774  0.07170  0.47030  1.0000 2.4467225079
Zr  Zr15      1.0  0.47026  0.47030  0.07170  1.0000 2.4467225079
Zr  Zr16      1.0  0.47030  0.47026  0.98774  1.0000 2.4467225079
Zr  Zr17      1.0  0.47026  0.07170  0.98774  1.0000 2.4467225079
Zr  Zr18      1.0  0.47030  0.98774  0.07170  1.0000 2.4467225079
Zr  Zr19      1.0  0.07170  0.47026  0.47030  1.0000 2.4467225079
Zr  Zr20      1.0  0.98774  0.47030  0.47026  1.0000 2.4467225079
Zr  Zr21      1.0  0.98774  0.47026  0.07170  1.0000 2.4467225079
Zr  Zr22      1.0  0.07170  0.47030  0.98774  1.0000 2.4467225079
Zr  Zr23      1.0  0.47030  0.07170  0.47026  1.0000 2.4467225079
Zr  Zr24      1.0  0.47026  0.98774  0.47030  1.0000 2.4445028635
Zr  Zr25      1.0  0.92830  0.01226  0.52974  1.0000 2.4467225079
Zr  Zr26      1.0  0.01226  0.92830  0.52970  1.0000 2.4445028635
Zr  Zr27      1.0  0.52974  0.52970  0.92830  1.0000 2.4467225079
Zr  Zr28      1.0  0.52970  0.52974  0.01226  1.0000 2.4467225079
Zr  Zr29      1.0  0.52974  0.92830  0.01226  1.0000 2.4467225079
Zr  Zr30      1.0  0.52970  0.01226  0.92830  1.0000 2.4467225079
Zr  Zr31      1.0  0.92830  0.52974  0.52970  1.0000 2.4467225079
Zr  Zr32      1.0  0.01226  0.52970  0.52974  1.0000 2.4467225079
Zr  Zr33      1.0  0.01226  0.52974  0.92830  1.0000 2.4467225079
Zr  Zr34      1.0  0.92830  0.52970  0.01226  1.0000 2.4467225079
Zr  Zr35      1.0  0.52970  0.92830  0.52974  1.0000 2.4467225079
Zr  Zr36      1.0  0.52974  0.01226  0.52970  1.0000 2.4467225079
H   H1        1.0  0.03470  0.91878  0.38982  1.0000 0.1193188685
H   H2        1.0  0.91878  0.03470  0.65670  1.0000 0.1193188685
H   H3        1.0  0.38982  0.65670  0.03470  1.0000 0.1193188685
H   H4        1.0  0.65670  0.38982  0.91878  1.0000 0.1193188685
H   H5        1.0  0.38982  0.03470  0.91878  1.0000 0.1193188685
H   H6        1.0  0.65670  0.91878  0.03470  1.0000 0.1193188685
H   H7        1.0  0.03470  0.38982  0.65670  1.0000 0.1193188685
H   H8        1.0  0.91878  0.65670  0.38982  1.0000 0.1193188685
H   H9        1.0  0.91878  0.38982  0.03470  1.0000 0.1193188685
H   H10       1.0  0.03470  0.65670  0.91878  1.0000 0.1193188685
H   H11       1.0  0.65670  0.03470  0.38982  1.0000 0.1193188685
H   H12       1.0  0.38982  0.91878  0.65670  1.0000 0.1193188685
H   H13       1.0  0.96530  0.08122  0.61018  1.0000 0.1193188685
H   H14       1.0  0.08122  0.96530  0.34330  1.0000 0.1193188685
H   H15       1.0  0.61018  0.34330  0.96530  1.0000 0.1193188685
H   H16       1.0  0.34330  0.61018  0.08122  1.0000 0.1278462127
H   H17       1.0  0.61018  0.96530  0.08122  1.0000 0.1193188685
H   H18       1.0  0.34330  0.08122  0.96530  1.0000 0.1193188685
H   H19       1.0  0.96530  0.61018  0.34330  1.0000 0.1193188685
H   H20       1.0  0.08122  0.34330  0.61018  1.0000 0.1193188685
H   H21       1.0  0.08122  0.61018  0.96530  1.0000 0.1193188685
H   H22       1.0  0.96530  0.34330  0.08122  1.0000 0.1193188685
H   H23       1.0  0.34330  0.96530  0.61018  1.0000 0.1193188685
H   H24       1.0  0.61018  0.08122  0.34330  1.0000 0.1193188685
H   H25       1.0  0.03209  0.65797  0.39089  1.0000 0.1278462127
H   H26       1.0  0.65797  0.03209  0.91905  1.0000 0.1278462127
H   H27       1.0  0.39089  0.91905  0.03209  1.0000 0.1278462127
H   H28       1.0  0.91905  0.39089  0.65797  1.0000 0.1278462127
H   H29       1.0  0.39089  0.03209  0.65797  1.0000 0.1278462127
H   H30       1.0  0.91905  0.65797  0.03209  1.0000 0.1278462127
H   H31       1.0  0.03209  0.39089  0.91905  1.0000 0.1278462127
H   H32       1.0  0.65797  0.91905  0.39089  1.0000 0.1278462127
H   H33       1.0  0.65797  0.39089  0.03209  1.0000 0.1278462127
H   H34       1.0  0.03209  0.91905  0.65797  1.0000 0.1278462127
H   H35       1.0  0.91905  0.03209  0.39089  1.0000 0.1278462127
H   H36       1.0  0.39089  0.65797  0.91905  1.0000 0.1278462127
H   H37       1.0  0.96791  0.34203  0.60911  1.0000 0.1278462127
H   H38       1.0  0.34203  0.96791  0.08095  1.0000 0.1278462127
H   H39       1.0  0.60911  0.08095  0.96791  1.0000 0.1278462127
H   H40       1.0  0.08095  0.60911  0.34203  1.0000 0.1278462127
H   H41       1.0  0.60911  0.96791  0.34203  1.0000 0.1278462127
H   H42       1.0  0.08095  0.34203  0.96791  1.0000 0.1278462127
H   H43       1.0  0.96791  0.60911  0.08095  1.0000 0.1278462127
H   H44       1.0  0.34203  0.08095  0.60911  1.0000 0.1278462127
H   H45       1.0  0.34203  0.60911  0.96791  1.0000 0.1278462127
H   H46       1.0  0.96791  0.08095  0.34203  1.0000 0.1278462127
H   H47       1.0  0.08095  0.96791  0.60911  1.0000 0.1278462127
H   H48       1.0  0.60911  0.34203  0.08095  1.0000 0.1278462127
H   H49       1.0  0.02539  0.83667  0.49221  1.0000 0.1006730299
H   H50       1.0  0.83667  0.02539  0.64573  1.0000 0.1006730299
H   H51       1.0  0.49220  0.64573  0.02539  1.0000 0.1006730299
H   H52       1.0  0.64574  0.49221  0.83667  1.0000 0.1006730299
H   H53       1.0  0.49220  0.02539  0.83667  1.0000 0.1006730299
H   H54       1.0  0.64574  0.83667  0.02539  1.0000 0.1006730299
H   H55       1.0  0.02539  0.49221  0.64573  1.0000 0.1006730299
H   H56       1.0  0.83667  0.64573  0.49221  1.0000 0.1071985166
H   H57       1.0  0.83667  0.49221  0.02539  1.0000 0.1006730299
H   H58       1.0  0.02538  0.64574  0.83667  1.0000 0.1006730299
H   H59       1.0  0.64574  0.02539  0.49221  1.0000 0.1006730299
H   H60       1.0  0.49221  0.83667  0.64573  1.0000 0.1071985166
H   H61       1.0  0.97462  0.16333  0.50779  1.0000 0.1006730299
H   H62       1.0  0.16332  0.97462  0.35426  1.0000 0.1071985166
H   H63       1.0  0.50779  0.35427  0.97462  1.0000 0.1006730299
H   H64       1.0  0.35426  0.50779  0.16332  1.0000 0.1071985166
H   H65       1.0  0.50779  0.97462  0.16332  1.0000 0.1006730299
H   H66       1.0  0.35427  0.16333  0.97462  1.0000 0.1071985166
H   H67       1.0  0.97462  0.50779  0.35426  1.0000 0.1006730299
H   H68       1.0  0.16333  0.35426  0.50779  1.0000 0.1006730299
H   H69       1.0  0.16333  0.50779  0.97462  1.0000 0.1071985166
H   H70       1.0  0.97462  0.35426  0.16332  1.0000 0.1006730299
H   H71       1.0  0.35427  0.97462  0.50779  1.0000 0.1006730299
H   H72       1.0  0.50779  0.16333  0.35426  1.0000 0.1071985166
H   H73       1.0  0.04577  0.69810  0.46419  1.0000 0.1193188685
H   H74       1.0  0.69810  0.04577  0.79195  1.0000 0.1193188685
H   H75       1.0  0.46418  0.79195  0.04577  1.0000 0.1193188685
H   H76       1.0  0.79195  0.46419  0.69810  1.0000 0.1193188685
H   H77       1.0  0.46419  0.04576  0.69810  1.0000 0.1193188685
H   H78       1.0  0.79195  0.69810  0.04577  1.0000 0.1193188685
H   H79       1.0  0.04576  0.46419  0.79195  1.0000 0.1193188685
H   H80       1.0  0.69810  0.79195  0.46419  1.0000 0.1193188685
H   H81       1.0  0.69810  0.46419  0.04577  1.0000 0.1193188685
H   H82       1.0  0.04576  0.79195  0.69810  1.0000 0.1193188685
H   H83       1.0  0.79195  0.04577  0.46419  1.0000 0.1193188685
H   H84       1.0  0.46418  0.69810  0.79195  1.0000 0.1193188685
H   H85       1.0  0.95423  0.30190  0.53582  1.0000 0.1193188685
H   H86       1.0  0.30190  0.95424  0.20805  1.0000 0.1193188685
H   H87       1.0  0.53582  0.20805  0.95423  1.0000 0.1193188685
H   H88       1.0  0.20805  0.53582  0.30190  1.0000 0.1193188685
H   H89       1.0  0.53582  0.95424  0.30190  1.0000 0.1193188685
H   H90       1.0  0.20804  0.30190  0.95423  1.0000 0.1193188685
H   H91       1.0  0.95423  0.53582  0.20805  1.0000 0.1193188685
H   H92       1.0  0.30190  0.20805  0.53582  1.0000 0.1193188685
H   H93       1.0  0.30190  0.53582  0.95423  1.0000 0.1193188685
H   H94       1.0  0.95423  0.20804  0.30190  1.0000 0.1193188685
H   H95       1.0  0.20804  0.95423  0.53582  1.0000 0.1193188685
H   H96       1.0  0.53582  0.30190  0.20805  1.0000 0.1193188685
H   H97       1.0  0.05378  0.71096  0.36052  1.0000 0.1071985166
H   H98       1.0  0.71096  0.05378  0.87474  1.0000 0.1071985166
H   H99       1.0  0.36052  0.87474  0.05378  1.0000 0.1071985166
H   H100      1.0  0.87474  0.36052  0.71096  1.0000 0.1071985166
H   H101      1.0  0.36052  0.05378  0.71096  1.0000 0.1071985166
H   H102      1.0  0.87474  0.71096  0.05378  1.0000 0.1071985166
H   H103      1.0  0.05378  0.36052  0.87474  1.0000 0.1071985166
H   H104      1.0  0.71096  0.87474  0.36052  1.0000 0.1071985166
H   H105      1.0  0.71096  0.36052  0.05378  1.0000 0.1071985166
H   H106      1.0  0.05378  0.87474  0.71096  1.0000 0.1071985166
H   H107      1.0  0.87474  0.05378  0.36052  1.0000 0.1071985166
H   H108      1.0  0.36052  0.71096  0.87474  1.0000 0.1071985166
H   H109      1.0  0.94622  0.28904  0.63948  1.0000 0.1071985166
H   H110      1.0  0.28904  0.94622  0.12526  1.0000 0.1071985166
H   H111      1.0  0.63948  0.12526  0.94622  1.0000 0.1071985166
H   H112      1.0  0.12526  0.63948  0.28904  1.0000 0.1071985166
H   H113      1.0  0.63948  0.94622  0.28904  1.0000 0.1071985166
H   H114      1.0  0.12526  0.28904  0.94622  1.0000 0.1071985166
H   H115      1.0  0.94622  0.63948  0.12526  1.0000 0.1071985166
H   H116      1.0  0.28904  0.12526  0.63948  1.0000 0.1071985166
H   H117      1.0  0.28904  0.63948  0.94622  1.0000 0.1071985166
H   H118      1.0  0.94622  0.12526  0.28904  1.0000 0.1071985166
H   H119      1.0  0.12526  0.94622  0.63948  1.0000 0.1071985166
H   H120      1.0  0.63948  0.28904  0.12526  1.0000 0.1071985166
H   H121      1.0  0.02678  0.64538  0.49182  1.0000 0.1071985166
H   H122      1.0  0.64538  0.02678  0.83602  1.0000 0.1071985166
H   H123      1.0  0.49182  0.83602  0.02678  1.0000 0.1071985166
H   H124      1.0  0.83602  0.49182  0.64538  1.0000 0.1071985166
H   H125      1.0  0.49182  0.02678  0.64538  1.0000 0.1006730299
H   H126      1.0  0.83602  0.64538  0.02678  1.0000 0.1071985166
H   H127      1.0  0.02678  0.49182  0.83602  1.0000 0.1071985166
H   H128      1.0  0.64538  0.83602  0.49182  1.0000 0.1071985166
H   H129      1.0  0.64538  0.49182  0.02678  1.0000 0.1071985166
H   H130      1.0  0.02678  0.83602  0.64538  1.0000 0.1071985166
H   H131      1.0  0.83602  0.02678  0.49182  1.0000 0.1071985166
H   H132      1.0  0.49182  0.64538  0.83602  1.0000 0.1071985166
H   H133      1.0  0.97322  0.35462  0.50818  1.0000 0.1071985166
H   H134      1.0  0.35462  0.97322  0.16398  1.0000 0.1071985166
H   H135      1.0  0.50818  0.16398  0.97322  1.0000 0.1006730299
H   H136      1.0  0.16398  0.50818  0.35462  1.0000 0.1071985166
H   H137      1.0  0.50818  0.97322  0.35462  1.0000 0.1071985166
H   H138      1.0  0.16398  0.35462  0.97322  1.0000 0.1006730299
H   H139      1.0  0.97322  0.50818  0.16398  1.0000 0.1006730299
H   H140      1.0  0.35462  0.16398  0.50818  1.0000 0.1071985166
H   H141      1.0  0.35462  0.50818  0.97322  1.0000 0.1071985166
H   H142      1.0  0.97322  0.16398  0.35462  1.0000 0.1071985166
H   H143      1.0  0.16398  0.97322  0.50818  1.0000 0.1006730299
H   H144      1.0  0.50818  0.35462  0.16398  1.0000 0.1071985166
H   H145      1.0  0.05037  0.87535  0.36015  1.0000 0.1071985166
H   H146      1.0  0.87535  0.05037  0.71413  1.0000 0.1071985166
H   H147      1.0  0.36015  0.71413  0.05037  1.0000 0.1071985166
H   H148      1.0  0.71413  0.36015  0.87535  1.0000 0.1071985166
H   H149      1.0  0.36015  0.05037  0.87535  1.0000 0.1071985166
H   H150      1.0  0.71413  0.87535  0.05037  1.0000 0.1071985166
H   H151      1.0  0.05037  0.36015  0.71413  1.0000 0.1071985166
H   H152      1.0  0.87535  0.71413  0.36015  1.0000 0.1071985166
H   H153      1.0  0.87535  0.36015  0.05037  1.0000 0.1071985166
H   H154      1.0  0.05037  0.71413  0.87535  1.0000 0.1071985166
H   H155      1.0  0.71413  0.05037  0.36015  1.0000 0.1071985166
H   H156      1.0  0.36015  0.87535  0.71413  1.0000 0.1071985166
H   H157      1.0  0.94963  0.12465  0.63985  1.0000 0.1071985166
H   H158      1.0  0.12465  0.94963  0.28587  1.0000 0.1071985166
H   H159      1.0  0.63985  0.28587  0.94963  1.0000 0.1071985166
H   H160      1.0  0.28587  0.63985  0.12465  1.0000 0.1071985166
H   H161      1.0  0.63985  0.94963  0.12465  1.0000 0.1071985166
H   H162      1.0  0.28587  0.12465  0.94963  1.0000 0.1071985166
H   H163      1.0  0.94963  0.63985  0.28587  1.0000 0.1071985166
H   H164      1.0  0.12465  0.28587  0.63985  1.0000 0.1071985166
H   H165      1.0  0.12465  0.63985  0.94963  1.0000 0.1071985166
H   H166      1.0  0.94963  0.28587  0.12465  1.0000 0.1071985166
H   H167      1.0  0.28587  0.94963  0.63985  1.0000 0.1071985166
H   H168      1.0  0.63985  0.12465  0.28587  1.0000 0.1071985166
H   H169      1.0  0.04736  0.79138  0.46526  1.0000 0.1193188685
H   H170      1.0  0.79138  0.04736  0.69600  1.0000 0.1193188685
H   H171      1.0  0.46526  0.69600  0.04736  1.0000 0.1193188685
H   H172      1.0  0.69600  0.46526  0.79138  1.0000 0.1193188685
H   H173      1.0  0.46526  0.04736  0.79138  1.0000 0.1193188685
H   H174      1.0  0.69600  0.79138  0.04736  1.0000 0.1193188685
H   H175      1.0  0.04736  0.46526  0.69600  1.0000 0.1193188685
H   H176      1.0  0.79138  0.69600  0.46526  1.0000 0.1193188685
H   H177      1.0  0.79138  0.46526  0.04736  1.0000 0.1193188685
H   H178      1.0  0.04736  0.69600  0.79138  1.0000 0.1193188685
H   H179      1.0  0.69600  0.04736  0.46526  1.0000 0.1193188685
H   H180      1.0  0.46526  0.79138  0.69600  1.0000 0.1193188685
H   H181      1.0  0.95264  0.20862  0.53474  1.0000 0.1193188685
H   H182      1.0  0.20862  0.95264  0.30400  1.0000 0.1193188685
H   H183      1.0  0.53474  0.30400  0.95264  1.0000 0.1193188685
H   H184      1.0  0.30400  0.53474  0.20862  1.0000 0.1193188685
H   H185      1.0  0.53474  0.95264  0.20862  1.0000 0.1193188685
H   H186      1.0  0.30400  0.20862  0.95264  1.0000 0.1193188685
H   H187      1.0  0.95264  0.53474  0.30400  1.0000 0.1193188685
H   H188      1.0  0.20862  0.30400  0.53474  1.0000 0.1193188685
H   H189      1.0  0.20862  0.53474  0.95264  1.0000 0.1193188685
H   H190      1.0  0.95264  0.30400  0.20862  1.0000 0.1193188685
H   H191      1.0  0.30400  0.95264  0.53474  1.0000 0.1193188685
H   H192      1.0  0.53474  0.20862  0.30400  1.0000 0.1193188685
H   H193      1.0  0.10316  0.82578  0.34164  1.0000 0.1193188685
H   H194      1.0  0.82578  0.10316  0.72942  1.0000 0.1193188685
H   H195      1.0  0.34164  0.72942  0.10316  1.0000 0.1193188685
H   H196      1.0  0.72942  0.34164  0.82578  1.0000 0.1193188685
H   H197      1.0  0.34164  0.10316  0.82578  1.0000 0.1193188685
H   H198      1.0  0.72942  0.82578  0.10316  1.0000 0.1193188685
H   H199      1.0  0.10316  0.34164  0.72942  1.0000 0.1193188685
H   H200      1.0  0.82578  0.72942  0.34164  1.0000 0.1193188685
H   H201      1.0  0.82578  0.34164  0.10316  1.0000 0.1193188685
H   H202      1.0  0.10316  0.72942  0.82578  1.0000 0.1193188685
H   H203      1.0  0.72942  0.10316  0.34164  1.0000 0.1193188685
H   H204      1.0  0.34164  0.82578  0.72942  1.0000 0.1193188685
H   H205      1.0  0.89684  0.17422  0.65836  1.0000 0.1193188685
H   H206      1.0  0.17422  0.89684  0.27058  1.0000 0.1193188685
H   H207      1.0  0.65836  0.27058  0.89684  1.0000 0.1193188685
H   H208      1.0  0.27058  0.65836  0.17422  1.0000 0.1193188685
H   H209      1.0  0.65836  0.89684  0.17422  1.0000 0.1193188685
H   H210      1.0  0.27058  0.17422  0.89684  1.0000 0.1193188685
H   H211      1.0  0.89684  0.65836  0.27058  1.0000 0.1193188685
H   H212      1.0  0.17422  0.27058  0.65836  1.0000 0.1193188685
H   H213      1.0  0.17422  0.65836  0.89684  1.0000 0.1193188685
H   H214      1.0  0.89684  0.27058  0.17422  1.0000 0.1193188685
H   H215      1.0  0.27058  0.89684  0.65836  1.0000 0.1193188685
H   H216      1.0  0.65836  0.17422  0.27058  1.0000 0.1193188685
H   H217      1.0  0.03467  0.76473  0.43505  1.0000 0.1071985166
H   H218      1.0  0.76473  0.03467  0.76555  1.0000 0.1071985166
H   H219      1.0  0.43505  0.76555  0.03467  1.0000 0.1071985166
H   H220      1.0  0.76555  0.43505  0.76473  1.0000 0.1071985166
H   H221      1.0  0.43505  0.03467  0.76473  1.0000 0.1071985166
H   H222      1.0  0.76555  0.76473  0.03467  1.0000 0.1071985166
H   H223      1.0  0.03467  0.43505  0.76555  1.0000 0.1071985166
H   H224      1.0  0.76473  0.76555  0.43505  1.0000 0.1071985166
H   H225      1.0  0.76473  0.43505  0.03467  1.0000 0.1071985166
H   H226      1.0  0.03467  0.76555  0.76473  1.0000 0.1071985166
H   H227      1.0  0.76555  0.03467  0.43505  1.0000 0.1071985166
H   H228      1.0  0.43505  0.76473  0.76555  1.0000 0.1071985166
H   H229      1.0  0.96533  0.23527  0.56495  1.0000 0.1071985166
H   H230      1.0  0.23527  0.96533  0.23445  1.0000 0.1071985166
H   H231      1.0  0.56495  0.23445  0.96533  1.0000 0.1071985166
H   H232      1.0  0.23445  0.56495  0.23527  1.0000 0.1071985166
H   H233      1.0  0.56495  0.96533  0.23527  1.0000 0.1071985166
H   H234      1.0  0.23445  0.23527  0.96533  1.0000 0.1071985166
H   H235      1.0  0.96533  0.56495  0.23445  1.0000 0.1071985166
H   H236      1.0  0.23527  0.23445  0.56495  1.0000 0.1071985166
H   H237      1.0  0.23527  0.56495  0.96533  1.0000 0.1071985166
H   H238      1.0  0.96533  0.23445  0.23527  1.0000 0.1071985166
H   H239      1.0  0.23445  0.96533  0.56495  1.0000 0.1071985166
H   H240      1.0  0.56495  0.23527  0.23445  1.0000 0.1071985166
H   H241      1.0  0.09929  0.73329  0.33865  1.0000 0.1193188685
H   H242      1.0  0.73329  0.09929  0.82877  1.0000 0.1193188685
H   H243      1.0  0.33865  0.82877  0.09929  1.0000 0.1193188685
H   H244      1.0  0.82877  0.33865  0.73329  1.0000 0.1193188685
H   H245      1.0  0.33865  0.09929  0.73329  1.0000 0.1193188685
H   H246      1.0  0.82877  0.73329  0.09929  1.0000 0.1193188685
H   H247      1.0  0.09929  0.33865  0.82877  1.0000 0.1193188685
H   H248      1.0  0.73329  0.82877  0.33865  1.0000 0.1193188685
H   H249      1.0  0.73329  0.33865  0.09929  1.0000 0.1193188685
H   H250      1.0  0.09929  0.82877  0.73329  1.0000 0.1193188685
H   H251      1.0  0.82877  0.09929  0.33865  1.0000 0.1193188685
H   H252      1.0  0.33865  0.73329  0.82877  1.0000 0.1193188685
H   H253      1.0  0.90071  0.26671  0.66135  1.0000 0.1193188685
H   H254      1.0  0.26671  0.90071  0.17123  1.0000 0.1193188685
H   H255      1.0  0.66135  0.17123  0.90071  1.0000 0.1193188685
H   H256      1.0  0.17123  0.66135  0.26671  1.0000 0.1071985166
H   H257      1.0  0.66135  0.90071  0.26671  1.0000 0.1193188685
H   H258      1.0  0.17123  0.26671  0.90071  1.0000 0.1193188685
H   H259      1.0  0.90071  0.66135  0.17123  1.0000 0.1193188685
H   H260      1.0  0.26671  0.17123  0.66135  1.0000 0.1193188685
H   H261      1.0  0.26671  0.66135  0.90071  1.0000 0.1193188685
H   H262      1.0  0.90071  0.17123  0.26671  1.0000 0.1193188685
H   H263      1.0  0.17123  0.90071  0.66135  1.0000 0.1193188685
H   H264      1.0  0.66135  0.26671  0.17123  1.0000 0.1193188685
H   H265      1.0  0.18026  0.81974  0.25586  1.0000 0.1278462127
H   H266      1.0  0.81974  0.18026  0.74414  1.0000 0.1278462127
H   H267      1.0  0.25586  0.74414  0.18026  1.0000 0.1193188685
H   H268      1.0  0.74414  0.25586  0.81974  1.0000 0.1278462127
H   H269      1.0  0.25586  0.18026  0.81974  1.0000 0.1278462127
H   H270      1.0  0.74414  0.81974  0.18026  1.0000 0.1278462127
H   H271      1.0  0.18026  0.25586  0.74414  1.0000 0.1278462127
H   H272      1.0  0.81974  0.74414  0.25586  1.0000 0.1278462127
H   H273      1.0  0.81974  0.25586  0.18026  1.0000 0.1193188685
H   H274      1.0  0.18026  0.74414  0.81974  1.0000 0.1278462127
H   H275      1.0  0.74414  0.18026  0.25586  1.0000 0.1278462127
H   H276      1.0  0.25586  0.81974  0.74414  1.0000 0.1278462127
H   H277      1.0  0.16221  0.73709  0.30497  1.0000 0.1006730299
H   H278      1.0  0.73709  0.16221  0.79573  1.0000 0.1006730299
H   H279      1.0  0.30497  0.79573  0.16221  1.0000 0.1006730299
H   H280      1.0  0.79573  0.30497  0.73709  1.0000 0.1006730299
H   H281      1.0  0.30497  0.16221  0.73709  1.0000 0.1006730299
H   H282      1.0  0.79573  0.73709  0.16221  1.0000 0.1006730299
H   H283      1.0  0.16221  0.30497  0.79573  1.0000 0.1006730299
H   H284      1.0  0.73709  0.79573  0.30497  1.0000 0.1006730299
H   H285      1.0  0.73709  0.30497  0.16221  1.0000 0.1006730299
H   H286      1.0  0.16221  0.79573  0.73709  1.0000 0.1006730299
H   H287      1.0  0.79573  0.16221  0.30497  1.0000 0.1006730299
H   H288      1.0  0.30497  0.73709  0.79573  1.0000 0.1006730299
H   H289      1.0  0.83779  0.26291  0.69503  1.0000 0.1006730299
H   H290      1.0  0.26291  0.83779  0.20427  1.0000 0.1006730299
H   H291      1.0  0.69503  0.20427  0.83779  1.0000 0.1006730299
H   H292      1.0  0.20427  0.69503  0.26291  1.0000 0.1006730299
H   H293      1.0  0.69503  0.83779  0.26291  1.0000 0.1006730299
H   H294      1.0  0.20427  0.26291  0.83779  1.0000 0.1006730299
H   H295      1.0  0.83779  0.69503  0.20427  1.0000 0.1006730299
H   H296      1.0  0.26291  0.20427  0.69503  1.0000 0.1006730299
H   H297      1.0  0.26291  0.69503  0.83779  1.0000 0.1006730299
H   H298      1.0  0.83779  0.20427  0.26291  1.0000 0.1006730299
H   H299      1.0  0.20427  0.83779  0.69503  1.0000 0.1006730299
H   H300      1.0  0.69503  0.26291  0.20427  1.0000 0.1006730299
H   H301      1.0  0.17508  0.76576  0.30750  1.0000 0.1071985166
H   H302      1.0  0.76576  0.17508  0.75166  1.0000 0.1071985166
H   H303      1.0  0.30750  0.75166  0.17508  1.0000 0.1071985166
H   H304      1.0  0.75166  0.30750  0.76576  1.0000 0.1071985166
H   H305      1.0  0.30750  0.17508  0.76576  1.0000 0.1071985166
H   H306      1.0  0.75166  0.76576  0.17508  1.0000 0.1071985166
H   H307      1.0  0.17508  0.30750  0.75166  1.0000 0.1071985166
H   H308      1.0  0.76576  0.75166  0.30750  1.0000 0.1071985166
H   H309      1.0  0.76576  0.30750  0.17508  1.0000 0.1071985166
H   H310      1.0  0.17508  0.75166  0.76576  1.0000 0.1071985166
H   H311      1.0  0.75166  0.17508  0.30750  1.0000 0.1071985166
H   H312      1.0  0.30750  0.76576  0.75166  1.0000 0.1071985166
H   H313      1.0  0.82492  0.23424  0.69250  1.0000 0.1071985166
H   H314      1.0  0.23424  0.82492  0.24834  1.0000 0.1006730299
H   H315      1.0  0.69250  0.24834  0.82492  1.0000 0.1071985166
H   H316      1.0  0.24834  0.69250  0.23424  1.0000 0.1071985166
H   H317      1.0  0.69250  0.82492  0.23424  1.0000 0.1006730299
H   H318      1.0  0.24834  0.23424  0.82492  1.0000 0.1071985166
H   H319      1.0  0.82492  0.69250  0.24834  1.0000 0.1071985166
H   H320      1.0  0.23424  0.24834  0.69250  1.0000 0.1071985166
H   H321      1.0  0.23424  0.69250  0.82492  1.0000 0.1071985166
H   H322      1.0  0.82492  0.24834  0.23424  1.0000 0.1071985166
H   H323      1.0  0.24834  0.82492  0.69250  1.0000 0.1071985166
H   H324      1.0  0.69250  0.23424  0.24834  1.0000 0.1071985166
C   C1        1.0  0.02912  0.88158  0.44396  1.0000 -0.0570870957
C   C2        1.0  0.88158  0.02912  0.64534  1.0000 -0.0570870957
C   C3        1.0  0.44396  0.64534  0.02912  1.0000 -0.0570870957
C   C4        1.0  0.64534  0.44396  0.88158  1.0000 -0.0570870957
C   C5        1.0  0.44396  0.02912  0.88158  1.0000 -0.0570870957
C   C6        1.0  0.64534  0.88158  0.02912  1.0000 -0.0570870957
C   C7        1.0  0.02912  0.44396  0.64534  1.0000 -0.0570870957
C   C8        1.0  0.88158  0.64534  0.44396  1.0000 -0.0570870957
C   C9        1.0  0.88158  0.44396  0.02912  1.0000 -0.0570870957
C   C10       1.0  0.02912  0.64534  0.88158  1.0000 -0.0570870957
C   C11       1.0  0.64534  0.02912  0.44396  1.0000 -0.0570870957
C   C12       1.0  0.44396  0.88158  0.64534  1.0000 -0.0570870957
C   C13       1.0  0.97088  0.11842  0.55604  1.0000 -0.0570870957
C   C14       1.0  0.11842  0.97088  0.35466  1.0000 -0.0570870957
C   C15       1.0  0.55604  0.35466  0.97088  1.0000 -0.0570870957
C   C16       1.0  0.35466  0.55604  0.11842  1.0000 -0.0570870957
C   C17       1.0  0.55604  0.97088  0.11842  1.0000 -0.0570870957
C   C18       1.0  0.35466  0.11842  0.97088  1.0000 -0.0570870957
C   C19       1.0  0.97088  0.55604  0.35466  1.0000 -0.0570870957
C   C20       1.0  0.11842  0.35466  0.55604  1.0000 -0.0570870957
C   C21       1.0  0.11842  0.55604  0.97088  1.0000 -0.0570870957
C   C22       1.0  0.97088  0.35466  0.11842  1.0000 -0.0570870957
C   C23       1.0  0.35466  0.97088  0.55604  1.0000 -0.0570870957
C   C24       1.0  0.55604  0.11842  0.35466  1.0000 -0.0570870957
C   C25       1.0  0.02937  0.64535  0.44385  1.0000 -0.0465036357
C   C26       1.0  0.64535  0.02937  0.88143  1.0000 -0.0465036357
C   C27       1.0  0.44385  0.88143  0.02937  1.0000 -0.0465036357
C   C28       1.0  0.88143  0.44385  0.64535  1.0000 -0.0446062638
C   C29       1.0  0.44385  0.02937  0.64535  1.0000 -0.0465036357
C   C30       1.0  0.88143  0.64535  0.02937  1.0000 -0.0446062638
C   C31       1.0  0.02937  0.44385  0.88143  1.0000 -0.0465036357
C   C32       1.0  0.64535  0.88143  0.44385  1.0000 -0.0446062638
C   C33       1.0  0.64535  0.44385  0.02937  1.0000 -0.0446062638
C   C34       1.0  0.02937  0.88143  0.64535  1.0000 -0.0465036357
C   C35       1.0  0.88143  0.02937  0.44385  1.0000 -0.0446062638
C   C36       1.0  0.44385  0.64535  0.88143  1.0000 -0.0465036357
C   C37       1.0  0.97063  0.35465  0.55615  1.0000 -0.0446062638
C   C38       1.0  0.35465  0.97063  0.11857  1.0000 -0.0465036357
C   C39       1.0  0.55615  0.11857  0.97063  1.0000 -0.0465036357
C   C40       1.0  0.11857  0.55615  0.35465  1.0000 -0.0465036357
C   C41       1.0  0.55615  0.97063  0.35465  1.0000 -0.0465036357
C   C42       1.0  0.11857  0.35465  0.97063  1.0000 -0.0465036357
C   C43       1.0  0.97063  0.55615  0.11857  1.0000 -0.0465036357
C   C44       1.0  0.35465  0.11857  0.55615  1.0000 -0.0446062638
C   C45       1.0  0.35465  0.55615  0.97063  1.0000 -0.0446062638
C   C46       1.0  0.97063  0.11857  0.35465  1.0000 -0.0446062638
C   C47       1.0  0.11857  0.97063  0.55615  1.0000 -0.0465036357
C   C48       1.0  0.55615  0.35465  0.11857  1.0000 -0.0446062638
C   C49       1.0  0.01856  0.61028  0.45964  1.0000 0.6410522379
C   C50       1.0  0.61028  0.01856  0.91152  1.0000 0.645640426
C   C51       1.0  0.45964  0.91152  0.01856  1.0000 0.6410522379
C   C52       1.0  0.91152  0.45964  0.61028  1.0000 0.6410522379
C   C53       1.0  0.45964  0.01856  0.61028  1.0000 0.6410522379
C   C54       1.0  0.91152  0.61028  0.01856  1.0000 0.6410522379
C   C55       1.0  0.01856  0.45964  0.91152  1.0000 0.6410522379
C   C56       1.0  0.61028  0.91152  0.45964  1.0000 0.6410522379
C   C57       1.0  0.61028  0.45964  0.01856  1.0000 0.6410522379
C   C58       1.0  0.01856  0.91152  0.61028  1.0000 0.6410522379
C   C59       1.0  0.91152  0.01856  0.45964  1.0000 0.6410522379
C   C60       1.0  0.45964  0.61028  0.91152  1.0000 0.645640426
C   C61       1.0  0.98144  0.38972  0.54036  1.0000 0.6410522379
C   C62       1.0  0.38972  0.98144  0.08848  1.0000 0.6410522379
C   C63       1.0  0.54036  0.08848  0.98144  1.0000 0.6410522379
C   C64       1.0  0.08848  0.54036  0.38972  1.0000 0.6410522379
C   C65       1.0  0.54036  0.98144  0.38972  1.0000 0.6410522379
C   C66       1.0  0.08848  0.38972  0.98144  1.0000 0.645640426
C   C67       1.0  0.98144  0.54036  0.08848  1.0000 0.6410522379
C   C68       1.0  0.38972  0.08848  0.54036  1.0000 0.6410522379
C   C69       1.0  0.38972  0.54036  0.98144  1.0000 0.6410522379
C   C70       1.0  0.98144  0.08848  0.38972  1.0000 0.6410522379
C   C71       1.0  0.08848  0.98144  0.54036  1.0000 0.6410522379
C   C72       1.0  0.54036  0.38972  0.08848  1.0000 0.6410522379
C   C73       1.0  0.01856  0.91058  0.46066  1.0000 0.6335830646
C   C74       1.0  0.91058  0.01856  0.61020  1.0000 0.6335830646
C   C75       1.0  0.46066  0.61020  0.01856  1.0000 0.6335830646
C   C76       1.0  0.61020  0.46066  0.91058  1.0000 0.6410522379
C   C77       1.0  0.46066  0.01856  0.91058  1.0000 0.6410522379
C   C78       1.0  0.61020  0.91058  0.01856  1.0000 0.6335830646
C   C79       1.0  0.01856  0.46066  0.61020  1.0000 0.6410522379
C   C80       1.0  0.91058  0.61020  0.46066  1.0000 0.6335830646
C   C81       1.0  0.91058  0.46066  0.01856  1.0000 0.6335830646
C   C82       1.0  0.01856  0.61020  0.91058  1.0000 0.6410522379
C   C83       1.0  0.61020  0.01856  0.46066  1.0000 0.6410522379
C   C84       1.0  0.46066  0.91058  0.61020  1.0000 0.6335830646
C   C85       1.0  0.98144  0.08942  0.53934  1.0000 0.6335830646
C   C86       1.0  0.08942  0.98144  0.38980  1.0000 0.6335830646
C   C87       1.0  0.53934  0.38980  0.98144  1.0000 0.6410522379
C   C88       1.0  0.38980  0.53934  0.08942  1.0000 0.6335830646
C   C89       1.0  0.53934  0.98144  0.08942  1.0000 0.6335830646
C   C90       1.0  0.38980  0.08942  0.98144  1.0000 0.6335830646
C   C91       1.0  0.98144  0.53934  0.38980  1.0000 0.6335830646
C   C92       1.0  0.08942  0.38980  0.53934  1.0000 0.6410522379
C   C93       1.0  0.08942  0.53934  0.98144  1.0000 0.6335830646
C   C94       1.0  0.98144  0.38980  0.08942  1.0000 0.6335830646
C   C95       1.0  0.38980  0.98144  0.53934  1.0000 0.6335830646
C   C96       1.0  0.53934  0.08942  0.38980  1.0000 0.6410522379
C   C97       1.0  0.03654  0.89254  0.40526  1.0000 -0.0892105038
C   C98       1.0  0.89254  0.03654  0.66566  1.0000 -0.0892105038
C   C99       1.0  0.40526  0.66566  0.03654  1.0000 -0.0892105038
C   C100      1.0  0.66566  0.40526  0.89254  1.0000 -0.0892105038
C   C101      1.0  0.40526  0.03654  0.89254  1.0000 -0.0892105038
C   C102      1.0  0.66566  0.89254  0.03654  1.0000 -0.0892105038
C   C103      1.0  0.03654  0.40526  0.66566  1.0000 -0.0892105038
C   C104      1.0  0.89254  0.66566  0.40526  1.0000 -0.0892105038
C   C105      1.0  0.89254  0.40526  0.03654  1.0000 -0.0892105038
C   C106      1.0  0.03654  0.66566  0.89254  1.0000 -0.0892105038
C   C107      1.0  0.66566  0.03654  0.40526  1.0000 -0.0892105038
C   C108      1.0  0.40526  0.89254  0.66566  1.0000 -0.0892105038
C   C109      1.0  0.96346  0.10746  0.59474  1.0000 -0.0892105038
C   C110      1.0  0.10746  0.96346  0.33434  1.0000 -0.0892105038
C   C111      1.0  0.59474  0.33434  0.96346  1.0000 -0.0892105038
C   C112      1.0  0.33434  0.59474  0.10746  1.0000 -0.0892105038
C   C113      1.0  0.59474  0.96346  0.10746  1.0000 -0.0892105038
C   C114      1.0  0.33434  0.10746  0.96346  1.0000 -0.0892105038
C   C115      1.0  0.96346  0.59474  0.33434  1.0000 -0.0892105038
C   C116      1.0  0.10746  0.33434  0.59474  1.0000 -0.0892105038
C   C117      1.0  0.10746  0.59474  0.96346  1.0000 -0.0892105038
C   C118      1.0  0.96346  0.33434  0.10746  1.0000 -0.0892105038
C   C119      1.0  0.33434  0.96346  0.59474  1.0000 -0.0892105038
C   C120      1.0  0.59474  0.10746  0.33434  1.0000 -0.0892105038
C   C121      1.0  0.03594  0.66566  0.40606  1.0000 -0.1032745955
C   C122      1.0  0.66566  0.03594  0.89234  1.0000 -0.1032745955
C   C123      1.0  0.40606  0.89234  0.03594  1.0000 -0.1032745955
C   C124      1.0  0.89234  0.40606  0.66566  1.0000 -0.1032745955
C   C125      1.0  0.40606  0.03594  0.66566  1.0000 -0.1032745955
C   C126      1.0  0.89234  0.66566  0.03594  1.0000 -0.1051881952
C   C127      1.0  0.03594  0.40606  0.89234  1.0000 -0.1032745955
C   C128      1.0  0.66566  0.89234  0.40606  1.0000 -0.1032745955
C   C129      1.0  0.66566  0.40606  0.03594  1.0000 -0.1032745955
C   C130      1.0  0.03594  0.89234  0.66566  1.0000 -0.1032745955
C   C131      1.0  0.89234  0.03594  0.40606  1.0000 -0.1032745955
C   C132      1.0  0.40606  0.66566  0.89234  1.0000 -0.1032745955
C   C133      1.0  0.96406  0.33434  0.59394  1.0000 -0.1032745955
C   C134      1.0  0.33434  0.96406  0.10766  1.0000 -0.1032745955
C   C135      1.0  0.59394  0.10766  0.96406  1.0000 -0.1032745955
C   C136      1.0  0.10766  0.59394  0.33434  1.0000 -0.1032745955
C   C137      1.0  0.59394  0.96406  0.33434  1.0000 -0.1032745955
C   C138      1.0  0.10766  0.33434  0.96406  1.0000 -0.1032745955
C   C139      1.0  0.96406  0.59394  0.10766  1.0000 -0.1032745955
C   C140      1.0  0.33434  0.10766  0.59394  1.0000 -0.1032745955
C   C141      1.0  0.33434  0.59394  0.96406  1.0000 -0.1032745955
C   C142      1.0  0.96406  0.10766  0.33434  1.0000 -0.1032745955
C   C143      1.0  0.10766  0.96406  0.59394  1.0000 -0.1032745955
C   C144      1.0  0.59394  0.33434  0.10766  1.0000 -0.1032745955
C   C145      1.0  0.03210  0.84456  0.46490  1.0000 -0.0892105038
C   C146      1.0  0.84456  0.03210  0.65844  1.0000 -0.0892105038
C   C147      1.0  0.46490  0.65844  0.03210  1.0000 -0.0892105038
C   C148      1.0  0.65844  0.46490  0.84456  1.0000 -0.0892105038
C   C149      1.0  0.46490  0.03210  0.84456  1.0000 -0.0892105038
C   C150      1.0  0.65844  0.84456  0.03210  1.0000 -0.0892105038
C   C151      1.0  0.03210  0.46490  0.65844  1.0000 -0.0892105038
C   C152      1.0  0.84456  0.65844  0.46490  1.0000 -0.0892105038
C   C153      1.0  0.84456  0.46490  0.03210  1.0000 -0.0892105038
C   C154      1.0  0.03210  0.65844  0.84456  1.0000 -0.0892105038
C   C155      1.0  0.65844  0.03210  0.46490  1.0000 -0.0892105038
C   C156      1.0  0.46490  0.84456  0.65844  1.0000 -0.0892105038
C   C157      1.0  0.96790  0.15544  0.53510  1.0000 -0.0892105038
C   C158      1.0  0.15544  0.96790  0.34156  1.0000 -0.0892105038
C   C159      1.0  0.53510  0.34156  0.96790  1.0000 -0.0892105038
C   C160      1.0  0.34156  0.53510  0.15544  1.0000 -0.0892105038
C   C161      1.0  0.53510  0.96790  0.15544  1.0000 -0.0892105038
C   C162      1.0  0.34156  0.15544  0.96790  1.0000 -0.0892105038
C   C163      1.0  0.96790  0.53510  0.34156  1.0000 -0.0892105038
C   C164      1.0  0.15544  0.34156  0.53510  1.0000 -0.0892105038
C   C165      1.0  0.15544  0.53510  0.96790  1.0000 -0.0892105038
C   C166      1.0  0.96790  0.34156  0.15544  1.0000 -0.0892105038
C   C167      1.0  0.34156  0.96790  0.53510  1.0000 -0.0892105038
C   C168      1.0  0.53510  0.15544  0.34156  1.0000 -0.0892105038
C   C169      1.0  0.05164  0.71004  0.40896  1.0000 0.0688895972
C   C170      1.0  0.71004  0.05164  0.82936  1.0000 0.0688895972
C   C171      1.0  0.40896  0.82936  0.05164  1.0000 0.0688895972
C   C172      1.0  0.82936  0.40896  0.71004  1.0000 0.0688895972
C   C173      1.0  0.40896  0.05164  0.71004  1.0000 0.0688895972
C   C174      1.0  0.82936  0.71004  0.05164  1.0000 0.0688895972
C   C175      1.0  0.05164  0.40896  0.82936  1.0000 0.0688895972
C   C176      1.0  0.71004  0.82936  0.40896  1.0000 0.0688895972
C   C177      1.0  0.71004  0.40896  0.05164  1.0000 0.0688895972
C   C178      1.0  0.05164  0.82936  0.71004  1.0000 0.0688895972
C   C179      1.0  0.82936  0.05164  0.40896  1.0000 0.0688895972
C   C180      1.0  0.40896  0.71004  0.82936  1.0000 0.0688895972
C   C181      1.0  0.94836  0.28996  0.59104  1.0000 0.0688895972
C   C182      1.0  0.28996  0.94836  0.17064  1.0000 0.0688895972
C   C183      1.0  0.59104  0.17064  0.94836  1.0000 0.0688895972
C   C184      1.0  0.17064  0.59104  0.28996  1.0000 0.0688895972
C   C185      1.0  0.59104  0.94836  0.28996  1.0000 0.0688895972
C   C186      1.0  0.17064  0.28996  0.94836  1.0000 0.0688895972
C   C187      1.0  0.94836  0.59104  0.17064  1.0000 0.0688895972
C   C188      1.0  0.28996  0.17064  0.59104  1.0000 0.0688895972
C   C189      1.0  0.28996  0.59104  0.94836  1.0000 0.0688895972
C   C190      1.0  0.94836  0.17064  0.28996  1.0000 0.0688895972
C   C191      1.0  0.17064  0.94836  0.59104  1.0000 0.0688895972
C   C192      1.0  0.59104  0.28996  0.17064  1.0000 0.0688895972
C   C193      1.0  0.04359  0.68981  0.44841  1.0000 -0.1587799697
C   C194      1.0  0.68981  0.04359  0.81819  1.0000 -0.1587799697
C   C195      1.0  0.44841  0.81819  0.04359  1.0000 -0.1587799697
C   C196      1.0  0.81819  0.44841  0.68981  1.0000 -0.1587799697
C   C197      1.0  0.44841  0.04359  0.68981  1.0000 -0.1587799697
C   C198      1.0  0.81819  0.68981  0.04359  1.0000 -0.1587799697
C   C199      1.0  0.04359  0.44841  0.81819  1.0000 -0.1587799697
C   C200      1.0  0.68981  0.81819  0.44841  1.0000 -0.1587799697
C   C201      1.0  0.68981  0.44841  0.04359  1.0000 -0.1587799697
C   C202      1.0  0.04359  0.81819  0.68981  1.0000 -0.1587799697
C   C203      1.0  0.81819  0.04359  0.44841  1.0000 -0.1587799697
C   C204      1.0  0.44841  0.68981  0.81819  1.0000 -0.1587799697
C   C205      1.0  0.95641  0.31019  0.55159  1.0000 -0.1587799697
C   C206      1.0  0.31019  0.95641  0.18181  1.0000 -0.1587799697
C   C207      1.0  0.55159  0.18181  0.95641  1.0000 -0.1587799697
C   C208      1.0  0.18181  0.55159  0.31019  1.0000 -0.1587799697
C   C209      1.0  0.55159  0.95641  0.31019  1.0000 -0.1587799697
C   C210      1.0  0.18181  0.31019  0.95641  1.0000 -0.1587799697
C   C211      1.0  0.95641  0.55159  0.18181  1.0000 -0.1587799697
C   C212      1.0  0.31019  0.18181  0.55159  1.0000 -0.1587799697
C   C213      1.0  0.31019  0.55159  0.95641  1.0000 -0.1587799697
C   C214      1.0  0.95641  0.18181  0.31019  1.0000 -0.1587799697
C   C215      1.0  0.18181  0.95641  0.55159  1.0000 -0.1587799697
C   C216      1.0  0.55159  0.31019  0.18181  1.0000 -0.1587799697
C   C217      1.0  0.04810  0.69810  0.38770  1.0000 -0.1587799697
C   C218      1.0  0.69810  0.04810  0.86610  1.0000 -0.1587799697
C   C219      1.0  0.38770  0.86610  0.04810  1.0000 -0.1587799697
C   C220      1.0  0.86610  0.38770  0.69810  1.0000 -0.1587799697
C   C221      1.0  0.38770  0.04810  0.69810  1.0000 -0.1587799697
C   C222      1.0  0.86610  0.69810  0.04810  1.0000 -0.1587799697
C   C223      1.0  0.04810  0.38770  0.86610  1.0000 -0.1587799697
C   C224      1.0  0.69810  0.86610  0.38770  1.0000 -0.1587799697
C   C225      1.0  0.69810  0.38770  0.04810  1.0000 -0.1587799697
C   C226      1.0  0.04810  0.86610  0.69810  1.0000 -0.1587799697
C   C227      1.0  0.86610  0.04810  0.38770  1.0000 -0.1587799697
C   C228      1.0  0.38770  0.69810  0.86610  1.0000 -0.1587799697
C   C229      1.0  0.95190  0.30190  0.61230  1.0000 -0.1587799697
C   C230      1.0  0.30190  0.95190  0.13390  1.0000 -0.1587799697
C   C231      1.0  0.61230  0.13390  0.95190  1.0000 -0.1587799697
C   C232      1.0  0.13390  0.61230  0.30190  1.0000 -0.1587799697
C   C233      1.0  0.61230  0.95190  0.30190  1.0000 -0.1587799697
C   C234      1.0  0.13390  0.30190  0.95190  1.0000 -0.1587799697
C   C235      1.0  0.95190  0.61230  0.13390  1.0000 -0.1587799697
C   C236      1.0  0.30190  0.13390  0.61230  1.0000 -0.1587799697
C   C237      1.0  0.30190  0.61230  0.95190  1.0000 -0.1587799697
C   C238      1.0  0.95190  0.13390  0.30190  1.0000 -0.1587799697
C   C239      1.0  0.13390  0.95190  0.61230  1.0000 -0.1587799697
C   C240      1.0  0.61230  0.30190  0.13390  1.0000 -0.1587799697
C   C241      1.0  0.05211  0.82805  0.41029  1.0000 0.0688895972
C   C242      1.0  0.82805  0.05211  0.70955  1.0000 0.0688895972
C   C243      1.0  0.41029  0.70955  0.05211  1.0000 0.0688895972
C   C244      1.0  0.70955  0.41029  0.82805  1.0000 0.0688895972
C   C245      1.0  0.41029  0.05211  0.82805  1.0000 0.0688895972
C   C246      1.0  0.70955  0.82805  0.05211  1.0000 0.0688895972
C   C247      1.0  0.05211  0.41029  0.70955  1.0000 0.0688895972
C   C248      1.0  0.82805  0.70955  0.41029  1.0000 0.0688895972
C   C249      1.0  0.82805  0.41029  0.05211  1.0000 0.0688895972
C   C250      1.0  0.05211  0.70955  0.82805  1.0000 0.0688895972
C   C251      1.0  0.70955  0.05211  0.41029  1.0000 0.0688895972
C   C252      1.0  0.41029  0.82805  0.70955  1.0000 0.0688895972
C   C253      1.0  0.94789  0.17195  0.58971  1.0000 0.0688895972
C   C254      1.0  0.17195  0.94789  0.29045  1.0000 0.0688895972
C   C255      1.0  0.58971  0.29045  0.94789  1.0000 0.0688895972
C   C256      1.0  0.29045  0.58971  0.17195  1.0000 0.0688895972
C   C257      1.0  0.58971  0.94789  0.17195  1.0000 0.0688895972
C   C258      1.0  0.29045  0.17195  0.94789  1.0000 0.0688895972
C   C259      1.0  0.94789  0.58971  0.29045  1.0000 0.0688895972
C   C260      1.0  0.17195  0.29045  0.58971  1.0000 0.0688895972
C   C261      1.0  0.17195  0.58971  0.94789  1.0000 0.0688895972
C   C262      1.0  0.94789  0.29045  0.17195  1.0000 0.0688895972
C   C263      1.0  0.29045  0.94789  0.58971  1.0000 0.0688895972
C   C264      1.0  0.58971  0.17195  0.29045  1.0000 0.0688895972
C   C265      1.0  0.03250  0.65848  0.46462  1.0000 -0.0892105038
C   C266      1.0  0.65848  0.03250  0.84440  1.0000 -0.0892105038
C   C267      1.0  0.46462  0.84440  0.03250  1.0000 -0.0892105038
C   C268      1.0  0.84440  0.46462  0.65848  1.0000 -0.0892105038
C   C269      1.0  0.46462  0.03250  0.65848  1.0000 -0.0892105038
C   C270      1.0  0.84440  0.65848  0.03250  1.0000 -0.0892105038
C   C271      1.0  0.03250  0.46462  0.84440  1.0000 -0.0892105038
C   C272      1.0  0.65848  0.84440  0.46462  1.0000 -0.0892105038
C   C273      1.0  0.65848  0.46462  0.03250  1.0000 -0.0892105038
C   C274      1.0  0.03250  0.84440  0.65848  1.0000 -0.0892105038
C   C275      1.0  0.84440  0.03250  0.46462  1.0000 -0.0892105038
C   C276      1.0  0.46462  0.65848  0.84440  1.0000 -0.0892105038
C   C277      1.0  0.96750  0.34152  0.53538  1.0000 -0.0892105038
C   C278      1.0  0.34152  0.96750  0.15560  1.0000 -0.0892105038
C   C279      1.0  0.53538  0.15560  0.96750  1.0000 -0.0892105038
C   C280      1.0  0.15560  0.53538  0.34152  1.0000 -0.0892105038
C   C281      1.0  0.53538  0.96750  0.34152  1.0000 -0.0892105038
C   C282      1.0  0.15560  0.34152  0.96750  1.0000 -0.0892105038
C   C283      1.0  0.96750  0.53538  0.15560  1.0000 -0.0892105038
C   C284      1.0  0.34152  0.15560  0.53538  1.0000 -0.0892105038
C   C285      1.0  0.34152  0.53538  0.96750  1.0000 -0.0892105038
C   C286      1.0  0.96750  0.15560  0.34152  1.0000 -0.0892105038
C   C287      1.0  0.15560  0.96750  0.53538  1.0000 -0.0892105038
C   C288      1.0  0.53538  0.34152  0.15560  1.0000 -0.0892105038
C   C289      1.0  0.04700  0.86680  0.38680  1.0000 -0.1689691723
C   C290      1.0  0.86680  0.04700  0.69940  1.0000 -0.1689691723
C   C291      1.0  0.38680  0.69940  0.04700  1.0000 -0.1689691723
C   C292      1.0  0.69940  0.38680  0.86680  1.0000 -0.1689691723
C   C293      1.0  0.38680  0.04700  0.86680  1.0000 -0.1689691723
C   C294      1.0  0.69940  0.86680  0.04700  1.0000 -0.1689691723
C   C295      1.0  0.04700  0.38680  0.69940  1.0000 -0.1689691723
C   C296      1.0  0.86680  0.69940  0.38680  1.0000 -0.1689691723
C   C297      1.0  0.86680  0.38680  0.04700  1.0000 -0.1689691723
C   C298      1.0  0.04700  0.69940  0.86680  1.0000 -0.1689691723
C   C299      1.0  0.69940  0.04700  0.38680  1.0000 -0.1689691723
C   C300      1.0  0.38680  0.86680  0.69940  1.0000 -0.1689691723
C   C301      1.0  0.95300  0.13320  0.61320  1.0000 -0.1689691723
C   C302      1.0  0.13320  0.95300  0.30060  1.0000 -0.1689691723
C   C303      1.0  0.61320  0.30060  0.95300  1.0000 -0.1689691723
C   C304      1.0  0.30060  0.61320  0.13320  1.0000 -0.1689691723
C   C305      1.0  0.61320  0.95300  0.13320  1.0000 -0.1689691723
C   C306      1.0  0.30060  0.13320  0.95300  1.0000 -0.1689691723
C   C307      1.0  0.95300  0.61320  0.30060  1.0000 -0.1689691723
C   C308      1.0  0.13320  0.30060  0.61320  1.0000 -0.1689691723
C   C309      1.0  0.13320  0.61320  0.95300  1.0000 -0.1689691723
C   C310      1.0  0.95300  0.30060  0.13320  1.0000 -0.1689691723
C   C311      1.0  0.30060  0.95300  0.61320  1.0000 -0.1689691723
C   C312      1.0  0.61320  0.13320  0.30060  1.0000 -0.1689691723
C   C313      1.0  0.04418  0.81778  0.44922  1.0000 -0.1456348864
C   C314      1.0  0.81778  0.04418  0.68882  1.0000 -0.1444765809
C   C315      1.0  0.44922  0.68882  0.04418  1.0000 -0.1456348864
C   C316      1.0  0.68882  0.44922  0.81778  1.0000 -0.1444765809
C   C317      1.0  0.44922  0.04418  0.81778  1.0000 -0.1444765809
C   C318      1.0  0.68882  0.81778  0.04418  1.0000 -0.1456348864
C   C319      1.0  0.04418  0.44922  0.68882  1.0000 -0.1456348864
C   C320      1.0  0.81778  0.68882  0.44922  1.0000 -0.1444765809
C   C321      1.0  0.81778  0.44922  0.04418  1.0000 -0.1444765809
C   C322      1.0  0.04418  0.68882  0.81778  1.0000 -0.1456348864
C   C323      1.0  0.68882  0.04418  0.44922  1.0000 -0.1444765809
C   C324      1.0  0.44922  0.81778  0.68882  1.0000 -0.1444765809
C   C325      1.0  0.95582  0.18222  0.55078  1.0000 -0.1444765809
C   C326      1.0  0.18222  0.95582  0.31118  1.0000 -0.1444765809
C   C327      1.0  0.55078  0.31118  0.95582  1.0000 -0.1456348864
C   C328      1.0  0.31118  0.55078  0.18222  1.0000 -0.1444765809
C   C329      1.0  0.55078  0.95582  0.18222  1.0000 -0.1456348864
C   C330      1.0  0.31118  0.18222  0.95582  1.0000 -0.1444765809
C   C331      1.0  0.95582  0.55078  0.31118  1.0000 -0.1444765809
C   C332      1.0  0.18222  0.31118  0.55078  1.0000 -0.1456348864
C   C333      1.0  0.18222  0.55078  0.95582  1.0000 -0.1456348864
C   C334      1.0  0.95582  0.31118  0.18222  1.0000 -0.1444765809
C   C335      1.0  0.31118  0.95582  0.55078  1.0000 -0.1456348864
C   C336      1.0  0.55078  0.18222  0.31118  1.0000 -0.1444765809
C   C337      1.0  0.10540  0.78046  0.33420  1.0000 0.219099179
C   C338      1.0  0.78046  0.10540  0.77994  1.0000 0.219099179
C   C339      1.0  0.33420  0.77994  0.10540  1.0000 0.219099179
C   C340      1.0  0.77994  0.33420  0.78046  1.0000 0.219099179
C   C341      1.0  0.33420  0.10540  0.78046  1.0000 0.219099179
C   C342      1.0  0.77994  0.78046  0.10540  1.0000 0.219099179
C   C343      1.0  0.10540  0.33420  0.77994  1.0000 0.219099179
C   C344      1.0  0.78046  0.77994  0.33420  1.0000 0.219099179
C   C345      1.0  0.78046  0.33420  0.10540  1.0000 0.219099179
C   C346      1.0  0.10540  0.77994  0.78046  1.0000 0.219099179
C   C347      1.0  0.77994  0.10540  0.33420  1.0000 0.219099179
C   C348      1.0  0.33420  0.78046  0.77994  1.0000 0.219099179
C   C349      1.0  0.89460  0.21954  0.66580  1.0000 0.219099179
C   C350      1.0  0.21954  0.89460  0.22006  1.0000 0.219099179
C   C351      1.0  0.66580  0.22006  0.89460  1.0000 0.219099179
C   C352      1.0  0.22006  0.66580  0.21954  1.0000 0.219099179
C   C353      1.0  0.66580  0.89460  0.21954  1.0000 0.219099179
C   C354      1.0  0.22006  0.21954  0.89460  1.0000 0.219099179
C   C355      1.0  0.89460  0.66580  0.22006  1.0000 0.219099179
C   C356      1.0  0.21954  0.22006  0.66580  1.0000 0.219099179
C   C357      1.0  0.21954  0.66580  0.89460  1.0000 0.219099179
C   C358      1.0  0.89460  0.22006  0.21954  1.0000 0.219099179
C   C359      1.0  0.22006  0.89460  0.66580  1.0000 0.219099179
C   C360      1.0  0.66580  0.21954  0.22006  1.0000 0.219099179
C   C361      1.0  0.09335  0.80503  0.35385  1.0000 -0.2602658342
C   C362      1.0  0.80503  0.09335  0.74777  1.0000 -0.2602658342
C   C363      1.0  0.35385  0.74777  0.09335  1.0000 -0.2602658342
C   C364      1.0  0.74777  0.35385  0.80503  1.0000 -0.2602658342
C   C365      1.0  0.35385  0.09335  0.80503  1.0000 -0.2602658342
C   C366      1.0  0.74777  0.80503  0.09335  1.0000 -0.2602658342
C   C367      1.0  0.09335  0.35385  0.74777  1.0000 -0.2602658342
C   C368      1.0  0.80503  0.74777  0.35385  1.0000 -0.2602658342
C   C369      1.0  0.80503  0.35385  0.09335  1.0000 -0.2602658342
C   C370      1.0  0.09335  0.74777  0.80503  1.0000 -0.2602658342
C   C371      1.0  0.74777  0.09335  0.35385  1.0000 -0.2602658342
C   C372      1.0  0.35385  0.80503  0.74777  1.0000 -0.2602658342
C   C373      1.0  0.90665  0.19497  0.64615  1.0000 -0.2602658342
C   C374      1.0  0.19497  0.90665  0.25223  1.0000 -0.2602658342
C   C375      1.0  0.64615  0.25223  0.90665  1.0000 -0.2602658342
C   C376      1.0  0.25223  0.64615  0.19497  1.0000 -0.2602658342
C   C377      1.0  0.64615  0.90665  0.19497  1.0000 -0.2602658342
C   C378      1.0  0.25223  0.19497  0.90665  1.0000 -0.2602658342
C   C379      1.0  0.90665  0.64615  0.25223  1.0000 -0.2602658342
C   C380      1.0  0.19497  0.25223  0.64615  1.0000 -0.2602658342
C   C381      1.0  0.19497  0.64615  0.90665  1.0000 -0.2602658342
C   C382      1.0  0.90665  0.25223  0.19497  1.0000 -0.2602658342
C   C383      1.0  0.25223  0.90665  0.64615  1.0000 -0.2602658342
C   C384      1.0  0.64615  0.19497  0.25223  1.0000 -0.2602658342
C   C385      1.0  0.06700  0.79914  0.39146  1.0000 0.0897061597
C   C386      1.0  0.79914  0.06700  0.74240  1.0000 0.0897061597
C   C387      1.0  0.39146  0.74240  0.06700  1.0000 0.0897061597
C   C388      1.0  0.74240  0.39146  0.79914  1.0000 0.0897061597
C   C389      1.0  0.39146  0.06700  0.79914  1.0000 0.0897061597
C   C390      1.0  0.74240  0.79914  0.06700  1.0000 0.0897061597
C   C391      1.0  0.06700  0.39146  0.74240  1.0000 0.0897061597
C   C392      1.0  0.79914  0.74240  0.39146  1.0000 0.0897061597
C   C393      1.0  0.79914  0.39146  0.06700  1.0000 0.0897061597
C   C394      1.0  0.06700  0.74240  0.79914  1.0000 0.0897061597
C   C395      1.0  0.74240  0.06700  0.39146  1.0000 0.0897061597
C   C396      1.0  0.39146  0.79914  0.74240  1.0000 0.0897061597
C   C397      1.0  0.93300  0.20086  0.60854  1.0000 0.0897061597
C   C398      1.0  0.20086  0.93300  0.25760  1.0000 0.0897061597
C   C399      1.0  0.60854  0.25760  0.93300  1.0000 0.0897061597
C   C400      1.0  0.25760  0.60854  0.20086  1.0000 0.0897061597
C   C401      1.0  0.60854  0.93300  0.20086  1.0000 0.0897061597
C   C402      1.0  0.25760  0.20086  0.93300  1.0000 0.0897061597
C   C403      1.0  0.93300  0.60854  0.25760  1.0000 0.0897061597
C   C404      1.0  0.20086  0.25760  0.60854  1.0000 0.0897061597
C   C405      1.0  0.20086  0.60854  0.93300  1.0000 0.0897061597
C   C406      1.0  0.93300  0.25760  0.20086  1.0000 0.0897061597
C   C407      1.0  0.25760  0.93300  0.60854  1.0000 0.0897061597
C   C408      1.0  0.60854  0.20086  0.25760  1.0000 0.0897061597
C   C409      1.0  0.05268  0.76874  0.40936  1.0000 -0.2159203393
C   C410      1.0  0.76874  0.05268  0.76922  1.0000 -0.2159203393
C   C411      1.0  0.40936  0.76922  0.05268  1.0000 -0.2159203393
C   C412      1.0  0.76922  0.40936  0.76874  1.0000 -0.2159203393
C   C413      1.0  0.40936  0.05268  0.76874  1.0000 -0.2159203393
C   C414      1.0  0.76922  0.76874  0.05268  1.0000 -0.2159203393
C   C415      1.0  0.05268  0.40936  0.76922  1.0000 -0.2159203393
C   C416      1.0  0.76874  0.76922  0.40936  1.0000 -0.2159203393
C   C417      1.0  0.76874  0.40936  0.05268  1.0000 -0.2159203393
C   C418      1.0  0.05268  0.76922  0.76874  1.0000 -0.2125153734
C   C419      1.0  0.76922  0.05268  0.40936  1.0000 -0.2159203393
C   C420      1.0  0.40936  0.76874  0.76922  1.0000 -0.2159203393
C   C421      1.0  0.94732  0.23126  0.59064  1.0000 -0.2159203393
C   C422      1.0  0.23126  0.94732  0.23078  1.0000 -0.2159203393
C   C423      1.0  0.59064  0.23078  0.94732  1.0000 -0.2125153734
C   C424      1.0  0.23078  0.59064  0.23126  1.0000 -0.2159203393
C   C425      1.0  0.59064  0.94732  0.23126  1.0000 -0.2159203393
C   C426      1.0  0.23078  0.23126  0.94732  1.0000 -0.2125153734
C   C427      1.0  0.94732  0.59064  0.23078  1.0000 -0.2159203393
C   C428      1.0  0.23126  0.23078  0.59064  1.0000 -0.2159203393
C   C429      1.0  0.23126  0.59064  0.94732  1.0000 -0.2125153734
C   C430      1.0  0.94732  0.23078  0.23126  1.0000 -0.2125153734
C   C431      1.0  0.23078  0.94732  0.59064  1.0000 -0.2159203393
C   C432      1.0  0.59064  0.23126  0.23078  1.0000 -0.2159203393
C   C433      1.0  0.06471  0.74419  0.38969  1.0000 0.0897061597
C   C434      1.0  0.74419  0.06471  0.80141  1.0000 0.0897061597
C   C435      1.0  0.38969  0.80141  0.06471  1.0000 0.0897061597
C   C436      1.0  0.80141  0.38969  0.74419  1.0000 0.0897061597
C   C437      1.0  0.38969  0.06471  0.74419  1.0000 0.0897061597
C   C438      1.0  0.80141  0.74419  0.06471  1.0000 0.0897061597
C   C439      1.0  0.06471  0.38969  0.80141  1.0000 0.0897061597
C   C440      1.0  0.74419  0.80141  0.38969  1.0000 0.0897061597
C   C441      1.0  0.74419  0.38969  0.06471  1.0000 0.0897061597
C   C442      1.0  0.06471  0.80141  0.74419  1.0000 0.0897061597
C   C443      1.0  0.80141  0.06471  0.38969  1.0000 0.0897061597
C   C444      1.0  0.38969  0.74419  0.80141  1.0000 0.0897061597
C   C445      1.0  0.93529  0.25581  0.61031  1.0000 0.0897061597
C   C446      1.0  0.25581  0.93529  0.19859  1.0000 0.0897061597
C   C447      1.0  0.61031  0.19859  0.93529  1.0000 0.0897061597
C   C448      1.0  0.19859  0.61031  0.25581  1.0000 0.0897061597
C   C449      1.0  0.61031  0.93529  0.25581  1.0000 0.0897061597
C   C450      1.0  0.19859  0.25581  0.93529  1.0000 0.0897061597
C   C451      1.0  0.93529  0.61031  0.19859  1.0000 0.0897061597
C   C452      1.0  0.25581  0.19859  0.61031  1.0000 0.0897061597
C   C453      1.0  0.25581  0.61031  0.93529  1.0000 0.0897061597
C   C454      1.0  0.93529  0.19859  0.25581  1.0000 0.0897061597
C   C455      1.0  0.19859  0.93529  0.61031  1.0000 0.0897061597
C   C456      1.0  0.61031  0.25581  0.19859  1.0000 0.0897061597
C   C457      1.0  0.09108  0.75004  0.35212  1.0000 -0.2602658342
C   C458      1.0  0.75004  0.09108  0.80676  1.0000 -0.2602658342
C   C459      1.0  0.35212  0.80676  0.09108  1.0000 -0.2602658342
C   C460      1.0  0.80676  0.35212  0.75004  1.0000 -0.2602658342
C   C461      1.0  0.35212  0.09108  0.75004  1.0000 -0.2602658342
C   C462      1.0  0.80676  0.75004  0.09108  1.0000 -0.2602658342
C   C463      1.0  0.09108  0.35212  0.80676  1.0000 -0.2602658342
C   C464      1.0  0.75004  0.80676  0.35212  1.0000 -0.2602658342
C   C465      1.0  0.75004  0.35212  0.09108  1.0000 -0.2602658342
C   C466      1.0  0.09108  0.80676  0.75004  1.0000 -0.2602658342
C   C467      1.0  0.80676  0.09108  0.35212  1.0000 -0.2602658342
C   C468      1.0  0.35212  0.75004  0.80676  1.0000 -0.2602658342
C   C469      1.0  0.90892  0.24996  0.64788  1.0000 -0.2602658342
C   C470      1.0  0.24996  0.90892  0.19324  1.0000 -0.2602658342
C   C471      1.0  0.64788  0.19324  0.90892  1.0000 -0.2602658342
C   C472      1.0  0.19324  0.64788  0.24996  1.0000 -0.2602658342
C   C473      1.0  0.64788  0.90892  0.24996  1.0000 -0.2602658342
C   C474      1.0  0.19324  0.24996  0.90892  1.0000 -0.2652452855
C   C475      1.0  0.90892  0.64788  0.19324  1.0000 -0.2602658342
C   C476      1.0  0.24996  0.19324  0.64788  1.0000 -0.2602658342
C   C477      1.0  0.24996  0.64788  0.90892  1.0000 -0.2602658342
C   C478      1.0  0.90892  0.19324  0.24996  1.0000 -0.2602658342
C   C479      1.0  0.19324  0.90892  0.64788  1.0000 -0.2602658342
C   C480      1.0  0.64788  0.24996  0.19324  1.0000 -0.2602658342
C   C481      1.0  0.19620  0.80380  0.24000  1.0000 -0.2125153734
C   C482      1.0  0.80380  0.19620  0.76000  1.0000 -0.2125153734
C   C483      1.0  0.24000  0.76000  0.19620  1.0000 -0.2125153734
C   C484      1.0  0.76000  0.24000  0.80380  1.0000 -0.2125153734
C   C485      1.0  0.24000  0.19620  0.80380  1.0000 -0.2125153734
C   C486      1.0  0.76000  0.80380  0.19620  1.0000 -0.2125153734
C   C487      1.0  0.19620  0.24000  0.76000  1.0000 -0.2125153734
C   C488      1.0  0.80380  0.76000  0.24000  1.0000 -0.2125153734
C   C489      1.0  0.80380  0.24000  0.19620  1.0000 -0.2125153734
C   C490      1.0  0.19620  0.76000  0.80380  1.0000 -0.2125153734
C   C491      1.0  0.76000  0.19620  0.24000  1.0000 -0.2125153734
C   C492      1.0  0.24000  0.80380  0.76000  1.0000 -0.2125153734
C   C493      1.0  0.18699  0.77361  0.24921  1.0000 0.0064615407
C   C494      1.0  0.77361  0.18699  0.79019  1.0000 0.0047660893
C   C495      1.0  0.24921  0.79019  0.18699  1.0000 0.0064615407
C   C496      1.0  0.79019  0.24921  0.77361  1.0000 0.0064615407
C   C497      1.0  0.24921  0.18699  0.77361  1.0000 0.0064615407
C   C498      1.0  0.79019  0.77361  0.18699  1.0000 0.0064615407
C   C499      1.0  0.18699  0.24921  0.79019  1.0000 0.0064615407
C   C500      1.0  0.77361  0.79019  0.24921  1.0000 0.0064615407
C   C501      1.0  0.77361  0.24921  0.18699  1.0000 0.0064615407
C   C502      1.0  0.18699  0.79019  0.77361  1.0000 0.0064615407
C   C503      1.0  0.79019  0.18699  0.24921  1.0000 0.0064615407
C   C504      1.0  0.24921  0.77361  0.79019  1.0000 0.0064615407
C   C505      1.0  0.81301  0.22639  0.75079  1.0000 0.0064615407
C   C506      1.0  0.22639  0.81301  0.20981  1.0000 0.0064615407
C   C507      1.0  0.75079  0.20981  0.81301  1.0000 0.0064615407
C   C508      1.0  0.20981  0.75079  0.22639  1.0000 0.0064615407
C   C509      1.0  0.75079  0.81301  0.22639  1.0000 0.0064615407
C   C510      1.0  0.20981  0.22639  0.81301  1.0000 0.0064615407
C   C511      1.0  0.81301  0.75079  0.20981  1.0000 0.0064615407
C   C512      1.0  0.22639  0.20981  0.75079  1.0000 0.0064615407
C   C513      1.0  0.22639  0.75079  0.81301  1.0000 0.0064615407
C   C514      1.0  0.81301  0.20981  0.22639  1.0000 0.0064615407
C   C515      1.0  0.20981  0.81301  0.75079  1.0000 0.0064615407
C   C516      1.0  0.75079  0.22639  0.20981  1.0000 0.0064615407
C   C517      1.0  0.16380  0.76340  0.29340  1.0000 -0.0892105038
C   C518      1.0  0.76340  0.16380  0.77940  1.0000 -0.0892105038
C   C519      1.0  0.29340  0.77940  0.16380  1.0000 -0.0892105038
C   C520      1.0  0.77940  0.29340  0.76340  1.0000 -0.0892105038
C   C521      1.0  0.29340  0.16380  0.76340  1.0000 -0.0892105038
C   C522      1.0  0.77940  0.76340  0.16380  1.0000 -0.0892105038
C   C523      1.0  0.16380  0.29340  0.77940  1.0000 -0.0892105038
C   C524      1.0  0.76340  0.77940  0.29340  1.0000 -0.0892105038
C   C525      1.0  0.76340  0.29340  0.16380  1.0000 -0.0892105038
C   C526      1.0  0.16380  0.77940  0.76340  1.0000 -0.0892105038
C   C527      1.0  0.77940  0.16380  0.29340  1.0000 -0.0892105038
C   C528      1.0  0.29340  0.76340  0.77940  1.0000 -0.0892105038
C   C529      1.0  0.83620  0.23660  0.70660  1.0000 -0.0892105038
C   C530      1.0  0.23660  0.83620  0.22060  1.0000 -0.0892105038
C   C531      1.0  0.70660  0.22060  0.83620  1.0000 -0.0892105038
C   C532      1.0  0.22060  0.70660  0.23660  1.0000 -0.0892105038
C   C533      1.0  0.70660  0.83620  0.23660  1.0000 -0.0892105038
C   C534      1.0  0.22060  0.23660  0.83620  1.0000 -0.0892105038
C   C535      1.0  0.83620  0.70660  0.22060  1.0000 -0.0892105038
C   C536      1.0  0.23660  0.22060  0.70660  1.0000 -0.0892105038
C   C537      1.0  0.23660  0.70660  0.83620  1.0000 -0.0892105038
C   C538      1.0  0.83620  0.22060  0.23660  1.0000 -0.0892105038
C   C539      1.0  0.22060  0.83620  0.70660  1.0000 -0.0892105038
C   C540      1.0  0.70660  0.23660  0.22060  1.0000 -0.0892105038
O   O1        1.0  0.00932  0.60602  0.43762  1.0000 -0.5913854668
O   O2        1.0  0.60602  0.00932  0.94704  1.0000 -0.5913854668
O   O3        1.0  0.43762  0.94704  0.00932  1.0000 -0.5913854668
O   O4        1.0  0.94704  0.43762  0.60602  1.0000 -0.5913854668
O   O5        1.0  0.43762  0.00932  0.60602  1.0000 -0.5913854668
O   O6        1.0  0.94704  0.60602  0.00932  1.0000 -0.5913854668
O   O7        1.0  0.00932  0.43762  0.94704  1.0000 -0.5913854668
O   O8        1.0  0.60602  0.94704  0.43762  1.0000 -0.5913854668
O   O9        1.0  0.60602  0.43762  0.00932  1.0000 -0.5913854668
O   O10       1.0  0.00932  0.94704  0.60602  1.0000 -0.5913854668
O   O11       1.0  0.94704  0.00932  0.43762  1.0000 -0.5913854668
O   O12       1.0  0.43762  0.60602  0.94704  1.0000 -0.5913854668
O   O13       1.0  0.99068  0.39398  0.56238  1.0000 -0.5913854668
O   O14       1.0  0.39398  0.99068  0.05296  1.0000 -0.5913854668
O   O15       1.0  0.56238  0.05296  0.99068  1.0000 -0.5913854668
O   O16       1.0  0.05296  0.56238  0.39398  1.0000 -0.5913854668
O   O17       1.0  0.56238  0.99068  0.39398  1.0000 -0.5913854668
O   O18       1.0  0.05296  0.39398  0.99068  1.0000 -0.5913854668
O   O19       1.0  0.99068  0.56238  0.05296  1.0000 -0.5913854668
O   O20       1.0  0.39398  0.05296  0.56238  1.0000 -0.5913854668
O   O21       1.0  0.39398  0.56238  0.99068  1.0000 -0.5913854668
O   O22       1.0  0.99068  0.05296  0.39398  1.0000 -0.5913854668
O   O23       1.0  0.05296  0.99068  0.56238  1.0000 -0.5913854668
O   O24       1.0  0.56238  0.39398  0.05296  1.0000 -0.5913854668
O   O25       1.0  0.00928  0.94646  0.43816  1.0000 -0.5913854668
O   O26       1.0  0.94646  0.00928  0.60610  1.0000 -0.5976049485
O   O27       1.0  0.43816  0.60610  0.00928  1.0000 -0.5976049485
O   O28       1.0  0.60610  0.43816  0.94646  1.0000 -0.5976049485
O   O29       1.0  0.43816  0.00928  0.94646  1.0000 -0.5976049485
O   O30       1.0  0.60610  0.94646  0.00928  1.0000 -0.5976049485
O   O31       1.0  0.00928  0.43816  0.60610  1.0000 -0.5976049485
O   O32       1.0  0.94646  0.60610  0.43816  1.0000 -0.5976049485
O   O33       1.0  0.94646  0.43816  0.00928  1.0000 -0.5913854668
O   O34       1.0  0.00928  0.60610  0.94646  1.0000 -0.5976049485
O   O35       1.0  0.60610  0.00928  0.43816  1.0000 -0.5913854668
O   O36       1.0  0.43816  0.94646  0.60610  1.0000 -0.5976049485
O   O37       1.0  0.99072  0.05354  0.56184  1.0000 -0.5976049485
O   O38       1.0  0.05354  0.99072  0.39390  1.0000 -0.5976049485
O   O39       1.0  0.56184  0.39390  0.99072  1.0000 -0.5976049485
O   O40       1.0  0.39390  0.56184  0.05354  1.0000 -0.5976049485
O   O41       1.0  0.56184  0.99072  0.05354  1.0000 -0.5913854668
O   O42       1.0  0.39390  0.05354  0.99072  1.0000 -0.5976049485
O   O43       1.0  0.99072  0.56184  0.39390  1.0000 -0.5976049485
O   O44       1.0  0.05354  0.39390  0.56184  1.0000 -0.5976049485
O   O45       1.0  0.05354  0.56184  0.99072  1.0000 -0.5976049485
O   O46       1.0  0.99072  0.39390  0.05354  1.0000 -0.5976049485
O   O47       1.0  0.39390  0.99072  0.56184  1.0000 -0.5976049485
O   O48       1.0  0.56184  0.05354  0.39390  1.0000 -0.5976049485
O   O49       1.0  0.01806  0.58914  0.49338  1.0000 -0.6086055696
O   O50       1.0  0.58914  0.01806  0.89942  1.0000 -0.6086055696
O   O51       1.0  0.49338  0.89942  0.01806  1.0000 -0.6086055696
O   O52       1.0  0.89942  0.49338  0.58914  1.0000 -0.6086055696
O   O53       1.0  0.49338  0.01806  0.58914  1.0000 -0.6086055696
O   O54       1.0  0.89942  0.58914  0.01806  1.0000 -0.6086055696
O   O55       1.0  0.01806  0.49338  0.89942  1.0000 -0.6086055696
O   O56       1.0  0.58914  0.89942  0.49338  1.0000 -0.6086055696
O   O57       1.0  0.58914  0.49338  0.01806  1.0000 -0.6086055696
O   O58       1.0  0.01806  0.89942  0.58914  1.0000 -0.6086055696
O   O59       1.0  0.89942  0.01806  0.49338  1.0000 -0.5976049485
O   O60       1.0  0.49338  0.58914  0.89942  1.0000 -0.6086055696
O   O61       1.0  0.98194  0.41086  0.50662  1.0000 -0.6086055696
O   O62       1.0  0.41086  0.98194  0.10058  1.0000 -0.6086055696
O   O63       1.0  0.50662  0.10058  0.98194  1.0000 -0.6086055696
O   O64       1.0  0.10058  0.50662  0.41086  1.0000 -0.6086055696
O   O65       1.0  0.50662  0.98194  0.41086  1.0000 -0.6086055696
O   O66       1.0  0.10058  0.41086  0.98194  1.0000 -0.6086055696
O   O67       1.0  0.98194  0.50662  0.10058  1.0000 -0.6086055696
O   O68       1.0  0.41086  0.10058  0.50662  1.0000 -0.6086055696
O   O69       1.0  0.41086  0.50662  0.98194  1.0000 -0.6086055696
O   O70       1.0  0.98194  0.10058  0.41086  1.0000 -0.6086055696
O   O71       1.0  0.10058  0.98194  0.50662  1.0000 -0.6086055696
O   O72       1.0  0.50662  0.41086  0.10058  1.0000 -0.6086055696
O   O73       1.0  0.01784  0.89922  0.49362  1.0000 -0.5913854668
O   O74       1.0  0.89922  0.01784  0.58932  1.0000 -0.5913854668
O   O75       1.0  0.49362  0.58932  0.01784  1.0000 -0.5913854668
O   O76       1.0  0.58932  0.49362  0.89922  1.0000 -0.5913854668
O   O77       1.0  0.49362  0.01784  0.89922  1.0000 -0.5913854668
O   O78       1.0  0.58932  0.89922  0.01784  1.0000 -0.5913854668
O   O79       1.0  0.01784  0.49362  0.58932  1.0000 -0.5913854668
O   O80       1.0  0.89922  0.58932  0.49362  1.0000 -0.5913854668
O   O81       1.0  0.89922  0.49362  0.01784  1.0000 -0.5913854668
O   O82       1.0  0.01784  0.58932  0.89922  1.0000 -0.5913854668
O   O83       1.0  0.58932  0.01784  0.49362  1.0000 -0.5913854668
O   O84       1.0  0.49362  0.89922  0.58932  1.0000 -0.5913854668
O   O85       1.0  0.98216  0.10078  0.50638  1.0000 -0.5913854668
O   O86       1.0  0.10078  0.98216  0.41068  1.0000 -0.5913854668
O   O87       1.0  0.50638  0.41068  0.98216  1.0000 -0.5913854668
O   O88       1.0  0.41068  0.50638  0.10078  1.0000 -0.5913854668
O   O89       1.0  0.50638  0.98216  0.10078  1.0000 -0.5913854668
O   O90       1.0  0.41068  0.10078  0.98216  1.0000 -0.5913854668
O   O91       1.0  0.98216  0.50638  0.41068  1.0000 -0.5913854668
O   O92       1.0  0.10078  0.41068  0.50638  1.0000 -0.5913854668
O   O93       1.0  0.10078  0.50638  0.98216  1.0000 -0.5913854668
O   O94       1.0  0.98216  0.41068  0.10078  1.0000 -0.5913854668
O   O95       1.0  0.41068  0.98216  0.50638  1.0000 -0.5913854668
O   O96       1.0  0.50638  0.10078  0.41068  1.0000 -0.5913854668
O   O97       1.0  0.95741  0.04259  0.47147  1.0000 -1.1790347167
O   O98       1.0  0.04259  0.95741  0.52853  1.0000 -1.1790347167
O   O99       1.0  0.47147  0.52853  0.95741  1.0000 -1.1710003682
O   O100      1.0  0.52853  0.47147  0.04259  1.0000 -1.1790347167
O   O101      1.0  0.47147  0.95741  0.04259  1.0000 -1.1790347167
O   O102      1.0  0.52853  0.04259  0.95741  1.0000 -1.1710003682
O   O103      1.0  0.95741  0.47147  0.52853  1.0000 -1.1790347167
O   O104      1.0  0.04259  0.52853  0.47147  1.0000 -1.1850405602
O   O105      1.0  0.04259  0.47147  0.95741  1.0000 -1.1710003682
O   O106      1.0  0.95741  0.52853  0.04259  1.0000 -1.1710003682
O   O107      1.0  0.52853  0.95741  0.47147  1.0000 -1.1790347167
O   O108      1.0  0.47147  0.04259  0.52853  1.0000 -1.1710003682
O   O109      1.0  0.04244  0.95756  0.47158  1.0000 -1.1790347167
O   O110      1.0  0.95756  0.04244  0.52842  1.0000 -1.1710003682
O   O111      1.0  0.47158  0.52842  0.04244  1.0000 -1.1790347167
O   O112      1.0  0.52842  0.47158  0.95756  1.0000 -1.1790347167
O   O113      1.0  0.47158  0.04244  0.95756  1.0000 -1.1790347167
O   O114      1.0  0.52842  0.95756  0.04244  1.0000 -1.1710003682
O   O115      1.0  0.04244  0.47158  0.52842  1.0000 -1.1710003682
O   O116      1.0  0.95756  0.52842  0.47158  1.0000 -1.1710003682
O   O117      1.0  0.95756  0.47158  0.04244  1.0000 -1.1710003682
O   O118      1.0  0.04244  0.52842  0.95756  1.0000 -1.1710003682
O   O119      1.0  0.52842  0.04244  0.47158  1.0000 -1.1790347167
O   O120      1.0  0.47158  0.95756  0.52842  1.0000 -1.1790347167
O   O121      1.0  0.02971  0.02937  0.44241  1.0000 -1.1591015374
O   O122      1.0  0.02937  0.02971  0.49851  1.0000 -1.1591015374
O   O123      1.0  0.44241  0.49851  0.02971  1.0000 -1.1591015374
O   O124      1.0  0.49851  0.44241  0.02937  1.0000 -1.1591015374
O   O125      1.0  0.44241  0.02971  0.02937  1.0000 -1.1591015374
O   O126      1.0  0.49851  0.02937  0.02971  1.0000 -1.1710003682
O   O127      1.0  0.02971  0.44241  0.49851  1.0000 -1.1591015374
O   O128      1.0  0.02937  0.49851  0.44241  1.0000 -1.1591015374
O   O129      1.0  0.02937  0.44241  0.02971  1.0000 -1.1591015374
O   O130      1.0  0.02971  0.49851  0.02937  1.0000 -1.1710003682
O   O131      1.0  0.49851  0.02971  0.44241  1.0000 -1.1591015374
O   O132      1.0  0.44241  0.02937  0.49851  1.0000 -1.1591015374
O   O133      1.0  0.97029  0.97063  0.55759  1.0000 -1.1591015374
O   O134      1.0  0.97063  0.97029  0.50149  1.0000 -1.1591015374
O   O135      1.0  0.55759  0.50149  0.97029  1.0000 -1.1710003682
O   O136      1.0  0.50149  0.55759  0.97063  1.0000 -1.1710003682
O   O137      1.0  0.55759  0.97029  0.97063  1.0000 -1.1710003682
O   O138      1.0  0.50149  0.97063  0.97029  1.0000 -1.1591015374
O   O139      1.0  0.97029  0.55759  0.50149  1.0000 -1.1591015374
O   O140      1.0  0.97063  0.50149  0.55759  1.0000 -1.1591015374
O   O141      1.0  0.97063  0.55759  0.97029  1.0000 -1.1710003682
O   O142      1.0  0.97029  0.50149  0.97063  1.0000 -1.1710003682
O   O143      1.0  0.50149  0.97029  0.55759  1.0000 -1.1591015374
O   O144      1.0  0.55759  0.97063  0.50149  1.0000 -1.1591015374
O   O145      1.0  0.12770  0.79210  0.29270  1.0000 -0.2125153734
O   O146      1.0  0.79210  0.12770  0.78750  1.0000 -0.2044326518
O   O147      1.0  0.29270  0.78750  0.12770  1.0000 -0.2044326518
O   O148      1.0  0.78750  0.29270  0.79210  1.0000 -0.2044326518
O   O149      1.0  0.29270  0.12770  0.79210  1.0000 -0.2044326518
O   O150      1.0  0.78750  0.79210  0.12770  1.0000 -0.2044326518
O   O151      1.0  0.12770  0.29270  0.78750  1.0000 -0.2044326518
O   O152      1.0  0.79210  0.78750  0.29270  1.0000 -0.2044326518
O   O153      1.0  0.79210  0.29270  0.12770  1.0000 -0.2044326518
O   O154      1.0  0.12770  0.78750  0.79210  1.0000 -0.2044326518
O   O155      1.0  0.78750  0.12770  0.29270  1.0000 -0.2044326518
O   O156      1.0  0.29270  0.79210  0.78750  1.0000 -0.2044326518
O   O157      1.0  0.87230  0.20790  0.70730  1.0000 -0.2044326518
O   O158      1.0  0.20790  0.87230  0.21250  1.0000 -0.2044326518
O   O159      1.0  0.70730  0.21250  0.87230  1.0000 -0.2044326518
O   O160      1.0  0.21250  0.70730  0.20790  1.0000 -0.2044326518
O   O161      1.0  0.70730  0.87230  0.20790  1.0000 -0.2125153734
O   O162      1.0  0.21250  0.20790  0.87230  1.0000 -0.2044326518
O   O163      1.0  0.87230  0.70730  0.21250  1.0000 -0.2044326518
O   O164      1.0  0.20790  0.21250  0.70730  1.0000 -0.2044326518
O   O165      1.0  0.20790  0.70730  0.87230  1.0000 -0.2044326518
O   O166      1.0  0.87230  0.21250  0.20790  1.0000 -0.2044326518
O   O167      1.0  0.21250  0.87230  0.70730  1.0000 -0.2125153734
O   O168      1.0  0.70730  0.20790  0.21250  1.0000 -0.2044326518
