# DDEC6 charges by PACMAN v1.1 (https://github.com/mtap-research/PACMAN-charge/)
data_2023[Zr][reo]3[ASR]4
_chemical_formula_sum              "Zr36 H60 C156 S24 O168"
_cell_length_a       27.4669
_cell_length_b       27.4669
_cell_length_c       27.4669
_cell_angle_alpha    60
_cell_angle_beta     60
_cell_angle_gamma    60

_symmetry_space_group_name_H-M    "P 1"
_symmetry_Int_Tables_number       1

loop_
  _symmetry_equiv_pos_as_xyz
  'x, y, z'

loop_
  _atom_site_type_symbol
  _atom_site_label
  _atom_site_symmetry_multiplicity
  _atom_site_fract_x
  _atom_site_fract_y
  _atom_site_fract_z
  _atom_site_occupancy
  _atom_site_charge
Zr  Zr1       1.0  0.54510  0.89060  0.01920  1.0000 2.4109678808
Zr  Zr2       1.0  0.89060  0.54510  0.54510  1.0000 2.4109678808
Zr  Zr3       1.0  0.01920  0.54510  0.54510  1.0000 2.4109678808
Zr  Zr4       1.0  0.54510  0.01920  0.89060  1.0000 2.4109678808
Zr  Zr5       1.0  0.01920  0.54510  0.89060  1.0000 2.4109678808
Zr  Zr6       1.0  0.54510  0.89060  0.54510  1.0000 2.4109678808
Zr  Zr7       1.0  0.54510  0.01920  0.54510  1.0000 2.4109678808
Zr  Zr8       1.0  0.89060  0.54510  0.01920  1.0000 2.4109678808
Zr  Zr9       1.0  0.89060  0.01920  0.54510  1.0000 2.4109678808
Zr  Zr10      1.0  0.54510  0.54510  0.89060  1.0000 2.4109678808
Zr  Zr11      1.0  0.54510  0.54510  0.01920  1.0000 2.4109678808
Zr  Zr12      1.0  0.01920  0.89060  0.54510  1.0000 2.4109678808
Zr  Zr13      1.0  0.45490  0.10940  0.45490  1.0000 2.4159153698
Zr  Zr14      1.0  0.10940  0.45490  0.98080  1.0000 2.4109678808
Zr  Zr15      1.0  0.98080  0.45490  0.10940  1.0000 2.4109678808
Zr  Zr16      1.0  0.45490  0.98080  0.45490  1.0000 2.4109678808
Zr  Zr17      1.0  0.98080  0.45490  0.45490  1.0000 2.4109678808
Zr  Zr18      1.0  0.45490  0.10940  0.98080  1.0000 2.4109678808
Zr  Zr19      1.0  0.45490  0.98080  0.10940  1.0000 2.4109678808
Zr  Zr20      1.0  0.10940  0.45490  0.45490  1.0000 2.4109678808
Zr  Zr21      1.0  0.10940  0.98080  0.45490  1.0000 2.4109678808
Zr  Zr22      1.0  0.45490  0.45490  0.98080  1.0000 2.4109678808
Zr  Zr23      1.0  0.45490  0.45490  0.10940  1.0000 2.4109678808
Zr  Zr24      1.0  0.98080  0.10940  0.45490  1.0000 2.4159153698
Zr  Zr25      1.0  0.58962  0.00000  0.00000  1.0000 2.3498552386
Zr  Zr26      1.0  1.00000  0.58962  0.41038  1.0000 2.3448799847
Zr  Zr27      1.0  0.00000  0.41038  0.58962  1.0000 2.3498552386
Zr  Zr28      1.0  0.41038  0.00000  0.00000  1.0000 2.3498552386
Zr  Zr29      1.0  0.00000  0.58962  0.00000  1.0000 2.3498552386
Zr  Zr30      1.0  0.41038  0.00000  0.58962  1.0000 2.3498552386
Zr  Zr31      1.0  0.58962  0.00000  0.41038  1.0000 2.3498552386
Zr  Zr32      1.0  0.00000  0.41038  0.00000  1.0000 2.3498552386
Zr  Zr33      1.0  0.00000  0.00000  0.58962  1.0000 2.3498552386
Zr  Zr34      1.0  0.58962  0.41038  0.00000  1.0000 2.3498552386
Zr  Zr35      1.0  0.41038  0.58962  0.00000  1.0000 2.3498552386
Zr  Zr36      1.0  0.00000  0.00000  0.41038  1.0000 2.3498552386
H   H1        1.0  0.50000  0.80376  0.19624  1.0000 0.0835670075
H   H2        1.0  0.80376  0.50000  0.50000  1.0000 0.0835670075
H   H3        1.0  0.19624  0.50000  0.50000  1.0000 0.0835670075
H   H4        1.0  0.50000  0.19624  0.80376  1.0000 0.0851168333
H   H5        1.0  0.19624  0.50000  0.80376  1.0000 0.0835670075
H   H6        1.0  0.50000  0.80376  0.50000  1.0000 0.0835670075
H   H7        1.0  0.50000  0.19624  0.50000  1.0000 0.0835670075
H   H8        1.0  0.80376  0.50000  0.19624  1.0000 0.0835670075
H   H9        1.0  0.80376  0.19624  0.50000  1.0000 0.0835670075
H   H10       1.0  0.50000  0.50000  0.80376  1.0000 0.0835670075
H   H11       1.0  0.50000  0.50000  0.19624  1.0000 0.0835670075
H   H12       1.0  0.19624  0.80376  0.50000  1.0000 0.0835670075
H   H13       1.0  0.65509  0.99257  0.13206  1.0000 0.138055913
H   H14       1.0  0.99257  0.65509  0.22027  1.0000 0.138055913
H   H15       1.0  0.13206  0.22027  0.65509  1.0000 0.138055913
H   H16       1.0  0.22028  0.13206  0.99257  1.0000 0.138055913
H   H17       1.0  0.13206  0.65509  0.99257  1.0000 0.138055913
H   H18       1.0  0.22027  0.99257  0.65509  1.0000 0.138055913
H   H19       1.0  0.65510  0.13206  0.22027  1.0000 0.138055913
H   H20       1.0  0.99257  0.22027  0.13206  1.0000 0.138055913
H   H21       1.0  0.99257  0.13207  0.65509  1.0000 0.138055913
H   H22       1.0  0.65510  0.22028  0.99257  1.0000 0.138055913
H   H23       1.0  0.22028  0.65509  0.13206  1.0000 0.138055913
H   H24       1.0  0.13207  0.99257  0.22027  1.0000 0.138055913
H   H25       1.0  0.34490  0.00743  0.77973  1.0000 0.138055913
H   H26       1.0  0.00744  0.34491  0.86794  1.0000 0.138055913
H   H27       1.0  0.86793  0.77973  0.00744  1.0000 0.138055913
H   H28       1.0  0.77973  0.86793  0.34491  1.0000 0.138055913
H   H29       1.0  0.86793  0.34491  0.77973  1.0000 0.138055913
H   H30       1.0  0.77972  0.00744  0.86794  1.0000 0.138055913
H   H31       1.0  0.34491  0.86793  0.00744  1.0000 0.138055913
H   H32       1.0  0.00744  0.77973  0.34491  1.0000 0.138055913
H   H33       1.0  0.00744  0.86793  0.77973  1.0000 0.138055913
H   H34       1.0  0.34491  0.77973  0.86794  1.0000 0.138055913
H   H35       1.0  0.77973  0.34491  0.00744  1.0000 0.138055913
H   H36       1.0  0.86794  0.00744  0.34491  1.0000 0.138055913
H   H37       1.0  0.34491  0.00744  0.86794  1.0000 0.138055913
H   H38       1.0  0.00743  0.34491  0.77973  1.0000 0.138055913
H   H39       1.0  0.86793  0.77973  0.34491  1.0000 0.138055913
H   H40       1.0  0.77973  0.86793  0.00744  1.0000 0.138055913
H   H41       1.0  0.86794  0.34491  0.00744  1.0000 0.138055913
H   H42       1.0  0.77973  0.00744  0.34491  1.0000 0.138055913
H   H43       1.0  0.34490  0.86793  0.77973  1.0000 0.138055913
H   H44       1.0  0.00743  0.77973  0.86794  1.0000 0.138055913
H   H45       1.0  0.00744  0.86793  0.34491  1.0000 0.138055913
H   H46       1.0  0.34491  0.77973  0.00744  1.0000 0.138055913
H   H47       1.0  0.77973  0.34491  0.86794  1.0000 0.138055913
H   H48       1.0  0.86793  0.00743  0.77973  1.0000 0.138055913
H   H49       1.0  0.65509  0.99257  0.22027  1.0000 0.138055913
H   H50       1.0  0.99257  0.65509  0.13206  1.0000 0.138055913
H   H51       1.0  0.13207  0.22028  0.99257  1.0000 0.138055913
H   H52       1.0  0.22028  0.13207  0.65509  1.0000 0.138055913
H   H53       1.0  0.13206  0.65509  0.22027  1.0000 0.138055913
H   H54       1.0  0.22027  0.99257  0.13206  1.0000 0.138055913
H   H55       1.0  0.65509  0.13206  0.99257  1.0000 0.138055913
H   H56       1.0  0.99257  0.22027  0.65509  1.0000 0.138055913
H   H57       1.0  0.99257  0.13206  0.22027  1.0000 0.138055913
H   H58       1.0  0.65509  0.22027  0.13206  1.0000 0.138055913
H   H59       1.0  0.22028  0.65509  0.99257  1.0000 0.138055913
H   H60       1.0  0.13207  0.99257  0.65509  1.0000 0.138055913
C   C1        1.0  0.50000  0.83760  0.16240  1.0000 0.4404772429
C   C2        1.0  0.83760  0.50000  0.50000  1.0000 0.4404772429
C   C3        1.0  0.16240  0.50000  0.50000  1.0000 0.4404772429
C   C4        1.0  0.50000  0.16240  0.83760  1.0000 0.4404772429
C   C5        1.0  0.16240  0.50000  0.83760  1.0000 0.4497565923
C   C6        1.0  0.50000  0.83760  0.50000  1.0000 0.4404772429
C   C7        1.0  0.50000  0.16240  0.50000  1.0000 0.4404772429
C   C8        1.0  0.83760  0.50000  0.16240  1.0000 0.4404772429
C   C9        1.0  0.83760  0.16240  0.50000  1.0000 0.4404772429
C   C10       1.0  0.50000  0.50000  0.83760  1.0000 0.4497565923
C   C11       1.0  0.50000  0.50000  0.16240  1.0000 0.4404772429
C   C12       1.0  0.16240  0.83760  0.50000  1.0000 0.4404772429
C   C13       1.0  0.55940  0.97800  0.13600  1.0000 0.6505331023
C   C14       1.0  0.97800  0.55940  0.32660  1.0000 0.6505331023
C   C15       1.0  0.13600  0.32660  0.55940  1.0000 0.6505331023
C   C16       1.0  0.32660  0.13600  0.97800  1.0000 0.6505331023
C   C17       1.0  0.13600  0.55940  0.97800  1.0000 0.6505331023
C   C18       1.0  0.32660  0.97800  0.55940  1.0000 0.6505331023
C   C19       1.0  0.55940  0.13600  0.32660  1.0000 0.6505331023
C   C20       1.0  0.97800  0.32660  0.13600  1.0000 0.6505331023
C   C21       1.0  0.97800  0.13600  0.55940  1.0000 0.6505331023
C   C22       1.0  0.55940  0.32660  0.97800  1.0000 0.6505331023
C   C23       1.0  0.32660  0.55940  0.13600  1.0000 0.6505331023
C   C24       1.0  0.13600  0.97800  0.32660  1.0000 0.6505331023
C   C25       1.0  0.44060  0.02200  0.67340  1.0000 0.6505331023
C   C26       1.0  0.02200  0.44060  0.86400  1.0000 0.6505331023
C   C27       1.0  0.86400  0.67340  0.02200  1.0000 0.6505331023
C   C28       1.0  0.67340  0.86400  0.44060  1.0000 0.6505331023
C   C29       1.0  0.86400  0.44060  0.67340  1.0000 0.6505331023
C   C30       1.0  0.67340  0.02200  0.86400  1.0000 0.6505331023
C   C31       1.0  0.44060  0.86400  0.02200  1.0000 0.6505331023
C   C32       1.0  0.02200  0.67340  0.44060  1.0000 0.6505331023
C   C33       1.0  0.02200  0.86400  0.67340  1.0000 0.6505331023
C   C34       1.0  0.44060  0.67340  0.86400  1.0000 0.6505331023
C   C35       1.0  0.67340  0.44060  0.02200  1.0000 0.6505331023
C   C36       1.0  0.86400  0.02200  0.44060  1.0000 0.6505331023
C   C37       1.0  0.44060  0.02200  0.86400  1.0000 0.6505331023
C   C38       1.0  0.02200  0.44060  0.67340  1.0000 0.6505331023
C   C39       1.0  0.86400  0.67340  0.44060  1.0000 0.6505331023
C   C40       1.0  0.67340  0.86400  0.02200  1.0000 0.6505331023
C   C41       1.0  0.86400  0.44060  0.02200  1.0000 0.6505331023
C   C42       1.0  0.67340  0.02200  0.44060  1.0000 0.6505331023
C   C43       1.0  0.44060  0.86400  0.67340  1.0000 0.6505331023
C   C44       1.0  0.02200  0.67340  0.86400  1.0000 0.6505331023
C   C45       1.0  0.02200  0.86400  0.44060  1.0000 0.6505331023
C   C46       1.0  0.44060  0.67340  0.02200  1.0000 0.6505331023
C   C47       1.0  0.67340  0.44060  0.86400  1.0000 0.6505331023
C   C48       1.0  0.86400  0.02200  0.67340  1.0000 0.6505331023
C   C49       1.0  0.55940  0.97800  0.32660  1.0000 0.6505331023
C   C50       1.0  0.97800  0.55940  0.13600  1.0000 0.6505331023
C   C51       1.0  0.13600  0.32660  0.97800  1.0000 0.6505331023
C   C52       1.0  0.32660  0.13600  0.55940  1.0000 0.6505331023
C   C53       1.0  0.13600  0.55940  0.32660  1.0000 0.6505331023
C   C54       1.0  0.32660  0.97800  0.13600  1.0000 0.6505331023
C   C55       1.0  0.55940  0.13600  0.97800  1.0000 0.6505331023
C   C56       1.0  0.97800  0.32660  0.55940  1.0000 0.6505331023
C   C57       1.0  0.97800  0.13600  0.32660  1.0000 0.6505331023
C   C58       1.0  0.55940  0.32660  0.13600  1.0000 0.6505331023
C   C59       1.0  0.32660  0.55940  0.97800  1.0000 0.6505331023
C   C60       1.0  0.13600  0.97800  0.55940  1.0000 0.6505331023
C   C61       1.0  0.57670  0.97730  0.17850  1.0000 -0.1575957853
C   C62       1.0  0.97730  0.57670  0.26750  1.0000 -0.1544302406
C   C63       1.0  0.17850  0.26750  0.57670  1.0000 -0.1575957853
C   C64       1.0  0.26750  0.17850  0.97730  1.0000 -0.1575957853
C   C65       1.0  0.17850  0.57670  0.97730  1.0000 -0.1575957853
C   C66       1.0  0.26750  0.97730  0.57670  1.0000 -0.1575957853
C   C67       1.0  0.57670  0.17850  0.26750  1.0000 -0.1575957853
C   C68       1.0  0.97730  0.26750  0.17850  1.0000 -0.1575957853
C   C69       1.0  0.97730  0.17850  0.57670  1.0000 -0.1575957853
C   C70       1.0  0.57670  0.26750  0.97730  1.0000 -0.1544302406
C   C71       1.0  0.26750  0.57670  0.17850  1.0000 -0.1575957853
C   C72       1.0  0.17850  0.97730  0.26750  1.0000 -0.1575957853
C   C73       1.0  0.42330  0.02270  0.73250  1.0000 -0.1575957853
C   C74       1.0  0.02270  0.42330  0.82150  1.0000 -0.1575957853
C   C75       1.0  0.82150  0.73250  0.02270  1.0000 -0.1575957853
C   C76       1.0  0.73250  0.82150  0.42330  1.0000 -0.1575957853
C   C77       1.0  0.82150  0.42330  0.73250  1.0000 -0.1544302406
C   C78       1.0  0.73250  0.02270  0.82150  1.0000 -0.1575957853
C   C79       1.0  0.42330  0.82150  0.02270  1.0000 -0.1575957853
C   C80       1.0  0.02270  0.73250  0.42330  1.0000 -0.1575957853
C   C81       1.0  0.02270  0.82150  0.73250  1.0000 -0.1575957853
C   C82       1.0  0.42330  0.73250  0.82150  1.0000 -0.1575957853
C   C83       1.0  0.73250  0.42330  0.02270  1.0000 -0.1575957853
C   C84       1.0  0.82150  0.02270  0.42330  1.0000 -0.1575957853
C   C85       1.0  0.42330  0.02270  0.82150  1.0000 -0.1575957853
C   C86       1.0  0.02270  0.42330  0.73250  1.0000 -0.1575957853
C   C87       1.0  0.82150  0.73250  0.42330  1.0000 -0.1575957853
C   C88       1.0  0.73250  0.82150  0.02270  1.0000 -0.1575957853
C   C89       1.0  0.82150  0.42330  0.02270  1.0000 -0.1575957853
C   C90       1.0  0.73250  0.02270  0.42330  1.0000 -0.1575957853
C   C91       1.0  0.42330  0.82150  0.73250  1.0000 -0.1575957853
C   C92       1.0  0.02270  0.73250  0.82150  1.0000 -0.1575957853
C   C93       1.0  0.02270  0.82150  0.42330  1.0000 -0.1575957853
C   C94       1.0  0.42330  0.73250  0.02270  1.0000 -0.1575957853
C   C95       1.0  0.73250  0.42330  0.82150  1.0000 -0.1575957853
C   C96       1.0  0.82150  0.02270  0.73250  1.0000 -0.1575957853
C   C97       1.0  0.57670  0.97730  0.26750  1.0000 -0.1575957853
C   C98       1.0  0.97730  0.57670  0.17850  1.0000 -0.1575957853
C   C99       1.0  0.17850  0.26750  0.97730  1.0000 -0.1575957853
C   C100      1.0  0.26750  0.17850  0.57670  1.0000 -0.1575957853
C   C101      1.0  0.17850  0.57670  0.26750  1.0000 -0.1575957853
C   C102      1.0  0.26750  0.97730  0.17850  1.0000 -0.1575957853
C   C103      1.0  0.57670  0.17850  0.97730  1.0000 -0.1575957853
C   C104      1.0  0.97730  0.26750  0.57670  1.0000 -0.1575957853
C   C105      1.0  0.97730  0.17850  0.26750  1.0000 -0.1575957853
C   C106      1.0  0.57670  0.26750  0.17850  1.0000 -0.1575957853
C   C107      1.0  0.26750  0.57670  0.97730  1.0000 -0.1575957853
C   C108      1.0  0.17850  0.97730  0.57670  1.0000 -0.1575957853
C   C109      1.0  0.62500  0.98660  0.16880  1.0000 -0.0914084921
C   C110      1.0  0.98660  0.62500  0.21960  1.0000 -0.0914084921
C   C111      1.0  0.16880  0.21960  0.62500  1.0000 -0.0914084921
C   C112      1.0  0.21960  0.16880  0.98660  1.0000 -0.0914084921
C   C113      1.0  0.16880  0.62500  0.98660  1.0000 -0.0914084921
C   C114      1.0  0.21960  0.98660  0.62500  1.0000 -0.0914084921
C   C115      1.0  0.62500  0.16880  0.21960  1.0000 -0.0914084921
C   C116      1.0  0.98660  0.21960  0.16880  1.0000 -0.0914084921
C   C117      1.0  0.98660  0.16880  0.62500  1.0000 -0.0914084921
C   C118      1.0  0.62500  0.21960  0.98660  1.0000 -0.0914084921
C   C119      1.0  0.21960  0.62500  0.16880  1.0000 -0.0914084921
C   C120      1.0  0.16880  0.98660  0.21960  1.0000 -0.0914084921
C   C121      1.0  0.37500  0.01340  0.78040  1.0000 -0.0914084921
C   C122      1.0  0.01340  0.37500  0.83120  1.0000 -0.0914084921
C   C123      1.0  0.83120  0.78040  0.01340  1.0000 -0.0914084921
C   C124      1.0  0.78040  0.83120  0.37500  1.0000 -0.0914084921
C   C125      1.0  0.83120  0.37500  0.78040  1.0000 -0.0914084921
C   C126      1.0  0.78040  0.01340  0.83120  1.0000 -0.0914084921
C   C127      1.0  0.37500  0.83120  0.01340  1.0000 -0.0914084921
C   C128      1.0  0.01340  0.78040  0.37500  1.0000 -0.0914084921
C   C129      1.0  0.01340  0.83120  0.78040  1.0000 -0.0914084921
C   C130      1.0  0.37500  0.78040  0.83120  1.0000 -0.0914084921
C   C131      1.0  0.78040  0.37500  0.01340  1.0000 -0.0914084921
C   C132      1.0  0.83120  0.01340  0.37500  1.0000 -0.0914084921
C   C133      1.0  0.37500  0.01340  0.83120  1.0000 -0.0914084921
C   C134      1.0  0.01340  0.37500  0.78040  1.0000 -0.0914084921
C   C135      1.0  0.83120  0.78040  0.37500  1.0000 -0.0914084921
C   C136      1.0  0.78040  0.83120  0.01340  1.0000 -0.0914084921
C   C137      1.0  0.83120  0.37500  0.01340  1.0000 -0.0914084921
C   C138      1.0  0.78040  0.01340  0.37500  1.0000 -0.0914084921
C   C139      1.0  0.37500  0.83120  0.78040  1.0000 -0.0914084921
C   C140      1.0  0.01340  0.78040  0.83120  1.0000 -0.0914084921
C   C141      1.0  0.01340  0.83120  0.37500  1.0000 -0.0914084921
C   C142      1.0  0.37500  0.78040  0.01340  1.0000 -0.0914084921
C   C143      1.0  0.78040  0.37500  0.83120  1.0000 -0.0914084921
C   C144      1.0  0.83120  0.01340  0.78040  1.0000 -0.0914084921
C   C145      1.0  0.62500  0.98660  0.21960  1.0000 -0.0914084921
C   C146      1.0  0.98660  0.62500  0.16880  1.0000 -0.0914084921
C   C147      1.0  0.16880  0.21960  0.98660  1.0000 -0.0914084921
C   C148      1.0  0.21960  0.16880  0.62500  1.0000 -0.0914084921
C   C149      1.0  0.16880  0.62500  0.21960  1.0000 -0.0914084921
C   C150      1.0  0.21960  0.98660  0.16880  1.0000 -0.0914084921
C   C151      1.0  0.62500  0.16880  0.98660  1.0000 -0.0914084921
C   C152      1.0  0.98660  0.21960  0.62500  1.0000 -0.0914084921
C   C153      1.0  0.98660  0.16880  0.21960  1.0000 -0.0914084921
C   C154      1.0  0.62500  0.21960  0.16880  1.0000 -0.0914084921
C   C155      1.0  0.21960  0.62500  0.98660  1.0000 -0.0914084921
C   C156      1.0  0.16880  0.98660  0.62500  1.0000 -0.0914084921
S   S1        1.0  0.52864  0.97104  0.25016  1.0000 0.228447755
S   S2        1.0  0.97104  0.52864  0.25016  1.0000 0.2180075379
S   S3        1.0  0.25016  0.25016  0.52864  1.0000 0.228447755
S   S4        1.0  0.25016  0.25016  0.97104  1.0000 0.228447755
S   S5        1.0  0.25016  0.52864  0.97104  1.0000 0.228447755
S   S6        1.0  0.25016  0.97104  0.52864  1.0000 0.2180075379
S   S7        1.0  0.52864  0.25016  0.25016  1.0000 0.228447755
S   S8        1.0  0.97104  0.25016  0.25016  1.0000 0.228447755
S   S9        1.0  0.97104  0.25016  0.52864  1.0000 0.228447755
S   S10       1.0  0.52864  0.25016  0.97104  1.0000 0.2180075379
S   S11       1.0  0.25016  0.52864  0.25016  1.0000 0.2180075379
S   S12       1.0  0.25016  0.97104  0.25016  1.0000 0.228447755
S   S13       1.0  0.47136  0.02896  0.74984  1.0000 0.228447755
S   S14       1.0  0.02896  0.47136  0.74984  1.0000 0.228447755
S   S15       1.0  0.74984  0.74984  0.02896  1.0000 0.2180075379
S   S16       1.0  0.74984  0.74984  0.47136  1.0000 0.228447755
S   S17       1.0  0.74984  0.47136  0.74984  1.0000 0.2180075379
S   S18       1.0  0.74984  0.02896  0.74984  1.0000 0.2180075379
S   S19       1.0  0.47136  0.74984  0.02896  1.0000 0.2180075379
S   S20       1.0  0.02896  0.74984  0.47136  1.0000 0.228447755
S   S21       1.0  0.02896  0.74984  0.74984  1.0000 0.228447755
S   S22       1.0  0.47136  0.74984  0.74984  1.0000 0.228447755
S   S23       1.0  0.74984  0.47136  0.02896  1.0000 0.2180075379
S   S24       1.0  0.74984  0.02896  0.47136  1.0000 0.228447755
O   O1        1.0  0.53280  0.82408  0.11032  1.0000 -0.6372246961
O   O2        1.0  0.82408  0.53280  0.53280  1.0000 -0.6329422778
O   O3        1.0  0.11032  0.53280  0.53280  1.0000 -0.6372246961
O   O4        1.0  0.53280  0.11032  0.82408  1.0000 -0.6372246961
O   O5        1.0  0.11032  0.53280  0.82408  1.0000 -0.6372246961
O   O6        1.0  0.53280  0.82408  0.53280  1.0000 -0.6329422778
O   O7        1.0  0.53280  0.11032  0.53280  1.0000 -0.6329422778
O   O8        1.0  0.82408  0.53280  0.11032  1.0000 -0.6329422778
O   O9        1.0  0.82408  0.11032  0.53280  1.0000 -0.6329422778
O   O10       1.0  0.53280  0.53280  0.82408  1.0000 -0.6372246961
O   O11       1.0  0.53280  0.53280  0.11032  1.0000 -0.6372246961
O   O12       1.0  0.11032  0.82408  0.53280  1.0000 -0.6372246961
O   O13       1.0  0.46720  0.17592  0.46720  1.0000 -0.6329422778
O   O14       1.0  0.17592  0.46720  0.88968  1.0000 -0.6372246961
O   O15       1.0  0.88968  0.46720  0.17592  1.0000 -0.6329422778
O   O16       1.0  0.46720  0.88968  0.46720  1.0000 -0.6329422778
O   O17       1.0  0.88968  0.46720  0.46720  1.0000 -0.6329422778
O   O18       1.0  0.46720  0.17592  0.88968  1.0000 -0.6372246961
O   O19       1.0  0.46720  0.88968  0.17592  1.0000 -0.6329422778
O   O20       1.0  0.17592  0.46720  0.46720  1.0000 -0.6329422778
O   O21       1.0  0.17592  0.88968  0.46720  1.0000 -0.6329422778
O   O22       1.0  0.46720  0.46720  0.88968  1.0000 -0.6372246961
O   O23       1.0  0.46720  0.46720  0.17592  1.0000 -0.6372246961
O   O24       1.0  0.88968  0.17592  0.46720  1.0000 -0.6329422778
O   O25       1.0  0.54310  0.93670  0.06330  1.0000 -1.1086903216
O   O26       1.0  0.93670  0.54310  0.45690  1.0000 -1.1086903216
O   O27       1.0  0.06330  0.45690  0.54310  1.0000 -1.1167829277
O   O28       1.0  0.45690  0.06330  0.93670  1.0000 -1.1086903216
O   O29       1.0  0.06330  0.54310  0.93670  1.0000 -1.1086903216
O   O30       1.0  0.45690  0.93670  0.54310  1.0000 -1.1167829277
O   O31       1.0  0.54310  0.06330  0.45690  1.0000 -1.1167829277
O   O32       1.0  0.93670  0.45690  0.06330  1.0000 -1.1086903216
O   O33       1.0  0.93670  0.06330  0.54310  1.0000 -1.1086903216
O   O34       1.0  0.54310  0.45690  0.93670  1.0000 -1.1167829277
O   O35       1.0  0.45690  0.54310  0.06330  1.0000 -1.1086903216
O   O36       1.0  0.06330  0.93670  0.45690  1.0000 -1.1167829277
O   O37       1.0  0.45690  0.06330  0.54310  1.0000 -1.1086903216
O   O38       1.0  0.06330  0.45690  0.93670  1.0000 -1.1086903216
O   O39       1.0  0.93670  0.54310  0.06330  1.0000 -1.1086903216
O   O40       1.0  0.54310  0.93670  0.45690  1.0000 -1.1167829277
O   O41       1.0  0.93670  0.45690  0.54310  1.0000 -1.1167829277
O   O42       1.0  0.54310  0.06330  0.93670  1.0000 -1.1086903216
O   O43       1.0  0.45690  0.93670  0.06330  1.0000 -1.1086903216
O   O44       1.0  0.06330  0.54310  0.45690  1.0000 -1.1167829277
O   O45       1.0  0.06330  0.93670  0.54310  1.0000 -1.1167829277
O   O46       1.0  0.45690  0.54310  0.93670  1.0000 -1.1086903216
O   O47       1.0  0.54310  0.45690  0.06330  1.0000 -1.1086903216
O   O48       1.0  0.93670  0.06330  0.45690  1.0000 -1.1167829277
O   O49       1.0  0.58940  0.95400  0.95400  1.0000 -1.1086903216
O   O50       1.0  0.95400  0.58940  0.50260  1.0000 -1.1037120523
O   O51       1.0  0.95400  0.50260  0.58940  1.0000 -1.1037120523
O   O52       1.0  0.50260  0.95400  0.95400  1.0000 -1.1086903216
O   O53       1.0  0.95400  0.58940  0.95400  1.0000 -1.1086903216
O   O54       1.0  0.50260  0.95400  0.58940  1.0000 -1.1086903216
O   O55       1.0  0.58940  0.95400  0.50260  1.0000 -1.1037120523
O   O56       1.0  0.95400  0.50260  0.95400  1.0000 -1.1086903216
O   O57       1.0  0.95400  0.95400  0.58940  1.0000 -1.1037120523
O   O58       1.0  0.58940  0.50260  0.95400  1.0000 -1.1037120523
O   O59       1.0  0.50260  0.58940  0.95400  1.0000 -1.1086903216
O   O60       1.0  0.95400  0.95400  0.50260  1.0000 -1.1037120523
O   O61       1.0  0.41060  0.04600  0.49740  1.0000 -1.1086903216
O   O62       1.0  0.04600  0.41060  0.04600  1.0000 -1.1086903216
O   O63       1.0  0.04600  0.49740  0.04600  1.0000 -1.1086903216
O   O64       1.0  0.49740  0.04600  0.41060  1.0000 -1.1037120523
O   O65       1.0  0.04600  0.41060  0.49740  1.0000 -1.1037120523
O   O66       1.0  0.49740  0.04600  0.04600  1.0000 -1.1086903216
O   O67       1.0  0.41060  0.04600  0.04600  1.0000 -1.1086903216
O   O68       1.0  0.04600  0.49740  0.41060  1.0000 -1.1086903216
O   O69       1.0  0.04600  0.04600  0.49740  1.0000 -1.1086903216
O   O70       1.0  0.41060  0.49740  0.04600  1.0000 -1.1086903216
O   O71       1.0  0.49740  0.41060  0.04600  1.0000 -1.1086903216
O   O72       1.0  0.04600  0.04600  0.41060  1.0000 -1.1086903216
O   O73       1.0  0.59577  0.98551  0.08347  1.0000 -0.570783881
O   O74       1.0  0.98551  0.59577  0.33525  1.0000 -0.570783881
O   O75       1.0  0.08347  0.33525  0.59577  1.0000 -0.570783881
O   O76       1.0  0.33525  0.08347  0.98551  1.0000 -0.570783881
O   O77       1.0  0.08347  0.59577  0.98551  1.0000 -0.570783881
O   O78       1.0  0.33525  0.98551  0.59577  1.0000 -0.570783881
O   O79       1.0  0.59577  0.08347  0.33525  1.0000 -0.570783881
O   O80       1.0  0.98551  0.33525  0.08347  1.0000 -0.570783881
O   O81       1.0  0.98551  0.08347  0.59577  1.0000 -0.570783881
O   O82       1.0  0.59577  0.33525  0.98551  1.0000 -0.570783881
O   O83       1.0  0.33525  0.59577  0.08347  1.0000 -0.570783881
O   O84       1.0  0.08347  0.98551  0.33525  1.0000 -0.570783881
O   O85       1.0  0.40423  0.01449  0.66475  1.0000 -0.570783881
O   O86       1.0  0.01449  0.40423  0.91653  1.0000 -0.570783881
O   O87       1.0  0.91653  0.66475  0.01449  1.0000 -0.570783881
O   O88       1.0  0.66475  0.91653  0.40423  1.0000 -0.570783881
O   O89       1.0  0.91653  0.40423  0.66475  1.0000 -0.570783881
O   O90       1.0  0.66475  0.01449  0.91653  1.0000 -0.570783881
O   O91       1.0  0.40423  0.91653  0.01449  1.0000 -0.570783881
O   O92       1.0  0.01449  0.66475  0.40423  1.0000 -0.570783881
O   O93       1.0  0.01449  0.91653  0.66475  1.0000 -0.570783881
O   O94       1.0  0.40423  0.66475  0.91653  1.0000 -0.570783881
O   O95       1.0  0.66475  0.40423  0.01449  1.0000 -0.570783881
O   O96       1.0  0.91653  0.01449  0.40423  1.0000 -0.570783881
O   O97       1.0  0.40423  0.01449  0.91653  1.0000 -0.570783881
O   O98       1.0  0.01449  0.40423  0.66475  1.0000 -0.570783881
O   O99       1.0  0.91653  0.66475  0.40423  1.0000 -0.570783881
O   O100      1.0  0.66475  0.91653  0.01449  1.0000 -0.570783881
O   O101      1.0  0.91653  0.40423  0.01449  1.0000 -0.570783881
O   O102      1.0  0.66475  0.01449  0.40423  1.0000 -0.570783881
O   O103      1.0  0.40423  0.91653  0.66475  1.0000 -0.570783881
O   O104      1.0  0.01449  0.66475  0.91653  1.0000 -0.570783881
O   O105      1.0  0.01449  0.91653  0.40423  1.0000 -0.570783881
O   O106      1.0  0.40423  0.66475  0.01449  1.0000 -0.570783881
O   O107      1.0  0.66475  0.40423  0.91653  1.0000 -0.570783881
O   O108      1.0  0.91653  0.01449  0.66475  1.0000 -0.570783881
O   O109      1.0  0.59577  0.98551  0.33525  1.0000 -0.570783881
O   O110      1.0  0.98551  0.59577  0.08347  1.0000 -0.570783881
O   O111      1.0  0.08347  0.33525  0.98551  1.0000 -0.570783881
O   O112      1.0  0.33525  0.08347  0.59577  1.0000 -0.570783881
O   O113      1.0  0.08347  0.59577  0.33525  1.0000 -0.570783881
O   O114      1.0  0.33525  0.98551  0.08347  1.0000 -0.570783881
O   O115      1.0  0.59577  0.08347  0.98551  1.0000 -0.570783881
O   O116      1.0  0.98551  0.33525  0.59577  1.0000 -0.570783881
O   O117      1.0  0.98551  0.08347  0.33525  1.0000 -0.570783881
O   O118      1.0  0.59577  0.33525  0.08347  1.0000 -0.570783881
O   O119      1.0  0.33525  0.59577  0.98551  1.0000 -0.570783881
O   O120      1.0  0.08347  0.98551  0.59577  1.0000 -0.570783881
O   O121      1.0  0.50951  0.97313  0.15375  1.0000 -0.5787461787
O   O122      1.0  0.97313  0.50951  0.36361  1.0000 -0.5787461787
O   O123      1.0  0.15375  0.36361  0.50951  1.0000 -0.5787461787
O   O124      1.0  0.36361  0.15375  0.97313  1.0000 -0.5787461787
O   O125      1.0  0.15375  0.50951  0.97313  1.0000 -0.5787461787
O   O126      1.0  0.36361  0.97313  0.50951  1.0000 -0.5787461787
O   O127      1.0  0.50951  0.15375  0.36361  1.0000 -0.5787461787
O   O128      1.0  0.97313  0.36361  0.15375  1.0000 -0.5787461787
O   O129      1.0  0.97313  0.15375  0.50951  1.0000 -0.5787461787
O   O130      1.0  0.50951  0.36361  0.97313  1.0000 -0.5787461787
O   O131      1.0  0.36361  0.50951  0.15375  1.0000 -0.5787461787
O   O132      1.0  0.15375  0.97313  0.36361  1.0000 -0.5787461787
O   O133      1.0  0.49049  0.02687  0.63639  1.0000 -0.5787461787
O   O134      1.0  0.02687  0.49049  0.84625  1.0000 -0.5787461787
O   O135      1.0  0.84625  0.63639  0.02687  1.0000 -0.5787461787
O   O136      1.0  0.63639  0.84625  0.49049  1.0000 -0.5787461787
O   O137      1.0  0.84625  0.49049  0.63639  1.0000 -0.5787461787
O   O138      1.0  0.63639  0.02687  0.84625  1.0000 -0.5787461787
O   O139      1.0  0.49049  0.84625  0.02687  1.0000 -0.5787461787
O   O140      1.0  0.02687  0.63639  0.49049  1.0000 -0.5787461787
O   O141      1.0  0.02687  0.84625  0.63639  1.0000 -0.5787461787
O   O142      1.0  0.49049  0.63639  0.84625  1.0000 -0.5787461787
O   O143      1.0  0.63639  0.49049  0.02687  1.0000 -0.5787461787
O   O144      1.0  0.84625  0.02687  0.49049  1.0000 -0.5787461787
O   O145      1.0  0.49049  0.02687  0.84625  1.0000 -0.5787461787
O   O146      1.0  0.02687  0.49049  0.63639  1.0000 -0.5787461787
O   O147      1.0  0.84625  0.63639  0.49049  1.0000 -0.5787461787
O   O148      1.0  0.63639  0.84625  0.02687  1.0000 -0.5787461787
O   O149      1.0  0.84625  0.49049  0.02687  1.0000 -0.5787461787
O   O150      1.0  0.63639  0.02687  0.49049  1.0000 -0.5787461787
O   O151      1.0  0.49049  0.84625  0.63639  1.0000 -0.5787461787
O   O152      1.0  0.02687  0.63639  0.84625  1.0000 -0.5787461787
O   O153      1.0  0.02687  0.84625  0.49049  1.0000 -0.5787461787
O   O154      1.0  0.49049  0.63639  0.02687  1.0000 -0.5787461787
O   O155      1.0  0.63639  0.49049  0.84625  1.0000 -0.5787461787
O   O156      1.0  0.84625  0.02687  0.63639  1.0000 -0.5787461787
O   O157      1.0  0.50951  0.97313  0.36361  1.0000 -0.5787461787
O   O158      1.0  0.97313  0.50951  0.15375  1.0000 -0.5787461787
O   O159      1.0  0.15375  0.36361  0.97313  1.0000 -0.5787461787
O   O160      1.0  0.36361  0.15375  0.50951  1.0000 -0.5787461787
O   O161      1.0  0.15375  0.50951  0.36361  1.0000 -0.5787461787
O   O162      1.0  0.36361  0.97313  0.15375  1.0000 -0.5787461787
O   O163      1.0  0.50951  0.15375  0.97313  1.0000 -0.5787461787
O   O164      1.0  0.97313  0.36361  0.50951  1.0000 -0.5787461787
O   O165      1.0  0.97313  0.15375  0.36361  1.0000 -0.5787461787
O   O166      1.0  0.50951  0.36361  0.15375  1.0000 -0.5787461787
O   O167      1.0  0.36361  0.50951  0.97313  1.0000 -0.5787461787
O   O168      1.0  0.15375  0.97313  0.50951  1.0000 -0.5787461787
