# DDEC6 charges by PACMAN v1.1 (https://github.com/mtap-research/PACMAN-charge/)
data_2023[ZnTi][nan]3[ASR]10
_chemical_formula_sum              "Ti8 Zn6 H246 C384 N30 O72"
_cell_length_a       20.7016
_cell_length_b       20.7016
_cell_length_c       30.7435
_cell_angle_alpha    90
_cell_angle_beta     90
_cell_angle_gamma    120

_symmetry_space_group_name_H-M    "P 1"
_symmetry_Int_Tables_number       1

loop_
  _symmetry_equiv_pos_as_xyz
  'x, y, z'

loop_
  _atom_site_type_symbol
  _atom_site_label
  _atom_site_symmetry_multiplicity
  _atom_site_fract_x
  _atom_site_fract_y
  _atom_site_fract_z
  _atom_site_occupancy
  _atom_site_charge
Ti  Ti1       1.0  0.43254  0.48479  0.63489  1.0000 1.9096792359
Ti  Ti2       1.0  0.51521  0.94775  0.63489  1.0000 1.9096792359
Ti  Ti3       1.0  0.05225  0.56746  0.63489  1.0000 1.9096792359
Ti  Ti4       1.0  0.56746  0.51521  0.13489  1.0000 1.9096792359
Ti  Ti5       1.0  0.48479  0.05225  0.13489  1.0000 1.9096792359
Ti  Ti6       1.0  0.94775  0.43254  0.13489  1.0000 1.9096792359
Ti  Ti7       1.0  0.33333  0.66667  0.39420  1.0000 1.8971184511
Ti  Ti8       1.0  0.66667  0.33333  0.89420  1.0000 1.8971184511
Zn  Zn1       1.0  0.73604  0.16278  0.64653  1.0000 0.7340986748
Zn  Zn2       1.0  0.83722  0.57326  0.64653  1.0000 0.7340986748
Zn  Zn3       1.0  0.42674  0.26396  0.64653  1.0000 0.7340986748
Zn  Zn4       1.0  0.26396  0.83722  0.14653  1.0000 0.7340986748
Zn  Zn5       1.0  0.16278  0.42674  0.14653  1.0000 0.7340986748
Zn  Zn6       1.0  0.57326  0.73604  0.14653  1.0000 0.7340986748
H   H1        1.0  0.60627  0.12421  0.65571  1.0000 0.3015227709
H   H2        1.0  0.87579  0.48206  0.65571  1.0000 0.3015227709
H   H3        1.0  0.51794  0.39373  0.65571  1.0000 0.3015227709
H   H4        1.0  0.39373  0.87579  0.15571  1.0000 0.3015227709
H   H5        1.0  0.12421  0.51794  0.15571  1.0000 0.3015227709
H   H6        1.0  0.48206  0.60627  0.15571  1.0000 0.3015227709
H   H7        1.0  0.64190  0.14753  0.69806  1.0000 0.3171235491
H   H8        1.0  0.85247  0.49437  0.69806  1.0000 0.3171235491
H   H9        1.0  0.50563  0.35810  0.69806  1.0000 0.3171235491
H   H10       1.0  0.35810  0.85247  0.19806  1.0000 0.3171235491
H   H11       1.0  0.14753  0.50563  0.19806  1.0000 0.3171235491
H   H12       1.0  0.49437  0.64190  0.19806  1.0000 0.3171235491
H   H13       1.0  0.64939  0.20308  0.66642  1.0000 0.3015227709
H   H14       1.0  0.79692  0.44631  0.66642  1.0000 0.3015227709
H   H15       1.0  0.55369  0.35061  0.66642  1.0000 0.3015227709
H   H16       1.0  0.35061  0.79692  0.16642  1.0000 0.3015227709
H   H17       1.0  0.20308  0.55369  0.16642  1.0000 0.3015227709
H   H18       1.0  0.44631  0.64939  0.16642  1.0000 0.3015227709
H   H19       1.0  0.40803  0.59797  0.48941  1.0000 0.1368735303
H   H20       1.0  0.40203  0.81006  0.48941  1.0000 0.1368735303
H   H21       1.0  0.18994  0.59197  0.48941  1.0000 0.1368735303
H   H22       1.0  0.59197  0.40203  0.98941  1.0000 0.1368735303
H   H23       1.0  0.59797  0.18994  0.98941  1.0000 0.1368735303
H   H24       1.0  0.81006  0.40803  0.98941  1.0000 0.1368735303
H   H25       1.0  0.36864  0.54157  0.52760  1.0000 0.1304162623
H   H26       1.0  0.45843  0.82707  0.52760  1.0000 0.1304162623
H   H27       1.0  0.17293  0.63136  0.52760  1.0000 0.1304162623
H   H28       1.0  0.63136  0.45843  0.02760  1.0000 0.1304162623
H   H29       1.0  0.54157  0.17293  0.02760  1.0000 0.1304162623
H   H30       1.0  0.82707  0.36864  0.02760  1.0000 0.1304162623
H   H31       1.0  0.60482  0.48102  0.50839  1.0000 0.1131051465
H   H32       1.0  0.51898  0.12380  0.50839  1.0000 0.1131051465
H   H33       1.0  0.87620  0.39518  0.50839  1.0000 0.1131051465
H   H34       1.0  0.39518  0.51898  0.00839  1.0000 0.1131051465
H   H35       1.0  0.48102  0.87620  0.00839  1.0000 0.1131051465
H   H36       1.0  0.12380  0.60482  0.00839  1.0000 0.1131051465
H   H37       1.0  0.64452  0.83279  0.23290  1.0000 0.1304162623
H   H38       1.0  0.16721  0.81173  0.23290  1.0000 0.1304162623
H   H39       1.0  0.18827  0.35548  0.23290  1.0000 0.1304162623
H   H40       1.0  0.35548  0.16721  0.73290  1.0000 0.1304162623
H   H41       1.0  0.83279  0.18827  0.73290  1.0000 0.1304162623
H   H42       1.0  0.81173  0.64452  0.73290  1.0000 0.1304162623
H   H43       1.0  0.53255  0.93687  0.20744  1.0000 0.1498081802
H   H44       1.0  0.06313  0.59568  0.20744  1.0000 0.1498081802
H   H45       1.0  0.40432  0.46745  0.20744  1.0000 0.1498081802
H   H46       1.0  0.46745  0.06313  0.70744  1.0000 0.1498081802
H   H47       1.0  0.93687  0.40432  0.70744  1.0000 0.1498081802
H   H48       1.0  0.59568  0.53255  0.70744  1.0000 0.1498081802
H   H49       1.0  0.45337  0.58147  0.42027  1.0000 0.1304162623
H   H50       1.0  0.41853  0.87190  0.42027  1.0000 0.1304162623
H   H51       1.0  0.12810  0.54663  0.42027  1.0000 0.1304162623
H   H52       1.0  0.54663  0.41853  0.92027  1.0000 0.1304162623
H   H53       1.0  0.58147  0.12810  0.92027  1.0000 0.1304162623
H   H54       1.0  0.87190  0.45337  0.92027  1.0000 0.1304162623
H   H55       1.0  0.47651  0.57130  0.79902  1.0000 0.1184634592
H   H56       1.0  0.42870  0.90521  0.79902  1.0000 0.1184634592
H   H57       1.0  0.09479  0.52349  0.79902  1.0000 0.1184634592
H   H58       1.0  0.52349  0.42870  0.29902  1.0000 0.1184634592
H   H59       1.0  0.57130  0.09479  0.29902  1.0000 0.1184634592
H   H60       1.0  0.90521  0.47651  0.29902  1.0000 0.1184634592
H   H61       1.0  0.51846  0.70149  0.63312  1.0000 0.1304162623
H   H62       1.0  0.29851  0.81697  0.63312  1.0000 0.1304162623
H   H63       1.0  0.18303  0.48154  0.63312  1.0000 0.1304162623
H   H64       1.0  0.48154  0.29851  0.13312  1.0000 0.1304162623
H   H65       1.0  0.70149  0.18303  0.13312  1.0000 0.1304162623
H   H66       1.0  0.81697  0.51846  0.13312  1.0000 0.1304162623
H   H67       1.0  0.48708  0.74836  0.65499  1.0000 0.1304162623
H   H68       1.0  0.25164  0.73872  0.65499  1.0000 0.1304162623
H   H69       1.0  0.26128  0.51292  0.65499  1.0000 0.1304162623
H   H70       1.0  0.51292  0.25164  0.15499  1.0000 0.1304162623
H   H71       1.0  0.74836  0.26128  0.15499  1.0000 0.1304162623
H   H72       1.0  0.73872  0.48708  0.15499  1.0000 0.1304162623
H   H73       1.0  0.32310  0.41099  0.53623  1.0000 0.1304162623
H   H74       1.0  0.58901  0.91211  0.53623  1.0000 0.1304162623
H   H75       1.0  0.08789  0.67690  0.53623  1.0000 0.1304162623
H   H76       1.0  0.67690  0.58901  0.03623  1.0000 0.1304162623
H   H77       1.0  0.41099  0.08789  0.03623  1.0000 0.1304162623
H   H78       1.0  0.91211  0.32310  0.03623  1.0000 0.1304162623
H   H79       1.0  0.68445  0.09993  0.55320  1.0000 0.1304162623
H   H80       1.0  0.90007  0.58452  0.55320  1.0000 0.1304162623
H   H81       1.0  0.41548  0.31555  0.55320  1.0000 0.1304162623
H   H82       1.0  0.31555  0.90007  0.05320  1.0000 0.1304162623
H   H83       1.0  0.09993  0.41548  0.05320  1.0000 0.1304162623
H   H84       1.0  0.58452  0.68445  0.05320  1.0000 0.1304162623
H   H85       1.0  0.50797  0.84650  0.14951  1.0000 0.1368735303
H   H86       1.0  0.15350  0.66147  0.14951  1.0000 0.1368735303
H   H87       1.0  0.33853  0.49203  0.14951  1.0000 0.1368735303
H   H88       1.0  0.49203  0.15350  0.64951  1.0000 0.1368735303
H   H89       1.0  0.84650  0.33853  0.64951  1.0000 0.1368735303
H   H90       1.0  0.66147  0.50797  0.64951  1.0000 0.1368735303
H   H91       1.0  0.18826  0.37109  0.38464  1.0000 0.1184634592
H   H92       1.0  0.62891  0.81717  0.38464  1.0000 0.1184634592
H   H93       1.0  0.18283  0.81174  0.38464  1.0000 0.1184634592
H   H94       1.0  0.81174  0.62891  0.88464  1.0000 0.1184634592
H   H95       1.0  0.37109  0.18283  0.88464  1.0000 0.1184634592
H   H96       1.0  0.81717  0.18826  0.88464  1.0000 0.1184634592
H   H97       1.0  0.25534  0.28382  0.54418  1.0000 0.1131051465
H   H98       1.0  0.71618  0.97152  0.54418  1.0000 0.1131051465
H   H99       1.0  0.02848  0.74466  0.54418  1.0000 0.1131051465
H   H100      1.0  0.74466  0.71618  0.04418  1.0000 0.1131051465
H   H101      1.0  0.28382  0.02848  0.04418  1.0000 0.1131051465
H   H102      1.0  0.97152  0.25534  0.04418  1.0000 0.1131051465
H   H103      1.0  0.54016  0.82576  0.72280  1.0000 0.1184634592
H   H104      1.0  0.17424  0.71440  0.72280  1.0000 0.1184634592
H   H105      1.0  0.28560  0.45984  0.72280  1.0000 0.1184634592
H   H106      1.0  0.45984  0.17424  0.22280  1.0000 0.1184634592
H   H107      1.0  0.82576  0.28560  0.22280  1.0000 0.1184634592
H   H108      1.0  0.71440  0.54016  0.22280  1.0000 0.1184634592
H   H109      1.0  0.52356  0.58648  0.36047  1.0000 0.1304162623
H   H110      1.0  0.41352  0.93708  0.36047  1.0000 0.1304162623
H   H111      1.0  0.06292  0.47644  0.36047  1.0000 0.1304162623
H   H112      1.0  0.47644  0.41352  0.86047  1.0000 0.1304162623
H   H113      1.0  0.58648  0.06292  0.86047  1.0000 0.1304162623
H   H114      1.0  0.93708  0.52356  0.86047  1.0000 0.1304162623
H   H115      1.0  0.62211  0.68555  0.65551  1.0000 0.1184634592
H   H116      1.0  0.31445  0.93656  0.65551  1.0000 0.1184634592
H   H117      1.0  0.06344  0.37789  0.65551  1.0000 0.1184634592
H   H118      1.0  0.37789  0.31445  0.15551  1.0000 0.1184634592
H   H119      1.0  0.68555  0.06344  0.15551  1.0000 0.1184634592
H   H120      1.0  0.93656  0.62211  0.15551  1.0000 0.1184634592
H   H121      1.0  0.84975  0.17487  0.44732  1.0000 0.1304162623
H   H122      1.0  0.82513  0.67488  0.44732  1.0000 0.1304162623
H   H123      1.0  0.32512  0.15025  0.44732  1.0000 0.1304162623
H   H124      1.0  0.15025  0.82513  0.94732  1.0000 0.1304162623
H   H125      1.0  0.17487  0.32512  0.94732  1.0000 0.1304162623
H   H126      1.0  0.67488  0.84975  0.94732  1.0000 0.1304162623
H   H127      1.0  0.55090  0.87369  0.79127  1.0000 0.1131051465
H   H128      1.0  0.12631  0.67721  0.79127  1.0000 0.1131051465
H   H129      1.0  0.32279  0.44910  0.79127  1.0000 0.1131051465
H   H130      1.0  0.44910  0.12631  0.29127  1.0000 0.1131051465
H   H131      1.0  0.87369  0.32279  0.29127  1.0000 0.1131051465
H   H132      1.0  0.67721  0.55090  0.29127  1.0000 0.1131051465
H   H133      1.0  0.73095  0.68418  0.65668  1.0000 0.1006150563
H   H134      1.0  0.31582  0.04677  0.65668  1.0000 0.1006150563
H   H135      1.0  0.95323  0.26905  0.65668  1.0000 0.1006150563
H   H136      1.0  0.26905  0.31582  0.15668  1.0000 0.1006150563
H   H137      1.0  0.68418  0.95323  0.15668  1.0000 0.1006150563
H   H138      1.0  0.04677  0.73095  0.15668  1.0000 0.1006150563
H   H139      1.0  0.87514  0.27759  0.58418  1.0000 0.1304162623
H   H140      1.0  0.72241  0.59755  0.58418  1.0000 0.1304162623
H   H141      1.0  0.40245  0.12486  0.58418  1.0000 0.1304162623
H   H142      1.0  0.12486  0.72241  0.08418  1.0000 0.1304162623
H   H143      1.0  0.27759  0.40245  0.08418  1.0000 0.1304162623
H   H144      1.0  0.59755  0.87514  0.08418  1.0000 0.1304162623
H   H145      1.0  0.87820  0.25874  0.50617  1.0000 0.1368735303
H   H146      1.0  0.74126  0.61946  0.50617  1.0000 0.1368735303
H   H147      1.0  0.38054  0.12180  0.50617  1.0000 0.1368735303
H   H148      1.0  0.12180  0.74126  0.00617  1.0000 0.1368735303
H   H149      1.0  0.25874  0.38054  0.00617  1.0000 0.1368735303
H   H150      1.0  0.61946  0.87820  0.00617  1.0000 0.1368735303
H   H151      1.0  0.50404  0.67924  0.84593  1.0000 0.1131051465
H   H152      1.0  0.32076  0.82480  0.84593  1.0000 0.1131051465
H   H153      1.0  0.17520  0.49596  0.84593  1.0000 0.1131051465
H   H154      1.0  0.49596  0.32076  0.34593  1.0000 0.1131051465
H   H155      1.0  0.67924  0.17520  0.34593  1.0000 0.1131051465
H   H156      1.0  0.82480  0.50404  0.34593  1.0000 0.1131051465
H   H157      1.0  0.15939  0.25994  0.42884  1.0000 0.1184634592
H   H158      1.0  0.74006  0.89945  0.42884  1.0000 0.1184634592
H   H159      1.0  0.10055  0.84061  0.42884  1.0000 0.1184634592
H   H160      1.0  0.84061  0.74006  0.92884  1.0000 0.1184634592
H   H161      1.0  0.25994  0.10055  0.92884  1.0000 0.1184634592
H   H162      1.0  0.89945  0.15939  0.92884  1.0000 0.1184634592
H   H163      1.0  0.63123  0.50670  0.42953  1.0000 0.1131051465
H   H164      1.0  0.49330  0.12453  0.42953  1.0000 0.1131051465
H   H165      1.0  0.87547  0.36877  0.42953  1.0000 0.1131051465
H   H166      1.0  0.36877  0.49330  0.92953  1.0000 0.1131051465
H   H167      1.0  0.50670  0.87547  0.92953  1.0000 0.1131051465
H   H168      1.0  0.12453  0.63123  0.92953  1.0000 0.1131051465
H   H169      1.0  0.17288  0.20982  0.49169  1.0000 0.1131051465
H   H170      1.0  0.79018  0.96306  0.49169  1.0000 0.1131051465
H   H171      1.0  0.03694  0.82712  0.49169  1.0000 0.1131051465
H   H172      1.0  0.82712  0.79018  0.99169  1.0000 0.1131051465
H   H173      1.0  0.20982  0.03694  0.99169  1.0000 0.1131051465
H   H174      1.0  0.96306  0.17288  0.99169  1.0000 0.1131051465
H   H175      1.0  0.53062  0.80078  0.85240  1.0000 0.1131051465
H   H176      1.0  0.19922  0.72984  0.85240  1.0000 0.1131051465
H   H177      1.0  0.27016  0.46938  0.85240  1.0000 0.1131051465
H   H178      1.0  0.46938  0.19922  0.35240  1.0000 0.1131051465
H   H179      1.0  0.80078  0.27016  0.35240  1.0000 0.1131051465
H   H180      1.0  0.72984  0.53062  0.35240  1.0000 0.1131051465
H   H181      1.0  0.81038  0.11720  0.38040  1.0000 0.1184634592
H   H182      1.0  0.88280  0.69318  0.38040  1.0000 0.1184634592
H   H183      1.0  0.30682  0.18962  0.38040  1.0000 0.1184634592
H   H184      1.0  0.18962  0.88280  0.88040  1.0000 0.1184634592
H   H185      1.0  0.11720  0.30682  0.88040  1.0000 0.1184634592
H   H186      1.0  0.69318  0.81038  0.88040  1.0000 0.1184634592
H   H187      1.0  0.78619  0.97972  0.65351  1.0000 0.1184634592
H   H188      1.0  0.02028  0.80647  0.65351  1.0000 0.1184634592
H   H189      1.0  0.19353  0.21381  0.65351  1.0000 0.1184634592
H   H190      1.0  0.21381  0.02028  0.15351  1.0000 0.1184634592
H   H191      1.0  0.97972  0.19353  0.15351  1.0000 0.1184634592
H   H192      1.0  0.80647  0.78619  0.15351  1.0000 0.1184634592
H   H193      1.0  0.60750  0.54408  0.36489  1.0000 0.1184634592
H   H194      1.0  0.45592  0.06342  0.36489  1.0000 0.1184634592
H   H195      1.0  0.93658  0.39250  0.36489  1.0000 0.1184634592
H   H196      1.0  0.39250  0.45592  0.86489  1.0000 0.1184634592
H   H197      1.0  0.54408  0.93658  0.86489  1.0000 0.1184634592
H   H198      1.0  0.06342  0.60750  0.86489  1.0000 0.1184634592
H   H199      1.0  0.63887  0.07689  0.48531  1.0000 0.1304162623
H   H200      1.0  0.92311  0.56198  0.48531  1.0000 0.1304162623
H   H201      1.0  0.43802  0.36113  0.48531  1.0000 0.1304162623
H   H202      1.0  0.36113  0.92311  0.98531  1.0000 0.1304162623
H   H203      1.0  0.07689  0.43802  0.98531  1.0000 0.1304162623
H   H204      1.0  0.56198  0.63887  0.98531  1.0000 0.1304162623
H   H205      1.0  0.84675  0.79490  0.66202  1.0000 0.1184634592
H   H206      1.0  0.20510  0.05185  0.66202  1.0000 0.1184634592
H   H207      1.0  0.94815  0.15325  0.66202  1.0000 0.1184634592
H   H208      1.0  0.15325  0.20510  0.16202  1.0000 0.1184634592
H   H209      1.0  0.79490  0.94815  0.16202  1.0000 0.1184634592
H   H210      1.0  0.05185  0.84675  0.16202  1.0000 0.1184634592
H   H211      1.0  0.85314  0.90935  0.65897  1.0000 0.1184634592
H   H212      1.0  0.09065  0.94379  0.65897  1.0000 0.1184634592
H   H213      1.0  0.05621  0.14686  0.65897  1.0000 0.1184634592
H   H214      1.0  0.14686  0.09065  0.15897  1.0000 0.1184634592
H   H215      1.0  0.90935  0.05621  0.15897  1.0000 0.1184634592
H   H216      1.0  0.94379  0.85314  0.15897  1.0000 0.1184634592
H   H217      1.0  0.60141  0.01306  0.42133  1.0000 0.1131051465
H   H218      1.0  0.98694  0.58835  0.42133  1.0000 0.1131051465
H   H219      1.0  0.41165  0.39859  0.42133  1.0000 0.1131051465
H   H220      1.0  0.39859  0.98694  0.92133  1.0000 0.1131051465
H   H221      1.0  0.01306  0.41165  0.92133  1.0000 0.1131051465
H   H222      1.0  0.58835  0.60141  0.92133  1.0000 0.1131051465
H   H223      1.0  0.77787  0.04514  0.32702  1.0000 0.1131051465
H   H224      1.0  0.95486  0.73273  0.32702  1.0000 0.1131051465
H   H225      1.0  0.26727  0.22213  0.32702  1.0000 0.1131051465
H   H226      1.0  0.22213  0.95486  0.82702  1.0000 0.1131051465
H   H227      1.0  0.04514  0.26727  0.82702  1.0000 0.1131051465
H   H228      1.0  0.73273  0.77787  0.82702  1.0000 0.1131051465
H   H229      1.0  0.73502  0.98007  0.26216  1.0000 0.1304162623
H   H230      1.0  0.01993  0.75495  0.26216  1.0000 0.1304162623
H   H231      1.0  0.24505  0.26498  0.26216  1.0000 0.1304162623
H   H232      1.0  0.26498  0.01993  0.76216  1.0000 0.1304162623
H   H233      1.0  0.98007  0.24505  0.76216  1.0000 0.1304162623
H   H234      1.0  0.75495  0.73502  0.76216  1.0000 0.1304162623
H   H235      1.0  0.52388  0.91123  0.29838  1.0000 0.1498081802
H   H236      1.0  0.08877  0.61265  0.29838  1.0000 0.1498081802
H   H237      1.0  0.38735  0.47612  0.29838  1.0000 0.1498081802
H   H238      1.0  0.47612  0.08877  0.79838  1.0000 0.1498081802
H   H239      1.0  0.91123  0.38735  0.79838  1.0000 0.1498081802
H   H240      1.0  0.61265  0.52388  0.79838  1.0000 0.1498081802
H   H241      1.0  0.56672  0.97630  0.36324  1.0000 0.1184634592
H   H242      1.0  0.02370  0.59042  0.36324  1.0000 0.1184634592
H   H243      1.0  0.40958  0.43328  0.36324  1.0000 0.1184634592
H   H244      1.0  0.43328  0.02370  0.86324  1.0000 0.1184634592
H   H245      1.0  0.97630  0.40958  0.86324  1.0000 0.1184634592
H   H246      1.0  0.59042  0.56672  0.86324  1.0000 0.1184634592
C   C1        1.0  0.55090  0.47310  0.58529  1.0000 0.5914014895
C   C2        1.0  0.52690  0.07780  0.58529  1.0000 0.5914014895
C   C3        1.0  0.92220  0.44910  0.58529  1.0000 0.5914014895
C   C4        1.0  0.44910  0.52690  0.08529  1.0000 0.5914014895
C   C5        1.0  0.47310  0.92220  0.08529  1.0000 0.5914014895
C   C6        1.0  0.07780  0.55090  0.08529  1.0000 0.5914014895
C   C7        1.0  0.45310  0.48770  0.73291  1.0000 0.5914014895
C   C8        1.0  0.51230  0.96540  0.73291  1.0000 0.5914014895
C   C9        1.0  0.03460  0.54690  0.73291  1.0000 0.5914014895
C   C10       1.0  0.54690  0.51230  0.23291  1.0000 0.5914014895
C   C11       1.0  0.48770  0.03460  0.23291  1.0000 0.5914014895
C   C12       1.0  0.96540  0.45310  0.23291  1.0000 0.5914014895
C   C13       1.0  0.68200  0.01250  0.64294  1.0000 0.6115378757
C   C14       1.0  0.98750  0.66950  0.64294  1.0000 0.6115378757
C   C15       1.0  0.33050  0.31800  0.64294  1.0000 0.6115378757
C   C16       1.0  0.31800  0.98750  0.14294  1.0000 0.6115378757
C   C17       1.0  0.01250  0.33050  0.14294  1.0000 0.6115378757
C   C18       1.0  0.66950  0.68200  0.14294  1.0000 0.6115378757
C   C19       1.0  0.51660  0.72050  0.74095  1.0000 0.0421322845
C   C20       1.0  0.27950  0.79610  0.74095  1.0000 0.0421322845
C   C21       1.0  0.20390  0.48340  0.74095  1.0000 0.0421322845
C   C22       1.0  0.48340  0.27950  0.24095  1.0000 0.0421322845
C   C23       1.0  0.72050  0.20390  0.24095  1.0000 0.0421322845
C   C24       1.0  0.79610  0.51660  0.24095  1.0000 0.0421322845
C   C25       1.0  0.52990  0.49360  0.54319  1.0000 -0.1607547715
C   C26       1.0  0.50640  0.03630  0.54319  1.0000 -0.1607547715
C   C27       1.0  0.96370  0.47010  0.54319  1.0000 -0.1607547715
C   C28       1.0  0.47010  0.50640  0.04319  1.0000 -0.1607547715
C   C29       1.0  0.49360  0.96370  0.04319  1.0000 -0.1607547715
C   C30       1.0  0.03630  0.52990  0.04319  1.0000 -0.1607547715
C   C31       1.0  0.31090  0.52460  0.43159  1.0000 0.2371979093
C   C32       1.0  0.47540  0.78630  0.43159  1.0000 0.2371979093
C   C33       1.0  0.21370  0.68910  0.43159  1.0000 0.2371979093
C   C34       1.0  0.68910  0.47540  0.93159  1.0000 0.2371979093
C   C35       1.0  0.52460  0.21370  0.93159  1.0000 0.2371979093
C   C36       1.0  0.78630  0.31090  0.93159  1.0000 0.2371979093
C   C37       1.0  0.32710  0.49470  0.46764  1.0000 -0.0306709194
C   C38       1.0  0.50530  0.83240  0.46764  1.0000 -0.0306709194
C   C39       1.0  0.16760  0.67290  0.46764  1.0000 -0.0306709194
C   C40       1.0  0.67290  0.50530  0.96764  1.0000 -0.0306709194
C   C41       1.0  0.49470  0.16760  0.96764  1.0000 -0.0306709194
C   C42       1.0  0.83240  0.32710  0.96764  1.0000 -0.0306709194
C   C43       1.0  0.51010  0.68900  0.69901  1.0000 -0.020377531
C   C44       1.0  0.31100  0.82110  0.69901  1.0000 -0.020377531
C   C45       1.0  0.17890  0.48990  0.69901  1.0000 -0.020377531
C   C46       1.0  0.48990  0.31100  0.19901  1.0000 -0.020377531
C   C47       1.0  0.68900  0.17890  0.19901  1.0000 -0.020377531
C   C48       1.0  0.82110  0.51010  0.19901  1.0000 -0.020377531
C   C49       1.0  0.60470  0.87160  0.64892  1.0000 0.2690630475
C   C50       1.0  0.12840  0.73310  0.64892  1.0000 0.2690630475
C   C51       1.0  0.26690  0.39530  0.64892  1.0000 0.2690630475
C   C52       1.0  0.39530  0.12840  0.14892  1.0000 0.2690630475
C   C53       1.0  0.87160  0.26690  0.14892  1.0000 0.2690630475
C   C54       1.0  0.73310  0.60470  0.14892  1.0000 0.2690630475
C   C55       1.0  0.55410  0.51730  0.46628  1.0000 0.0529767198
C   C56       1.0  0.48270  0.03680  0.46628  1.0000 0.0529767198
C   C57       1.0  0.96320  0.44590  0.46628  1.0000 0.0529767198
C   C58       1.0  0.44590  0.48270  0.96628  1.0000 0.0529767198
C   C59       1.0  0.51730  0.96320  0.96628  1.0000 0.0529767198
C   C60       1.0  0.03680  0.55410  0.96628  1.0000 0.0529767198
C   C61       1.0  0.48570  0.61260  0.69619  1.0000 0.2371979093
C   C62       1.0  0.38740  0.87310  0.69619  1.0000 0.2371979093
C   C63       1.0  0.12690  0.51430  0.69619  1.0000 0.2371979093
C   C64       1.0  0.51430  0.38740  0.19619  1.0000 0.2371979093
C   C65       1.0  0.61260  0.12690  0.19619  1.0000 0.2371979093
C   C66       1.0  0.87310  0.48570  0.19619  1.0000 0.2371979093
C   C67       1.0  0.38930  0.54680  0.49865  1.0000 -0.2402931433
C   C68       1.0  0.45320  0.84250  0.49865  1.0000 -0.2402931433
C   C69       1.0  0.15750  0.61070  0.49865  1.0000 -0.2402931433
C   C70       1.0  0.61070  0.45320  0.99865  1.0000 -0.2402931433
C   C71       1.0  0.54680  0.15750  0.99865  1.0000 -0.2402931433
C   C72       1.0  0.84250  0.38930  0.99865  1.0000 -0.2402931433
C   C73       1.0  0.28530  0.41720  0.47544  1.0000 0.0421322845
C   C74       1.0  0.58280  0.86810  0.47544  1.0000 0.0421322845
C   C75       1.0  0.13190  0.71470  0.47544  1.0000 0.0421322845
C   C76       1.0  0.71470  0.58280  0.97544  1.0000 0.0421322845
C   C77       1.0  0.41720  0.13190  0.97544  1.0000 0.0421322845
C   C78       1.0  0.86810  0.28530  0.97544  1.0000 0.0421322845
C   C79       1.0  0.60070  0.80290  0.65423  1.0000 -0.0306709194
C   C80       1.0  0.19710  0.79780  0.65423  1.0000 -0.0306709194
C   C81       1.0  0.20220  0.39930  0.65423  1.0000 -0.0306709194
C   C82       1.0  0.39930  0.19710  0.15423  1.0000 -0.0306709194
C   C83       1.0  0.80290  0.20220  0.15423  1.0000 -0.0306709194
C   C84       1.0  0.79780  0.60070  0.15423  1.0000 -0.0306709194
C   C85       1.0  0.47290  0.56810  0.73401  1.0000 -0.1505412998
C   C86       1.0  0.43190  0.90480  0.73401  1.0000 -0.1505412998
C   C87       1.0  0.09520  0.52710  0.73401  1.0000 -0.1505412998
C   C88       1.0  0.52710  0.43190  0.23401  1.0000 -0.1505412998
C   C89       1.0  0.56810  0.09520  0.23401  1.0000 -0.1505412998
C   C90       1.0  0.90480  0.47290  0.23401  1.0000 -0.1505412998
C   C91       1.0  0.50390  0.67630  0.77907  1.0000 0.0596159749
C   C92       1.0  0.32370  0.82760  0.77907  1.0000 0.0596159749
C   C93       1.0  0.17240  0.49610  0.77907  1.0000 0.0596159749
C   C94       1.0  0.49610  0.32370  0.27907  1.0000 0.0596159749
C   C95       1.0  0.67630  0.17240  0.27907  1.0000 0.0596159749
C   C96       1.0  0.82760  0.50390  0.27907  1.0000 0.0596159749
C   C97       1.0  0.74690  0.13260  0.47280  1.0000 0.1498081802
C   C98       1.0  0.86740  0.61430  0.47280  1.0000 0.1498081802
C   C99       1.0  0.38570  0.25310  0.47280  1.0000 0.1498081802
C   C100      1.0  0.25310  0.86740  0.97280  1.0000 0.1498081802
C   C101      1.0  0.13260  0.38570  0.97280  1.0000 0.1498081802
C   C102      1.0  0.61430  0.74690  0.97280  1.0000 0.1498081802
C   C103      1.0  0.25900  0.47870  0.39959  1.0000 -0.1505412998
C   C104      1.0  0.52130  0.78030  0.39959  1.0000 -0.1505412998
C   C105      1.0  0.21970  0.74100  0.39959  1.0000 -0.1505412998
C   C106      1.0  0.74100  0.52130  0.89959  1.0000 -0.1505412998
C   C107      1.0  0.47870  0.21970  0.89959  1.0000 -0.1505412998
C   C108      1.0  0.78030  0.25900  0.89959  1.0000 -0.1505412998
C   C109      1.0  0.56860  0.49500  0.50653  1.0000 -0.1708868243
C   C110      1.0  0.50500  0.07360  0.50653  1.0000 -0.1708868243
C   C111      1.0  0.92640  0.43140  0.50653  1.0000 -0.1708868243
C   C112      1.0  0.43140  0.50500  0.00653  1.0000 -0.1708868243
C   C113      1.0  0.49500  0.92640  0.00653  1.0000 -0.1708868243
C   C114      1.0  0.07360  0.56860  0.00653  1.0000 -0.1708868243
C   C115      1.0  0.47200  0.51150  0.54049  1.0000 0.2371979093
C   C116      1.0  0.48850  0.96050  0.54049  1.0000 0.2371979093
C   C117      1.0  0.03950  0.52800  0.54049  1.0000 0.2371979093
C   C118      1.0  0.52800  0.48850  0.04049  1.0000 0.2371979093
C   C119      1.0  0.51150  0.03950  0.04049  1.0000 0.2371979093
C   C120      1.0  0.96050  0.47200  0.04049  1.0000 0.2371979093
C   C121      1.0  0.61340  0.84700  0.21926  1.0000 0.1131051465
C   C122      1.0  0.15300  0.76640  0.21926  1.0000 0.1131051465
C   C123      1.0  0.23360  0.38660  0.21926  1.0000 0.1131051465
C   C124      1.0  0.38660  0.15300  0.71926  1.0000 0.1131051465
C   C125      1.0  0.84700  0.23360  0.71926  1.0000 0.1131051465
C   C126      1.0  0.76640  0.61340  0.71926  1.0000 0.1131051465
C   C127      1.0  0.55160  0.90470  0.20548  1.0000 -0.0774181963
C   C128      1.0  0.09530  0.64690  0.20548  1.0000 -0.0774181963
C   C129      1.0  0.35310  0.44840  0.20548  1.0000 -0.0774181963
C   C130      1.0  0.44840  0.09530  0.70548  1.0000 -0.0774181963
C   C131      1.0  0.90470  0.35310  0.70548  1.0000 -0.0774181963
C   C132      1.0  0.64690  0.55160  0.70548  1.0000 -0.0774181963
C   C133      1.0  0.49810  0.53890  0.46366  1.0000 0.0421322845
C   C134      1.0  0.46110  0.95920  0.46366  1.0000 0.0421322845
C   C135      1.0  0.04080  0.50190  0.46366  1.0000 0.0421322845
C   C136      1.0  0.50190  0.46110  0.96366  1.0000 0.0421322845
C   C137      1.0  0.53890  0.04080  0.96366  1.0000 0.0421322845
C   C138      1.0  0.95920  0.49810  0.96366  1.0000 0.0421322845
C   C139      1.0  0.48810  0.56570  0.42280  1.0000 -0.1194391694
C   C140      1.0  0.43430  0.92240  0.42280  1.0000 -0.1194391694
C   C141      1.0  0.07760  0.51190  0.42280  1.0000 -0.1194391694
C   C142      1.0  0.51190  0.43430  0.92280  1.0000 -0.1194391694
C   C143      1.0  0.56570  0.07760  0.92280  1.0000 -0.1194391694
C   C144      1.0  0.92240  0.48810  0.92280  1.0000 -0.1194391694
C   C145      1.0  0.48320  0.60000  0.77436  1.0000 -0.1505412998
C   C146      1.0  0.40000  0.88320  0.77436  1.0000 -0.1505412998
C   C147      1.0  0.11680  0.51680  0.77436  1.0000 -0.1505412998
C   C148      1.0  0.51680  0.40000  0.27436  1.0000 -0.1505412998
C   C149      1.0  0.60000  0.11680  0.27436  1.0000 -0.1505412998
C   C150      1.0  0.88320  0.48320  0.27436  1.0000 -0.1505412998
C   C151      1.0  0.67640  0.93900  0.64880  1.0000 -0.1607547715
C   C152      1.0  0.06100  0.73740  0.64880  1.0000 -0.1607547715
C   C153      1.0  0.26260  0.32360  0.64880  1.0000 -0.1607547715
C   C154      1.0  0.32360  0.06100  0.14880  1.0000 -0.1607547715
C   C155      1.0  0.93900  0.26260  0.14880  1.0000 -0.1607547715
C   C156      1.0  0.73740  0.67640  0.14880  1.0000 -0.1607547715
C   C157      1.0  0.52470  0.73370  0.65760  1.0000 -0.2459467929
C   C158      1.0  0.26630  0.79100  0.65760  1.0000 -0.2459467929
C   C159      1.0  0.20900  0.47530  0.65760  1.0000 -0.2459467929
C   C160      1.0  0.47530  0.26630  0.15760  1.0000 -0.2459467929
C   C161      1.0  0.73370  0.20900  0.15760  1.0000 -0.2459467929
C   C162      1.0  0.79100  0.52470  0.15760  1.0000 -0.2459467929
C   C163      1.0  0.24470  0.50800  0.35886  1.0000 0.6115378757
C   C164      1.0  0.49200  0.73670  0.35886  1.0000 0.6115378757
C   C165      1.0  0.26330  0.75530  0.35886  1.0000 0.6115378757
C   C166      1.0  0.75530  0.49200  0.85886  1.0000 0.6115378757
C   C167      1.0  0.50800  0.26330  0.85886  1.0000 0.6115378757
C   C168      1.0  0.73670  0.24470  0.85886  1.0000 0.6115378757
C   C169      1.0  0.70220  0.05890  0.39342  1.0000 0.0672288481
C   C170      1.0  0.94110  0.64330  0.39342  1.0000 0.0672288481
C   C171      1.0  0.35670  0.29780  0.39342  1.0000 0.0672288481
C   C172      1.0  0.29780  0.94110  0.89342  1.0000 0.0672288481
C   C173      1.0  0.05890  0.35670  0.89342  1.0000 0.0672288481
C   C174      1.0  0.64330  0.70220  0.89342  1.0000 0.0672288481
C   C175      1.0  0.29110  0.38200  0.51410  1.0000 -0.1285295567
C   C176      1.0  0.61800  0.90910  0.51410  1.0000 -0.1285295567
C   C177      1.0  0.09090  0.70890  0.51410  1.0000 -0.1285295567
C   C178      1.0  0.70890  0.61800  0.01410  1.0000 -0.1285295567
C   C179      1.0  0.38200  0.09090  0.01410  1.0000 -0.1285295567
C   C180      1.0  0.90910  0.29110  0.01410  1.0000 -0.1285295567
C   C181      1.0  0.73130  0.14240  0.55128  1.0000 0.1184634592
C   C182      1.0  0.85760  0.58890  0.55128  1.0000 0.1184634592
C   C183      1.0  0.41110  0.26870  0.55128  1.0000 0.1184634592
C   C184      1.0  0.26870  0.85760  0.05128  1.0000 0.1184634592
C   C185      1.0  0.14240  0.41110  0.05128  1.0000 0.1184634592
C   C186      1.0  0.58890  0.73130  0.05128  1.0000 0.1184634592
C   C187      1.0  0.53860  0.85510  0.17350  1.0000 -0.0410799961
C   C188      1.0  0.14490  0.68350  0.17350  1.0000 -0.0410799961
C   C189      1.0  0.31650  0.46140  0.17350  1.0000 -0.0410799961
C   C190      1.0  0.46140  0.14490  0.67350  1.0000 -0.0410799961
C   C191      1.0  0.85510  0.31650  0.67350  1.0000 -0.0410799961
C   C192      1.0  0.68350  0.53860  0.67350  1.0000 -0.0410799961
C   C193      1.0  0.22170  0.40180  0.40577  1.0000 -0.1505412998
C   C194      1.0  0.59820  0.81990  0.40577  1.0000 -0.1505412998
C   C195      1.0  0.18010  0.77830  0.40577  1.0000 -0.1505412998
C   C196      1.0  0.77830  0.59820  0.90577  1.0000 -0.1505412998
C   C197      1.0  0.40180  0.18010  0.90577  1.0000 -0.1505412998
C   C198      1.0  0.81990  0.22170  0.90577  1.0000 -0.1505412998
C   C199      1.0  0.23280  0.36940  0.44260  1.0000 0.0596159749
C   C200      1.0  0.63060  0.86340  0.44260  1.0000 0.0596159749
C   C201      1.0  0.13660  0.76720  0.44260  1.0000 0.0596159749
C   C202      1.0  0.76720  0.63060  0.94260  1.0000 0.0596159749
C   C203      1.0  0.36940  0.13660  0.94260  1.0000 0.0596159749
C   C204      1.0  0.86340  0.23280  0.94260  1.0000 0.0596159749
C   C205      1.0  0.24980  0.30560  0.51900  1.0000 -0.1016484076
C   C206      1.0  0.69440  0.94420  0.51900  1.0000 -0.1016484076
C   C207      1.0  0.05580  0.75020  0.51900  1.0000 -0.1016484076
C   C208      1.0  0.75020  0.69440  0.01900  1.0000 -0.1016484076
C   C209      1.0  0.30560  0.05580  0.01900  1.0000 -0.1016484076
C   C210      1.0  0.94420  0.24980  0.01900  1.0000 -0.1016484076
C   C211      1.0  0.66770  0.79960  0.65571  1.0000 0.0529767198
C   C212      1.0  0.20040  0.86810  0.65571  1.0000 0.0529767198
C   C213      1.0  0.13190  0.33230  0.65571  1.0000 0.0529767198
C   C214      1.0  0.33230  0.20040  0.15571  1.0000 0.0529767198
C   C215      1.0  0.79960  0.13190  0.15571  1.0000 0.0529767198
C   C216      1.0  0.86810  0.66770  0.15571  1.0000 0.0529767198
C   C217      1.0  0.53320  0.79580  0.74691  1.0000 -0.1194391694
C   C218      1.0  0.20420  0.73740  0.74691  1.0000 -0.1194391694
C   C219      1.0  0.26260  0.46680  0.74691  1.0000 -0.1194391694
C   C220      1.0  0.46680  0.20420  0.24691  1.0000 -0.1194391694
C   C221      1.0  0.79580  0.26260  0.24691  1.0000 -0.1194391694
C   C222      1.0  0.73740  0.53320  0.24691  1.0000 -0.1194391694
C   C223      1.0  0.53010  0.56830  0.38679  1.0000 -0.0746960621
C   C224      1.0  0.43170  0.96180  0.38679  1.0000 -0.0746960621
C   C225      1.0  0.03820  0.46990  0.38679  1.0000 -0.0746960621
C   C226      1.0  0.46990  0.43170  0.88679  1.0000 -0.0746960621
C   C227      1.0  0.56830  0.03820  0.88679  1.0000 -0.0746960621
C   C228      1.0  0.96180  0.53010  0.88679  1.0000 -0.0746960621
C   C229      1.0  0.45440  0.53180  0.50073  1.0000 -0.020377531
C   C230      1.0  0.46820  0.92260  0.50073  1.0000 -0.020377531
C   C231      1.0  0.07740  0.54560  0.50073  1.0000 -0.020377531
C   C232      1.0  0.54560  0.46820  0.00073  1.0000 -0.020377531
C   C233      1.0  0.53180  0.07740  0.00073  1.0000 -0.020377531
C   C234      1.0  0.92260  0.45440  0.00073  1.0000 -0.020377531
C   C235      1.0  0.66720  0.73030  0.65610  1.0000 -0.1285295567
C   C236      1.0  0.26970  0.93690  0.65610  1.0000 -0.1285295567
C   C237      1.0  0.06310  0.33280  0.65610  1.0000 -0.1285295567
C   C238      1.0  0.33280  0.26970  0.15610  1.0000 -0.1285295567
C   C239      1.0  0.73030  0.06310  0.15610  1.0000 -0.1285295567
C   C240      1.0  0.93690  0.66720  0.15610  1.0000 -0.1285295567
C   C241      1.0  0.79920  0.14370  0.44180  1.0000 -0.1708868243
C   C242      1.0  0.85630  0.65550  0.44180  1.0000 -0.1708868243
C   C243      1.0  0.34450  0.20080  0.44180  1.0000 -0.1708868243
C   C244      1.0  0.20080  0.85630  0.94180  1.0000 -0.1708868243
C   C245      1.0  0.14370  0.34450  0.94180  1.0000 -0.1708868243
C   C246      1.0  0.65550  0.79920  0.94180  1.0000 -0.1708868243
C   C247      1.0  0.53900  0.82430  0.78800  1.0000 -0.0893217387
C   C248      1.0  0.17570  0.71470  0.78800  1.0000 -0.0893217387
C   C249      1.0  0.28530  0.46100  0.78800  1.0000 -0.0893217387
C   C250      1.0  0.46100  0.17570  0.28800  1.0000 -0.0893217387
C   C251      1.0  0.82430  0.28530  0.28800  1.0000 -0.0893217387
C   C252      1.0  0.71470  0.53900  0.28800  1.0000 -0.0893217387
C   C253      1.0  0.73220  0.72970  0.65740  1.0000 -0.1016484076
C   C254      1.0  0.27030  0.00250  0.65740  1.0000 -0.1016484076
C   C255      1.0  0.99750  0.26780  0.65740  1.0000 -0.1016484076
C   C256      1.0  0.26780  0.27030  0.15740  1.0000 -0.1016484076
C   C257      1.0  0.72970  0.99750  0.15740  1.0000 -0.1016484076
C   C258      1.0  0.00250  0.73220  0.15740  1.0000 -0.1016484076
C   C259      1.0  0.83670  0.24030  0.56800  1.0000 -0.020377531
C   C260      1.0  0.75970  0.59640  0.56800  1.0000 -0.020377531
C   C261      1.0  0.40360  0.16330  0.56800  1.0000 -0.020377531
C   C262      1.0  0.16330  0.75970  0.06800  1.0000 -0.020377531
C   C263      1.0  0.24030  0.40360  0.06800  1.0000 -0.020377531
C   C264      1.0  0.59640  0.83670  0.06800  1.0000 -0.020377531
C   C265      1.0  0.83910  0.22990  0.52510  1.0000 -0.1076105758
C   C266      1.0  0.77010  0.60920  0.52510  1.0000 -0.1076105758
C   C267      1.0  0.39080  0.16090  0.52510  1.0000 -0.1076105758
C   C268      1.0  0.16090  0.77010  0.02510  1.0000 -0.1076105758
C   C269      1.0  0.22990  0.39080  0.02510  1.0000 -0.1076105758
C   C270      1.0  0.60920  0.83910  0.02510  1.0000 -0.1076105758
C   C271      1.0  0.51070  0.70780  0.82118  1.0000 -0.1426453988
C   C272      1.0  0.29220  0.80290  0.82118  1.0000 -0.1426453988
C   C273      1.0  0.19710  0.48930  0.82118  1.0000 -0.1426453988
C   C274      1.0  0.48930  0.29220  0.32118  1.0000 -0.1426453988
C   C275      1.0  0.70780  0.19710  0.32118  1.0000 -0.1426453988
C   C276      1.0  0.80290  0.51070  0.32118  1.0000 -0.1426453988
C   C277      1.0  0.19230  0.29120  0.45000  1.0000 -0.1426453988
C   C278      1.0  0.70880  0.90110  0.45000  1.0000 -0.1426453988
C   C279      1.0  0.09890  0.80770  0.45000  1.0000 -0.1426453988
C   C280      1.0  0.80770  0.70880  0.95000  1.0000 -0.1426453988
C   C281      1.0  0.29120  0.09890  0.95000  1.0000 -0.1426453988
C   C282      1.0  0.90110  0.19230  0.95000  1.0000 -0.1426453988
C   C283      1.0  0.59510  0.52070  0.42800  1.0000 -0.1607547715
C   C284      1.0  0.47930  0.07440  0.42800  1.0000 -0.1607547715
C   C285      1.0  0.92560  0.40490  0.42800  1.0000 -0.1607547715
C   C286      1.0  0.40490  0.47930  0.92800  1.0000 -0.1607547715
C   C287      1.0  0.52070  0.92560  0.92800  1.0000 -0.1607547715
C   C288      1.0  0.07440  0.59510  0.92800  1.0000 -0.1607547715
C   C289      1.0  0.20070  0.26110  0.48740  1.0000 -0.1016484076
C   C290      1.0  0.73890  0.93960  0.48740  1.0000 -0.1016484076
C   C291      1.0  0.06040  0.79930  0.48740  1.0000 -0.1016484076
C   C292      1.0  0.79930  0.73890  0.98740  1.0000 -0.1016484076
C   C293      1.0  0.26110  0.06040  0.98740  1.0000 -0.1016484076
C   C294      1.0  0.93960  0.20070  0.98740  1.0000 -0.1016484076
C   C295      1.0  0.52720  0.78040  0.82500  1.0000 -0.1016484076
C   C296      1.0  0.21960  0.74680  0.82500  1.0000 -0.1016484076
C   C297      1.0  0.25320  0.47280  0.82500  1.0000 -0.1016484076
C   C298      1.0  0.47280  0.21960  0.32500  1.0000 -0.1016484076
C   C299      1.0  0.78040  0.25320  0.32500  1.0000 -0.1016484076
C   C300      1.0  0.74680  0.52720  0.32500  1.0000 -0.1016484076
C   C301      1.0  0.77520  0.10760  0.40200  1.0000 -0.1285295567
C   C302      1.0  0.89240  0.66760  0.40200  1.0000 -0.1285295567
C   C303      1.0  0.33240  0.22480  0.40200  1.0000 -0.1285295567
C   C304      1.0  0.22480  0.89240  0.90200  1.0000 -0.1285295567
C   C305      1.0  0.10760  0.33240  0.90200  1.0000 -0.1285295567
C   C306      1.0  0.66760  0.77520  0.90200  1.0000 -0.1285295567
C   C307      1.0  0.74050  0.93560  0.65300  1.0000 -0.1426453988
C   C308      1.0  0.06440  0.80490  0.65300  1.0000 -0.1426453988
C   C309      1.0  0.19510  0.25950  0.65300  1.0000 -0.1426453988
C   C310      1.0  0.25950  0.06440  0.15300  1.0000 -0.1426453988
C   C311      1.0  0.93560  0.19510  0.15300  1.0000 -0.1426453988
C   C312      1.0  0.80490  0.74050  0.15300  1.0000 -0.1426453988
C   C313      1.0  0.58170  0.54420  0.38970  1.0000 -0.0893217387
C   C314      1.0  0.45580  0.03750  0.38970  1.0000 -0.0893217387
C   C315      1.0  0.96250  0.41830  0.38970  1.0000 -0.0893217387
C   C316      1.0  0.41830  0.45580  0.88970  1.0000 -0.0893217387
C   C317      1.0  0.54420  0.96250  0.88970  1.0000 -0.0893217387
C   C318      1.0  0.03750  0.58170  0.88970  1.0000 -0.0893217387
C   C319      1.0  0.67440  0.08460  0.46430  1.0000 -0.1505412998
C   C320      1.0  0.91540  0.58980  0.46430  1.0000 -0.1505412998
C   C321      1.0  0.41020  0.32560  0.46430  1.0000 -0.1505412998
C   C322      1.0  0.32560  0.91540  0.96430  1.0000 -0.1505412998
C   C323      1.0  0.08460  0.41020  0.96430  1.0000 -0.1505412998
C   C324      1.0  0.58980  0.67440  0.96430  1.0000 -0.1505412998
C   C325      1.0  0.73890  0.86760  0.65660  1.0000 0.0596159749
C   C326      1.0  0.13240  0.87130  0.65660  1.0000 0.0596159749
C   C327      1.0  0.12870  0.26110  0.65660  1.0000 0.0596159749
C   C328      1.0  0.26110  0.13240  0.15660  1.0000 0.0596159749
C   C329      1.0  0.86760  0.12870  0.15660  1.0000 0.0596159749
C   C330      1.0  0.87130  0.73890  0.15660  1.0000 0.0596159749
C   C331      1.0  0.80320  0.79740  0.65970  1.0000 -0.1076105758
C   C332      1.0  0.20260  0.00580  0.65970  1.0000 -0.1076105758
C   C333      1.0  0.99420  0.19680  0.65970  1.0000 -0.1076105758
C   C334      1.0  0.19680  0.20260  0.15970  1.0000 -0.1076105758
C   C335      1.0  0.79740  0.99420  0.15970  1.0000 -0.1076105758
C   C336      1.0  0.00580  0.80320  0.15970  1.0000 -0.1076105758
C   C337      1.0  0.80720  0.86550  0.65850  1.0000 -0.1426453988
C   C338      1.0  0.13450  0.94170  0.65850  1.0000 -0.1426453988
C   C339      1.0  0.05830  0.19280  0.65850  1.0000 -0.1426453988
C   C340      1.0  0.19280  0.13450  0.15850  1.0000 -0.1426453988
C   C341      1.0  0.86550  0.05830  0.15850  1.0000 -0.1426453988
C   C342      1.0  0.94170  0.80720  0.15850  1.0000 -0.1426453988
C   C343      1.0  0.65170  0.04710  0.42570  1.0000 -0.1194391694
C   C344      1.0  0.95290  0.60460  0.42570  1.0000 -0.1194391694
C   C345      1.0  0.39540  0.34830  0.42570  1.0000 -0.1194391694
C   C346      1.0  0.34830  0.95290  0.92570  1.0000 -0.1194391694
C   C347      1.0  0.04710  0.39540  0.92570  1.0000 -0.1194391694
C   C348      1.0  0.60460  0.65170  0.92570  1.0000 -0.1194391694
C   C349      1.0  0.72696  0.01830  0.32128  1.0000 -0.1194391694
C   C350      1.0  0.98170  0.70866  0.32128  1.0000 -0.1194391694
C   C351      1.0  0.29134  0.27304  0.32128  1.0000 -0.1194391694
C   C352      1.0  0.27304  0.98170  0.82128  1.0000 -0.1194391694
C   C353      1.0  0.01830  0.29134  0.82128  1.0000 -0.1194391694
C   C354      1.0  0.70866  0.72696  0.82128  1.0000 -0.1194391694
C   C355      1.0  0.70130  0.97930  0.28242  1.0000 -0.1708868243
C   C356      1.0  0.02070  0.72200  0.28242  1.0000 -0.1708868243
C   C357      1.0  0.27800  0.29870  0.28242  1.0000 -0.1708868243
C   C358      1.0  0.29870  0.02070  0.78242  1.0000 -0.1708868243
C   C359      1.0  0.97930  0.27800  0.78242  1.0000 -0.1708868243
C   C360      1.0  0.72200  0.70130  0.78242  1.0000 -0.1708868243
C   C361      1.0  0.62520  0.93920  0.27384  1.0000 0.1583571602
C   C362      1.0  0.06080  0.68600  0.27384  1.0000 0.1583571602
C   C363      1.0  0.31400  0.37480  0.27384  1.0000 0.1583571602
C   C364      1.0  0.37480  0.06080  0.77384  1.0000 0.1583571602
C   C365      1.0  0.93920  0.31400  0.77384  1.0000 0.1583571602
C   C366      1.0  0.68600  0.62520  0.77384  1.0000 0.1583571602
C   C367      1.0  0.57479  0.93810  0.30412  1.0000 -0.1505412998
C   C368      1.0  0.06190  0.63669  0.30412  1.0000 -0.1426453988
C   C369      1.0  0.36331  0.42521  0.30412  1.0000 -0.1426453988
C   C370      1.0  0.42521  0.06190  0.80412  1.0000 -0.1426453988
C   C371      1.0  0.93810  0.36331  0.80412  1.0000 -0.1426453988
C   C372      1.0  0.63669  0.57479  0.80412  1.0000 -0.1426453988
C   C373      1.0  0.60050  0.97710  0.34298  1.0000 -0.1194391694
C   C374      1.0  0.02290  0.62340  0.34298  1.0000 -0.1194391694
C   C375      1.0  0.37660  0.39950  0.34298  1.0000 -0.1194391694
C   C376      1.0  0.39950  0.02290  0.84298  1.0000 -0.1194391694
C   C377      1.0  0.97710  0.37660  0.84298  1.0000 -0.1194391694
C   C378      1.0  0.62340  0.60050  0.84298  1.0000 -0.1194391694
C   C379      1.0  0.67650  0.01720  0.35156  1.0000 0.0672288481
C   C380      1.0  0.98280  0.65930  0.35156  1.0000 0.0672288481
C   C381      1.0  0.34070  0.32350  0.35156  1.0000 0.0672288481
C   C382      1.0  0.32350  0.98280  0.85156  1.0000 0.0672288481
C   C383      1.0  0.01720  0.34070  0.85156  1.0000 0.0672288481
C   C384      1.0  0.65930  0.67650  0.85156  1.0000 0.0672288481
N   N1        1.0  0.76820  0.18710  0.58442  1.0000 -0.2785122823
N   N2        1.0  0.81290  0.58110  0.58442  1.0000 -0.2785122823
N   N3        1.0  0.41890  0.23180  0.58442  1.0000 -0.2785122823
N   N4        1.0  0.23180  0.81290  0.08442  1.0000 -0.2785122823
N   N5        1.0  0.18710  0.41890  0.08442  1.0000 -0.2785122823
N   N6        1.0  0.58110  0.76820  0.08442  1.0000 -0.2785122823
N   N7        1.0  0.57800  0.81904  0.18206  1.0000 -0.295171855
N   N8        1.0  0.18096  0.75896  0.18206  1.0000 -0.295171855
N   N9        1.0  0.24104  0.42200  0.18206  1.0000 -0.295171855
N   N10       1.0  0.42200  0.18096  0.68206  1.0000 -0.295171855
N   N11       1.0  0.81904  0.24104  0.68206  1.0000 -0.295171855
N   N12       1.0  0.75896  0.57800  0.68206  1.0000 -0.295171855
N   N13       1.0  0.59820  0.89840  0.23444  1.0000 0.0160345454
N   N14       1.0  0.10160  0.69980  0.23444  1.0000 0.0160345454
N   N15       1.0  0.30020  0.40180  0.23444  1.0000 0.0160345454
N   N16       1.0  0.40180  0.10160  0.73444  1.0000 0.0160345454
N   N17       1.0  0.89840  0.30020  0.73444  1.0000 0.0160345454
N   N18       1.0  0.69980  0.59820  0.73444  1.0000 0.0160345454
N   N19       1.0  0.77180  0.16770  0.51459  1.0000 0.0128227771
N   N20       1.0  0.83230  0.60410  0.51459  1.0000 0.0128227771
N   N21       1.0  0.39590  0.22820  0.51459  1.0000 0.0128227771
N   N22       1.0  0.22820  0.83230  0.01459  1.0000 0.0128227771
N   N23       1.0  0.16770  0.39590  0.01459  1.0000 0.0128227771
N   N24       1.0  0.60410  0.77180  0.01459  1.0000 0.0128227771
N   N25       1.0  0.64610  0.15880  0.66986  1.0000 -0.7669700365
N   N26       1.0  0.84120  0.48730  0.66986  1.0000 -0.7669700365
N   N27       1.0  0.51270  0.35390  0.66986  1.0000 -0.7669700365
N   N28       1.0  0.35390  0.84120  0.16986  1.0000 -0.7669700365
N   N29       1.0  0.15880  0.51270  0.16986  1.0000 -0.7669700365
N   N30       1.0  0.48730  0.64610  0.16986  1.0000 -0.7669700365
O   O1        1.0  0.52672  0.48594  0.62107  1.0000 -0.6317461246
O   O2        1.0  0.51406  0.04078  0.62107  1.0000 -0.6317461246
O   O3        1.0  0.95922  0.47328  0.62107  1.0000 -0.6317461246
O   O4        1.0  0.47328  0.51406  0.12107  1.0000 -0.6317461246
O   O5        1.0  0.48594  0.95922  0.12107  1.0000 -0.6317461246
O   O6        1.0  0.04078  0.52672  0.12107  1.0000 -0.6317461246
O   O7        1.0  0.62856  0.01697  0.62451  1.0000 -0.6317461246
O   O8        1.0  0.98303  0.61159  0.62451  1.0000 -0.6317461246
O   O9        1.0  0.38841  0.37144  0.62451  1.0000 -0.6317461246
O   O10       1.0  0.37144  0.98303  0.12451  1.0000 -0.6317461246
O   O11       1.0  0.01697  0.38841  0.12451  1.0000 -0.6317461246
O   O12       1.0  0.61159  0.62856  0.12451  1.0000 -0.6317461246
O   O13       1.0  0.44698  0.45716  0.69545  1.0000 -0.6360043864
O   O14       1.0  0.54284  0.98982  0.69545  1.0000 -0.6360043864
O   O15       1.0  0.01018  0.55302  0.69545  1.0000 -0.6360043864
O   O16       1.0  0.55302  0.54284  0.19545  1.0000 -0.6360043864
O   O17       1.0  0.45716  0.01018  0.19545  1.0000 -0.6360043864
O   O18       1.0  0.98982  0.44698  0.19545  1.0000 -0.6360043864
O   O19       1.0  0.47432  0.58145  0.65647  1.0000 -0.616167464
O   O20       1.0  0.41855  0.89287  0.65647  1.0000 -0.616167464
O   O21       1.0  0.10713  0.52568  0.65647  1.0000 -0.616167464
O   O22       1.0  0.52568  0.41855  0.15647  1.0000 -0.616167464
O   O23       1.0  0.58145  0.10713  0.15647  1.0000 -0.616167464
O   O24       1.0  0.89287  0.47432  0.15647  1.0000 -0.616167464
O   O25       1.0  0.54253  0.87537  0.64587  1.0000 -0.5975298863
O   O26       1.0  0.12463  0.66716  0.64587  1.0000 -0.5975298863
O   O27       1.0  0.33284  0.45747  0.64587  1.0000 -0.5975298863
O   O28       1.0  0.45747  0.12463  0.14587  1.0000 -0.5975298863
O   O29       1.0  0.87537  0.33284  0.14587  1.0000 -0.5975298863
O   O30       1.0  0.66716  0.54253  0.14587  1.0000 -0.5975298863
O   O31       1.0  0.43167  0.50701  0.57620  1.0000 -0.6317461246
O   O32       1.0  0.49299  0.92466  0.57620  1.0000 -0.6317461246
O   O33       1.0  0.07534  0.56833  0.57620  1.0000 -0.6317461246
O   O34       1.0  0.56833  0.49299  0.07620  1.0000 -0.6317461246
O   O35       1.0  0.50701  0.07534  0.07620  1.0000 -0.6317461246
O   O36       1.0  0.92466  0.43167  0.07620  1.0000 -0.6317461246
O   O37       1.0  0.34867  0.59909  0.42670  1.0000 -0.5975298863
O   O38       1.0  0.40091  0.74958  0.42670  1.0000 -0.5975298863
O   O39       1.0  0.25042  0.65133  0.42670  1.0000 -0.5975298863
O   O40       1.0  0.65133  0.40091  0.92670  1.0000 -0.5975298863
O   O41       1.0  0.59909  0.25042  0.92670  1.0000 -0.5975298863
O   O42       1.0  0.74958  0.34867  0.92670  1.0000 -0.5975298863
O   O43       1.0  0.27518  0.57918  0.35391  1.0000 -0.6053511481
O   O44       1.0  0.42082  0.69600  0.35391  1.0000 -0.6053511481
O   O45       1.0  0.30400  0.72482  0.35391  1.0000 -0.6053511481
O   O46       1.0  0.72482  0.42082  0.85391  1.0000 -0.6053511481
O   O47       1.0  0.57918  0.30400  0.85391  1.0000 -0.6053511481
O   O48       1.0  0.69600  0.27518  0.85391  1.0000 -0.6053511481
O   O49       1.0  0.74040  0.06950  0.65475  1.0000 -0.5080997528
O   O50       1.0  0.93050  0.67090  0.65475  1.0000 -0.5080997528
O   O51       1.0  0.32910  0.25960  0.65475  1.0000 -0.5080997528
O   O52       1.0  0.25960  0.93050  0.15475  1.0000 -0.5080997528
O   O53       1.0  0.06950  0.32910  0.15475  1.0000 -0.5080997528
O   O54       1.0  0.67090  0.74040  0.15475  1.0000 -0.5080997528
O   O55       1.0  0.59270  0.44650  0.58537  1.0000 -0.5167704802
O   O56       1.0  0.55350  0.14620  0.58537  1.0000 -0.5167704802
O   O57       1.0  0.85380  0.40730  0.58537  1.0000 -0.5167704802
O   O58       1.0  0.40730  0.55350  0.08537  1.0000 -0.5167704802
O   O59       1.0  0.44650  0.85380  0.08537  1.0000 -0.5167704802
O   O60       1.0  0.14620  0.59270  0.08537  1.0000 -0.5167704802
O   O61       1.0  0.44570  0.45437  0.76692  1.0000 -0.5039676409
O   O62       1.0  0.54563  0.99133  0.76692  1.0000 -0.5039676409
O   O63       1.0  0.00867  0.55430  0.76692  1.0000 -0.5039676409
O   O64       1.0  0.55430  0.54563  0.26692  1.0000 -0.5039676409
O   O65       1.0  0.45437  0.00867  0.26692  1.0000 -0.5039676409
O   O66       1.0  0.99133  0.44570  0.26692  1.0000 -0.5039676409
O   O67       1.0  0.20520  0.46420  0.32995  1.0000 -0.5293551764
O   O68       1.0  0.53580  0.74100  0.32995  1.0000 -0.5293551764
O   O69       1.0  0.25900  0.79480  0.32995  1.0000 -0.5293551764
O   O70       1.0  0.79480  0.53580  0.82995  1.0000 -0.5293551764
O   O71       1.0  0.46420  0.25900  0.82995  1.0000 -0.5293551764
O   O72       1.0  0.74100  0.20520  0.82995  1.0000 -0.5293551764
