# DDEC6 charges by PACMAN v1.1 (https://github.com/mtap-research/PACMAN-charge/)
data_2023[Dy][dia]3[ASR]2
_chemical_formula_sum              "Dy2 H6 C20 Cl6 O14"
_cell_length_a       9.8035
_cell_length_b       9.9091
_cell_length_c       10.907
_cell_angle_alpha    88.054
_cell_angle_beta     86.768
_cell_angle_gamma    72.351

_symmetry_space_group_name_H-M    "P 1"
_symmetry_Int_Tables_number       1

loop_
  _symmetry_equiv_pos_as_xyz
  'x, y, z'

loop_
  _atom_site_type_symbol
  _atom_site_label
  _atom_site_symmetry_multiplicity
  _atom_site_fract_x
  _atom_site_fract_y
  _atom_site_fract_z
  _atom_site_occupancy
  _atom_site_charge
Dy  Dy1       1.0  0.80421  0.71149  0.33506  1.0000 1.9715832973
Dy  Dy2       1.0  0.19579  0.28851  0.66494  1.0000 1.9715832973
H   H1        1.0  0.67500  0.83700  0.56400  1.0000 0.3470380808
H   H2        1.0  0.32500  0.16300  0.43600  1.0000 0.3470380808
H   H3        1.0  0.58390  0.06050  0.56080  1.0000 0.1303886974
H   H4        1.0  0.41610  0.93950  0.43920  1.0000 0.1303886974
H   H5        1.0  0.58196  0.05130  0.41671  1.0000 0.1303886974
H   H6        1.0  0.41804  0.94870  0.58329  1.0000 0.1303886974
C   C1        1.0  0.88370  0.52810  0.09120  1.0000 0.2708000595
C   C2        1.0  0.11630  0.47190  0.90880  1.0000 0.2708000595
C   C3        1.0  0.98650  0.85770  0.49810  1.0000 0.2590378354
C   C4        1.0  0.01350  0.14230  0.50190  1.0000 0.2590378354
C   C5        1.0  0.07890  0.02580  0.59710  1.0000 0.2590378354
C   C6        1.0  0.92110  0.97420  0.40290  1.0000 0.2590378354
C   C7        1.0  0.60600  0.42860  0.58500  1.0000 -0.129822964
C   C8        1.0  0.39400  0.57140  0.41500  1.0000 -0.129822964
C   C9        1.0  0.00400  0.39040  0.91470  1.0000 0.2401990684
C   C10       1.0  0.99600  0.60960  0.08530  1.0000 0.2401990684
C   C11       1.0  0.47150  0.40290  0.59050  1.0000 0.2761583532
C   C12       1.0  0.52850  0.59710  0.40950  1.0000 0.2761583532
C   C13       1.0  0.06700  0.88960  0.58830  1.0000 -0.136088798
C   C14       1.0  0.93300  0.11040  0.41170  1.0000 -0.136088798
C   C15       1.0  0.63950  0.52120  0.50060  1.0000 0.2401990684
C   C16       1.0  0.36050  0.47880  0.49940  1.0000 0.2401990684
C   C17       1.0  0.89470  0.42490  0.00270  1.0000 -0.129822964
C   C18       1.0  0.10530  0.57510  0.99730  1.0000 -0.129822964
C   C19       1.0  0.56680  0.00600  0.49430  1.0000 -0.0613904895
C   C20       1.0  0.43320  0.99400  0.50570  1.0000 -0.0613904895
Cl  Cl1       1.0  0.14510  0.76052  0.69478  1.0000 -0.0383087808
Cl  Cl2       1.0  0.85490  0.23948  0.30522  1.0000 -0.0383087808
Cl  Cl3       1.0  0.73044  0.34170  0.69139  1.0000 -0.0383087808
Cl  Cl4       1.0  0.26956  0.65830  0.30861  1.0000 -0.0383087808
Cl  Cl5       1.0  0.76435  0.33940  0.00882  1.0000 -0.0052599743
Cl  Cl6       1.0  0.23565  0.66060  0.99118  1.0000 -0.0027519713
O   O1        1.0  0.96270  0.74170  0.48600  1.0000 -0.5030155872
O   O2        1.0  0.03730  0.25830  0.51400  1.0000 -0.5030155872
O   O3        1.0  0.75610  0.55220  0.49180  1.0000 -0.5191688632
O   O4        1.0  0.24390  0.44780  0.50820  1.0000 -0.5086273288
O   O5        1.0  0.02680  0.29450  0.83510  1.0000 -0.5384236073
O   O6        1.0  0.97320  0.70550  0.16490  1.0000 -0.5384236073
O   O7        1.0  0.43430  0.32000  0.66540  1.0000 -0.4917266762
O   O8        1.0  0.56570  0.68000  0.33460  1.0000 -0.4917266762
O   O9        1.0  0.78960  0.56040  0.17580  1.0000 -0.5191688632
O   O10       1.0  0.21040  0.43960  0.82420  1.0000 -0.5263583755
O   O11       1.0  0.14580  0.06290  0.67820  1.0000 -0.5086273288
O   O12       1.0  0.85420  0.93710  0.32180  1.0000 -0.5086273288
O   O13       1.0  0.66420  0.85370  0.50000  1.0000 -0.5086273288
O   O14       1.0  0.33580  0.14630  0.50000  1.0000 -0.5086273288
