# DDEC6 charges by PACMAN v1.1 (https://github.com/mtap-research/PACMAN-charge/)
data_2023[Th][sql]2[ASR]1
_chemical_formula_sum              "Th2 H56 C96 N8 O16"
_cell_length_a       15.8943
_cell_length_b       15.8943
_cell_length_c       10.7996
_cell_angle_alpha    77.2545
_cell_angle_beta     102.746
_cell_angle_gamma    80.4276

_symmetry_space_group_name_H-M    "P 1"
_symmetry_Int_Tables_number       1

loop_
  _symmetry_equiv_pos_as_xyz
  'x, y, z'

loop_
  _atom_site_type_symbol
  _atom_site_label
  _atom_site_symmetry_multiplicity
  _atom_site_fract_x
  _atom_site_fract_y
  _atom_site_fract_z
  _atom_site_occupancy
  _atom_site_charge
Th  Th1       1.0  0.56001  0.56001  0.25000  1.0000 2.0973456947
Th  Th2       1.0  0.43999  0.43999  0.75000  1.0000 2.0922707168
H   H1        1.0  0.80003  0.29083  0.51731  1.0000 0.1196761397
H   H2        1.0  0.29083  0.80003  0.98269  1.0000 0.1124944813
H   H3        1.0  0.89219  0.19087  0.70980  1.0000 0.1124944813
H   H4        1.0  0.19087  0.89219  0.79020  1.0000 0.1124944813
H   H5        1.0  0.80176  0.34614  0.92595  1.0000 0.1307271158
H   H6        1.0  0.34614  0.80176  0.57405  1.0000 0.1307271158
H   H7        1.0  0.71051  0.44769  0.73202  1.0000 0.1196761397
H   H8        1.0  0.44769  0.71051  0.76798  1.0000 0.1196761397
H   H9        1.0  0.79494  0.10452  0.84832  1.0000 0.1307271158
H   H10       1.0  0.10452  0.79494  0.65168  1.0000 0.1307271158
H   H11       1.0  0.79658  0.96030  0.99595  1.0000 0.135160595
H   H12       1.0  0.96030  0.79658  0.50405  1.0000 0.135160595
H   H13       1.0  0.75550  0.93738  0.28329  1.0000 0.1196761397
H   H14       1.0  0.93738  0.75550  0.21671  1.0000 0.1196761397
H   H15       1.0  0.65973  0.84063  0.28599  1.0000 0.1196761397
H   H16       1.0  0.84063  0.65973  0.21401  1.0000 0.1196761397
H   H17       1.0  0.96828  0.36224  0.91400  1.0000 0.1307271158
H   H18       1.0  0.36224  0.96828  0.58600  1.0000 0.1307271158
H   H19       1.0  0.11108  0.36488  0.06017  1.0000 0.1307271158
H   H20       1.0  0.36488  0.11108  0.43983  1.0000 0.1307271158
H   H21       1.0  0.28728  0.25734  0.44488  1.0000 0.1196761397
H   H22       1.0  0.25734  0.28728  0.05512  1.0000 0.1196761397
H   H23       1.0  0.38911  0.34707  0.44683  1.0000 0.135160595
H   H24       1.0  0.34707  0.38911  0.05317  1.0000 0.135160595
H   H25       1.0  0.99306  0.05694  0.17825  1.0000 0.2166147789
H   H26       1.0  0.05694  0.99306  0.32175  1.0000 0.2166147789
H   H27       1.0  0.06500  0.12700  0.17700  1.0000 0.2257026953
H   H28       1.0  0.12700  0.06500  0.32300  1.0000 0.2257026953
H   H29       1.0  0.19997  0.70917  0.48269  1.0000 0.1124944813
H   H30       1.0  0.70917  0.19997  0.01731  1.0000 0.1124944813
H   H31       1.0  0.10781  0.80913  0.29020  1.0000 0.1124944813
H   H32       1.0  0.80913  0.10781  0.20980  1.0000 0.1124944813
H   H33       1.0  0.19824  0.65386  0.07405  1.0000 0.1307271158
H   H34       1.0  0.65386  0.19824  0.42595  1.0000 0.1307271158
H   H35       1.0  0.28949  0.55231  0.26798  1.0000 0.1196761397
H   H36       1.0  0.55231  0.28949  0.23202  1.0000 0.1196761397
H   H37       1.0  0.20506  0.89548  0.15168  1.0000 0.1307271158
H   H38       1.0  0.89548  0.20506  0.34832  1.0000 0.1307271158
H   H39       1.0  0.20342  0.03970  0.00405  1.0000 0.135160595
H   H40       1.0  0.03970  0.20342  0.49595  1.0000 0.135160595
H   H41       1.0  0.24450  0.06262  0.71671  1.0000 0.1196761397
H   H42       1.0  0.06262  0.24450  0.78329  1.0000 0.1196761397
H   H43       1.0  0.34027  0.15937  0.71401  1.0000 0.1196761397
H   H44       1.0  0.15937  0.34027  0.78599  1.0000 0.1196761397
H   H45       1.0  0.03172  0.63776  0.08600  1.0000 0.1307271158
H   H46       1.0  0.63776  0.03172  0.41400  1.0000 0.1307271158
H   H47       1.0  0.88892  0.63512  0.93983  1.0000 0.1307271158
H   H48       1.0  0.63512  0.88892  0.56017  1.0000 0.1307271158
H   H49       1.0  0.71272  0.74266  0.55512  1.0000 0.1196761397
H   H50       1.0  0.74266  0.71272  0.94488  1.0000 0.1196761397
H   H51       1.0  0.61089  0.65293  0.55317  1.0000 0.135160595
H   H52       1.0  0.65293  0.61089  0.94683  1.0000 0.135160595
H   H53       1.0  0.00694  0.94306  0.82175  1.0000 0.2166147789
H   H54       1.0  0.94306  0.00694  0.67825  1.0000 0.2166147789
H   H55       1.0  0.93500  0.87300  0.82300  1.0000 0.2257026953
H   H56       1.0  0.87300  0.93500  0.67700  1.0000 0.2257026953
C   C1        1.0  0.68927  0.44403  0.48240  1.0000 0.5659763662
C   C2        1.0  0.44403  0.68927  0.01760  1.0000 0.5659763662
C   C3        1.0  0.74728  0.37940  0.60600  1.0000 -0.0122272556
C   C4        1.0  0.37940  0.74728  0.89400  1.0000 -0.0122272556
C   C5        1.0  0.80093  0.30253  0.60010  1.0000 -0.0969098492
C   C6        1.0  0.30253  0.80093  0.89990  1.0000 -0.0969098492
C   C7        1.0  0.85557  0.24313  0.71460  1.0000 -0.1654738339
C   C8        1.0  0.24313  0.85557  0.78540  1.0000 -0.1654738339
C   C9        1.0  0.85751  0.25903  0.83660  1.0000 0.0882602146
C   C10       1.0  0.25903  0.85751  0.66340  1.0000 0.0882602146
C   C11       1.0  0.80212  0.33538  0.84290  1.0000 -0.1500007934
C   C12       1.0  0.33538  0.80212  0.65710  1.0000 -0.1500007934
C   C13       1.0  0.74757  0.39557  0.72770  1.0000 -0.0770617321
C   C14       1.0  0.39557  0.74757  0.77230  1.0000 -0.0770617321
C   C15       1.0  0.91967  0.19643  0.95980  1.0000 -0.1187307673
C   C16       1.0  0.19643  0.91967  0.54020  1.0000 -0.1187307673
C   C17       1.0  0.90351  0.11217  0.00130  1.0000 0.1602483716
C   C18       1.0  0.11217  0.90351  0.49870  1.0000 0.1602483716
C   C19       1.0  0.83390  0.07734  0.93360  1.0000 -0.19794464
C   C20       1.0  0.07734  0.83390  0.56640  1.0000 -0.19794464
C   C21       1.0  0.83460  0.99876  0.01450  1.0000 -0.19794464
C   C22       1.0  0.99876  0.83460  0.48550  1.0000 -0.19794464
C   C23       1.0  0.90378  0.98414  0.13410  1.0000 0.1602483716
C   C24       1.0  0.98414  0.90378  0.36590  1.0000 0.1602483716
C   C25       1.0  0.91766  0.91766  0.25000  1.0000 -0.1187307673
C   C26       1.0  0.85591  0.85591  0.25000  1.0000 0.0882602146
C   C27       1.0  0.77326  0.88068  0.27000  1.0000 -0.1500007934
C   C28       1.0  0.88068  0.77326  0.23000  1.0000 -0.1500007934
C   C29       1.0  0.71594  0.82326  0.27100  1.0000 -0.0969098492
C   C30       1.0  0.82326  0.71594  0.22900  1.0000 -0.0969098492
C   C31       1.0  0.74075  0.74075  0.25000  1.0000 -0.0267661253
C   C32       1.0  0.67943  0.67943  0.25000  1.0000 0.5582345573
C   C33       1.0  0.98967  0.22731  0.02450  1.0000 0.1602483716
C   C34       1.0  0.22731  0.98967  0.47550  1.0000 0.1602483716
C   C35       1.0  0.00578  0.31440  0.98410  1.0000 -0.19794464
C   C36       1.0  0.31440  0.00578  0.51590  1.0000 -0.19794464
C   C37       1.0  0.08379  0.31589  0.06360  1.0000 -0.1876422616
C   C38       1.0  0.31589  0.08379  0.43640  1.0000 -0.1876422616
C   C39       1.0  0.11795  0.22901  0.15510  1.0000 0.1602483716
C   C40       1.0  0.22901  0.11795  0.34490  1.0000 0.1602483716
C   C41       1.0  0.20039  0.20039  0.25000  1.0000 -0.113227837
C   C42       1.0  0.26199  0.26199  0.25000  1.0000 0.0882602146
C   C43       1.0  0.30123  0.28191  0.36540  1.0000 -0.1500007934
C   C44       1.0  0.28191  0.30123  0.13460  1.0000 -0.1500007934
C   C45       1.0  0.36030  0.33702  0.36620  1.0000 -0.0749277176
C   C46       1.0  0.33702  0.36030  0.13380  1.0000 -0.0770617321
C   C47       1.0  0.37746  0.37746  0.25000  1.0000 -0.0210367108
C   C48       1.0  0.43854  0.43854  0.25000  1.0000 0.5527587382
C   C49       1.0  0.31073  0.55597  0.51760  1.0000 0.5659763662
C   C50       1.0  0.55597  0.31073  0.98240  1.0000 0.5659763662
C   C51       1.0  0.25272  0.62060  0.39400  1.0000 -0.0122272556
C   C52       1.0  0.62060  0.25272  0.10600  1.0000 -0.0122272556
C   C53       1.0  0.19907  0.69747  0.39990  1.0000 -0.0969098492
C   C54       1.0  0.69747  0.19907  0.10010  1.0000 -0.0969098492
C   C55       1.0  0.14443  0.75687  0.28540  1.0000 -0.1654738339
C   C56       1.0  0.75687  0.14443  0.21460  1.0000 -0.1654738339
C   C57       1.0  0.14249  0.74097  0.16340  1.0000 0.0882602146
C   C58       1.0  0.74097  0.14249  0.33660  1.0000 0.0882602146
C   C59       1.0  0.19788  0.66462  0.15710  1.0000 -0.1500007934
C   C60       1.0  0.66462  0.19788  0.34290  1.0000 -0.1500007934
C   C61       1.0  0.25243  0.60443  0.27230  1.0000 -0.0770617321
C   C62       1.0  0.60443  0.25243  0.22770  1.0000 -0.0770617321
C   C63       1.0  0.08033  0.80357  0.04020  1.0000 -0.1187307673
C   C64       1.0  0.80357  0.08033  0.45980  1.0000 -0.1187307673
C   C65       1.0  0.09649  0.88783  0.99870  1.0000 0.1602483716
C   C66       1.0  0.88783  0.09649  0.50130  1.0000 0.1602483716
C   C67       1.0  0.16610  0.92266  0.06640  1.0000 -0.19794464
C   C68       1.0  0.92266  0.16610  0.43360  1.0000 -0.19794464
C   C69       1.0  0.16540  0.00124  0.98550  1.0000 -0.19794464
C   C70       1.0  0.00124  0.16540  0.51450  1.0000 -0.19794464
C   C71       1.0  0.09622  0.01586  0.86590  1.0000 0.1602483716
C   C72       1.0  0.01586  0.09622  0.63410  1.0000 0.1602483716
C   C73       1.0  0.08234  0.08234  0.75000  1.0000 -0.1252411159
C   C74       1.0  0.14409  0.14409  0.75000  1.0000 0.0882602146
C   C75       1.0  0.22674  0.11932  0.73000  1.0000 -0.1500007934
C   C76       1.0  0.11932  0.22674  0.77000  1.0000 -0.1500007934
C   C77       1.0  0.28406  0.17674  0.72900  1.0000 -0.0969098492
C   C78       1.0  0.17674  0.28406  0.77100  1.0000 -0.0969098492
C   C79       1.0  0.25925  0.25925  0.75000  1.0000 -0.0267661253
C   C80       1.0  0.32057  0.32057  0.75000  1.0000 0.5582345573
C   C81       1.0  0.01033  0.77269  0.97550  1.0000 0.1602483716
C   C82       1.0  0.77269  0.01033  0.52450  1.0000 0.1602483716
C   C83       1.0  0.99422  0.68560  0.01590  1.0000 -0.19794464
C   C84       1.0  0.68560  0.99422  0.48410  1.0000 -0.19794464
C   C85       1.0  0.91621  0.68411  0.93640  1.0000 -0.1876422616
C   C86       1.0  0.68411  0.91621  0.56360  1.0000 -0.1876422616
C   C87       1.0  0.88205  0.77099  0.84490  1.0000 0.1602483716
C   C88       1.0  0.77099  0.88205  0.65510  1.0000 0.1602483716
C   C89       1.0  0.79961  0.79961  0.75000  1.0000 -0.113227837
C   C90       1.0  0.73801  0.73801  0.75000  1.0000 0.0882602146
C   C91       1.0  0.69877  0.71809  0.63460  1.0000 -0.1500007934
C   C92       1.0  0.71809  0.69877  0.86540  1.0000 -0.1500007934
C   C93       1.0  0.63970  0.66298  0.63380  1.0000 -0.0770617321
C   C94       1.0  0.66298  0.63970  0.86620  1.0000 -0.0770617321
C   C95       1.0  0.62254  0.62254  0.75000  1.0000 -0.0210367108
C   C96       1.0  0.56146  0.56146  0.75000  1.0000 0.5527587382
N   N1        1.0  0.94650  0.05230  0.12080  1.0000 -0.3194229456
N   N2        1.0  0.05230  0.94650  0.37920  1.0000 -0.3194229456
N   N3        1.0  0.05786  0.17808  0.13080  1.0000 -0.3104810568
N   N4        1.0  0.17808  0.05786  0.36920  1.0000 -0.3104810568
N   N5        1.0  0.05350  0.94770  0.87920  1.0000 -0.3194229456
N   N6        1.0  0.94770  0.05350  0.62080  1.0000 -0.3194229456
N   N7        1.0  0.94214  0.82192  0.86920  1.0000 -0.3104810568
N   N8        1.0  0.82192  0.94214  0.63080  1.0000 -0.3104810568
O   O1        1.0  0.68644  0.42706  0.37240  1.0000 -0.5677080057
O   O2        1.0  0.42706  0.68644  0.12760  1.0000 -0.5677080057
O   O3        1.0  0.64208  0.51512  0.48683  1.0000 -0.5775706919
O   O4        1.0  0.51512  0.64208  0.01317  1.0000 -0.5775706919
O   O5        1.0  0.60477  0.70115  0.27170  1.0000 -0.5677080057
O   O6        1.0  0.70115  0.60477  0.22830  1.0000 -0.5677080057
O   O7        1.0  0.49745  0.43389  0.35338  1.0000 -0.5677080057
O   O8        1.0  0.43389  0.49745  0.14662  1.0000 -0.5677080057
O   O9        1.0  0.31356  0.57294  0.62760  1.0000 -0.5677080057
O   O10       1.0  0.57294  0.31356  0.87240  1.0000 -0.5677080057
O   O11       1.0  0.35792  0.48488  0.51317  1.0000 -0.5775706919
O   O12       1.0  0.48488  0.35792  0.98683  1.0000 -0.5775706919
O   O13       1.0  0.39523  0.29885  0.72830  1.0000 -0.5677080057
O   O14       1.0  0.29885  0.39523  0.77170  1.0000 -0.5677080057
O   O15       1.0  0.50255  0.56611  0.64662  1.0000 -0.5677080057
O   O16       1.0  0.56611  0.50255  0.85338  1.0000 -0.5677080057
