# DDEC6 charges by PACMAN v1.1 (https://github.com/mtap-research/PACMAN-charge/)
data_2023[Co][nan]3[ASR]16
_chemical_formula_sum              "Co18 H108 C224 N42 O90"
_cell_length_a       20.3608
_cell_length_b       20.3608
_cell_length_c       20.3608
_cell_angle_alpha    85.2807
_cell_angle_beta     85.2807
_cell_angle_gamma    85.2807

_symmetry_space_group_name_H-M    "P 1"
_symmetry_Int_Tables_number       1

loop_
  _symmetry_equiv_pos_as_xyz
  'x, y, z'

loop_
  _atom_site_type_symbol
  _atom_site_label
  _atom_site_symmetry_multiplicity
  _atom_site_fract_x
  _atom_site_fract_y
  _atom_site_fract_z
  _atom_site_occupancy
  _atom_site_charge
Co  Co1       1.0  0.92309  0.92309  0.44413  1.0000 0.8767748788
Co  Co2       1.0  0.92309  0.44413  0.92309  1.0000 0.8767748788
Co  Co3       1.0  0.44413  0.92309  0.92309  1.0000 0.8767748788
Co  Co4       1.0  0.07690  0.55587  0.07691  1.0000 0.8767748788
Co  Co5       1.0  0.07690  0.07691  0.55587  1.0000 0.8767748788
Co  Co6       1.0  0.55587  0.07691  0.07691  1.0000 0.8767748788
Co  Co7       1.0  0.97320  0.97320  0.27865  1.0000 1.048785837
Co  Co8       1.0  0.97320  0.27865  0.97319  1.0000 1.048785837
Co  Co9       1.0  0.27865  0.97320  0.97319  1.0000 1.0444197173
Co  Co10      1.0  0.02681  0.72135  0.02680  1.0000 1.048785837
Co  Co11      1.0  0.02681  0.02681  0.72135  1.0000 1.0444197173
Co  Co12      1.0  0.72135  0.02680  0.02680  1.0000 1.0444197173
Co  Co13      1.0  0.43653  0.98406  0.43653  1.0000 0.832805337
Co  Co14      1.0  0.98406  0.43653  0.43653  1.0000 0.832805337
Co  Co15      1.0  0.43653  0.43653  0.98406  1.0000 0.832805337
Co  Co16      1.0  0.56347  0.56347  0.01594  1.0000 0.832805337
Co  Co17      1.0  0.01594  0.56347  0.56347  1.0000 0.832805337
Co  Co18      1.0  0.56347  0.01594  0.56347  1.0000 0.832805337
H   H1        1.0  0.77625  0.00000  0.22375  1.0000 0.1392762641
H   H2        1.0  0.00000  0.22375  0.77625  1.0000 0.1392762641
H   H3        1.0  0.22375  0.77625  0.00000  1.0000 0.1392762641
H   H4        1.0  0.22375  0.00000  0.77625  1.0000 0.1392762641
H   H5        1.0  0.00000  0.77625  0.22375  1.0000 0.1392762641
H   H6        1.0  0.77625  0.22375  0.00000  1.0000 0.1392762641
H   H7        1.0  0.71710  0.98270  0.41910  1.0000 0.1219642058
H   H8        1.0  0.98270  0.41910  0.71710  1.0000 0.1219642058
H   H9        1.0  0.41910  0.71710  0.98270  1.0000 0.1219642058
H   H10       1.0  0.28290  0.58090  0.01730  1.0000 0.1219642058
H   H11       1.0  0.01730  0.28290  0.58090  1.0000 0.1219642058
H   H12       1.0  0.58090  0.01730  0.28290  1.0000 0.1219642058
H   H13       1.0  0.28290  0.01730  0.58090  1.0000 0.1219642058
H   H14       1.0  0.01730  0.58090  0.28290  1.0000 0.1219642058
H   H15       1.0  0.58090  0.28290  0.01730  1.0000 0.1219642058
H   H16       1.0  0.71710  0.41910  0.98270  1.0000 0.1219642058
H   H17       1.0  0.98270  0.71710  0.41910  1.0000 0.1219642058
H   H18       1.0  0.41910  0.98270  0.71710  1.0000 0.1219642058
H   H19       1.0  0.93210  0.78980  0.52540  1.0000 0.1219642058
H   H20       1.0  0.78980  0.52540  0.93210  1.0000 0.1219642058
H   H21       1.0  0.52540  0.93210  0.78980  1.0000 0.1219642058
H   H22       1.0  0.06790  0.47460  0.21020  1.0000 0.1219642058
H   H23       1.0  0.21020  0.06790  0.47460  1.0000 0.1219642058
H   H24       1.0  0.47460  0.21020  0.06790  1.0000 0.1219642058
H   H25       1.0  0.06790  0.21020  0.47460  1.0000 0.1219642058
H   H26       1.0  0.21020  0.47460  0.06790  1.0000 0.1219642058
H   H27       1.0  0.47460  0.06790  0.21020  1.0000 0.1219642058
H   H28       1.0  0.93210  0.52540  0.78980  1.0000 0.1219642058
H   H29       1.0  0.78980  0.93210  0.52540  1.0000 0.1219642058
H   H30       1.0  0.52540  0.78980  0.93210  1.0000 0.1219642058
H   H31       1.0  0.96960  0.17920  0.17920  1.0000 0.1492796258
H   H32       1.0  0.17920  0.17920  0.96960  1.0000 0.1492796258
H   H33       1.0  0.17920  0.96960  0.17920  1.0000 0.1492796258
H   H34       1.0  0.03040  0.82080  0.82080  1.0000 0.1492796258
H   H35       1.0  0.82080  0.03040  0.82080  1.0000 0.1492796258
H   H36       1.0  0.82080  0.82080  0.03040  1.0000 0.1492796258
H   H37       1.0  0.88380  0.73740  0.62070  1.0000 0.1392762641
H   H38       1.0  0.73740  0.62070  0.88380  1.0000 0.1392762641
H   H39       1.0  0.62070  0.88380  0.73740  1.0000 0.1392762641
H   H40       1.0  0.11620  0.37930  0.26260  1.0000 0.1392762641
H   H41       1.0  0.26260  0.11620  0.37930  1.0000 0.1392762641
H   H42       1.0  0.37930  0.26260  0.11620  1.0000 0.1392762641
H   H43       1.0  0.11620  0.26260  0.37930  1.0000 0.1392762641
H   H44       1.0  0.26260  0.37930  0.11620  1.0000 0.1392762641
H   H45       1.0  0.37930  0.11620  0.26260  1.0000 0.1392762641
H   H46       1.0  0.88380  0.62070  0.73740  1.0000 0.1392762641
H   H47       1.0  0.73740  0.88380  0.62070  1.0000 0.1392762641
H   H48       1.0  0.62070  0.73740  0.88380  1.0000 0.1392762641
H   H49       1.0  0.97630  0.22340  0.36920  1.0000 0.1252713914
H   H50       1.0  0.22340  0.36920  0.97630  1.0000 0.1219642058
H   H51       1.0  0.36920  0.97630  0.22340  1.0000 0.1219642058
H   H52       1.0  0.02370  0.63080  0.77660  1.0000 0.1252713914
H   H53       1.0  0.77660  0.02370  0.63080  1.0000 0.1219642058
H   H54       1.0  0.63080  0.77660  0.02370  1.0000 0.1219642058
H   H55       1.0  0.02370  0.77660  0.63080  1.0000 0.1219642058
H   H56       1.0  0.77660  0.63080  0.02370  1.0000 0.1252713914
H   H57       1.0  0.63080  0.02370  0.77660  1.0000 0.1219642058
H   H58       1.0  0.97630  0.36920  0.22340  1.0000 0.1219642058
H   H59       1.0  0.22340  0.97630  0.36920  1.0000 0.1219642058
H   H60       1.0  0.36920  0.22340  0.97630  1.0000 0.1219642058
H   H61       1.0  0.49720  0.09940  0.35520  1.0000 0.1080208727
H   H62       1.0  0.09940  0.35520  0.49720  1.0000 0.1080208727
H   H63       1.0  0.35520  0.49720  0.09940  1.0000 0.1080208727
H   H64       1.0  0.50280  0.64480  0.90060  1.0000 0.1080208727
H   H65       1.0  0.90060  0.50280  0.64480  1.0000 0.1080208727
H   H66       1.0  0.64480  0.90060  0.50280  1.0000 0.1080208727
H   H67       1.0  0.50280  0.90060  0.64480  1.0000 0.1080208727
H   H68       1.0  0.90060  0.64480  0.50280  1.0000 0.1080208727
H   H69       1.0  0.64480  0.50280  0.90060  1.0000 0.1080208727
H   H70       1.0  0.49720  0.35520  0.09940  1.0000 0.1080208727
H   H71       1.0  0.09940  0.49720  0.35520  1.0000 0.1080208727
H   H72       1.0  0.35520  0.09940  0.49720  1.0000 0.1080208727
H   H73       1.0  0.47500  0.21040  0.32790  1.0000 0.1392762641
H   H74       1.0  0.21040  0.32790  0.47500  1.0000 0.1392762641
H   H75       1.0  0.32790  0.47500  0.21040  1.0000 0.1392762641
H   H76       1.0  0.52500  0.67210  0.78960  1.0000 0.1392762641
H   H77       1.0  0.78960  0.52500  0.67210  1.0000 0.1392762641
H   H78       1.0  0.67210  0.78960  0.52500  1.0000 0.1392762641
H   H79       1.0  0.52500  0.78960  0.67210  1.0000 0.1392762641
H   H80       1.0  0.78960  0.67210  0.52500  1.0000 0.1392762641
H   H81       1.0  0.67210  0.52500  0.78960  1.0000 0.1392762641
H   H82       1.0  0.47500  0.32790  0.21040  1.0000 0.1392762641
H   H83       1.0  0.21040  0.47500  0.32790  1.0000 0.1392762641
H   H84       1.0  0.32790  0.21040  0.47500  1.0000 0.1392762641
H   H85       1.0  0.38300  0.86870  0.52040  1.0000 0.1219642058
H   H86       1.0  0.86870  0.52040  0.38300  1.0000 0.1219642058
H   H87       1.0  0.52040  0.38300  0.86870  1.0000 0.1219642058
H   H88       1.0  0.61700  0.47960  0.13130  1.0000 0.1219642058
H   H89       1.0  0.13130  0.61700  0.47960  1.0000 0.1219642058
H   H90       1.0  0.47960  0.13130  0.61700  1.0000 0.1219642058
H   H91       1.0  0.61700  0.13130  0.47960  1.0000 0.1219642058
H   H92       1.0  0.13130  0.47960  0.61700  1.0000 0.1219642058
H   H93       1.0  0.47960  0.61700  0.13130  1.0000 0.1219642058
H   H94       1.0  0.38300  0.52040  0.86870  1.0000 0.1219642058
H   H95       1.0  0.86870  0.38300  0.52040  1.0000 0.1219642058
H   H96       1.0  0.52040  0.86870  0.38300  1.0000 0.1219642058
H   H97       1.0  0.41920  0.76750  0.56530  1.0000 0.1392762641
H   H98       1.0  0.76750  0.56530  0.41920  1.0000 0.1392762641
H   H99       1.0  0.56530  0.41920  0.76750  1.0000 0.1392762641
H   H100      1.0  0.58080  0.43470  0.23250  1.0000 0.1392762641
H   H101      1.0  0.23250  0.58080  0.43470  1.0000 0.1392762641
H   H102      1.0  0.43470  0.23250  0.58080  1.0000 0.1392762641
H   H103      1.0  0.58080  0.23250  0.43470  1.0000 0.1392762641
H   H104      1.0  0.23250  0.43470  0.58080  1.0000 0.1392762641
H   H105      1.0  0.43470  0.58080  0.23250  1.0000 0.1392762641
H   H106      1.0  0.41920  0.56530  0.76750  1.0000 0.1392762641
H   H107      1.0  0.76750  0.41920  0.56530  1.0000 0.1392762641
H   H108      1.0  0.56530  0.76750  0.41920  1.0000 0.1392762641
C   C1        1.0  0.74175  0.00000  0.25825  1.0000 -0.087707551
C   C2        1.0  0.00000  0.25825  0.74175  1.0000 -0.087707551
C   C3        1.0  0.25825  0.74175  0.00000  1.0000 -0.087707551
C   C4        1.0  0.25825  0.00000  0.74175  1.0000 -0.087707551
C   C5        1.0  0.00000  0.74175  0.25825  1.0000 -0.087707551
C   C6        1.0  0.74175  0.25825  0.00000  1.0000 -0.087707551
C   C7        1.0  0.64085  0.00000  0.35915  1.0000 -0.0413675455
C   C8        1.0  0.00000  0.35915  0.64085  1.0000 -0.0413675455
C   C9        1.0  0.35915  0.64085  0.00000  1.0000 -0.0413675455
C   C10       1.0  0.35915  0.00000  0.64085  1.0000 -0.0413675455
C   C11       1.0  0.00000  0.64085  0.35915  1.0000 -0.0413675455
C   C12       1.0  0.64085  0.35915  0.00000  1.0000 -0.0413675455
C   C13       1.0  0.75754  0.98751  0.32315  1.0000 -0.0144208192
C   C14       1.0  0.98751  0.32315  0.75754  1.0000 -0.0144208192
C   C15       1.0  0.32315  0.75754  0.98751  1.0000 -0.0174169624
C   C16       1.0  0.24246  0.67685  0.01249  1.0000 -0.0144208192
C   C17       1.0  0.01249  0.24246  0.67685  1.0000 -0.0174169624
C   C18       1.0  0.67685  0.01249  0.24246  1.0000 -0.0144208192
C   C19       1.0  0.24246  0.01249  0.67685  1.0000 -0.0174169624
C   C20       1.0  0.01249  0.67685  0.24246  1.0000 -0.0144208192
C   C21       1.0  0.67685  0.24246  0.01249  1.0000 -0.0174169624
C   C22       1.0  0.75754  0.32315  0.98751  1.0000 -0.0144208192
C   C23       1.0  0.98751  0.75754  0.32315  1.0000 -0.0144208192
C   C24       1.0  0.32315  0.98751  0.75754  1.0000 -0.0174169624
C   C25       1.0  0.82847  0.97244  0.33854  1.0000 0.6070950543
C   C26       1.0  0.97244  0.33854  0.82847  1.0000 0.6070950543
C   C27       1.0  0.33854  0.82847  0.97244  1.0000 0.6070950543
C   C28       1.0  0.17153  0.66146  0.02756  1.0000 0.6070950543
C   C29       1.0  0.02756  0.17153  0.66146  1.0000 0.6070950543
C   C30       1.0  0.66146  0.02756  0.17153  1.0000 0.6070950543
C   C31       1.0  0.17153  0.02756  0.66146  1.0000 0.6070950543
C   C32       1.0  0.02756  0.66146  0.17153  1.0000 0.6070950543
C   C33       1.0  0.66146  0.17153  0.02756  1.0000 0.6070950543
C   C34       1.0  0.82847  0.33854  0.97244  1.0000 0.6070950543
C   C35       1.0  0.97244  0.82847  0.33854  1.0000 0.6070950543
C   C36       1.0  0.33854  0.97244  0.82847  1.0000 0.6070950543
C   C37       1.0  0.70663  0.98908  0.37423  1.0000 -0.1259109133
C   C38       1.0  0.98908  0.37423  0.70663  1.0000 -0.1259109133
C   C39       1.0  0.37423  0.70663  0.98908  1.0000 -0.1259109133
C   C40       1.0  0.29337  0.62577  0.01092  1.0000 -0.1259109133
C   C41       1.0  0.01092  0.29337  0.62577  1.0000 -0.1259109133
C   C42       1.0  0.62577  0.01092  0.29337  1.0000 -0.1259109133
C   C43       1.0  0.29337  0.01092  0.62577  1.0000 -0.1259109133
C   C44       1.0  0.01092  0.62577  0.29337  1.0000 -0.1259109133
C   C45       1.0  0.62577  0.29337  0.01092  1.0000 -0.1259109133
C   C46       1.0  0.70663  0.37423  0.98908  1.0000 -0.1259109133
C   C47       1.0  0.98908  0.70663  0.37423  1.0000 -0.1259109133
C   C48       1.0  0.37423  0.98908  0.70663  1.0000 -0.1259109133
C   C49       1.0  0.89251  0.80973  0.54566  1.0000 0.0979140701
C   C50       1.0  0.80973  0.54566  0.89251  1.0000 0.0979140701
C   C51       1.0  0.54566  0.89251  0.80973  1.0000 0.0979140701
C   C52       1.0  0.10749  0.45434  0.19027  1.0000 0.0979140701
C   C53       1.0  0.19027  0.10749  0.45434  1.0000 0.0979140701
C   C54       1.0  0.45434  0.19027  0.10749  1.0000 0.0979140701
C   C55       1.0  0.10749  0.19027  0.45434  1.0000 0.0979140701
C   C56       1.0  0.19027  0.45434  0.10749  1.0000 0.0979140701
C   C57       1.0  0.45434  0.10749  0.19027  1.0000 0.0979140701
C   C58       1.0  0.89251  0.54566  0.80973  1.0000 0.0979140701
C   C59       1.0  0.80973  0.89251  0.54566  1.0000 0.0979140701
C   C60       1.0  0.54566  0.80973  0.89251  1.0000 0.0979140701
C   C61       1.0  0.58665  0.00000  0.41335  1.0000 0.5648926015
C   C62       1.0  0.00000  0.41335  0.58665  1.0000 0.5651570673
C   C63       1.0  0.41335  0.58665  0.00000  1.0000 0.5648926015
C   C64       1.0  0.41335  0.00000  0.58665  1.0000 0.5648926015
C   C65       1.0  0.00000  0.58665  0.41335  1.0000 0.5648926015
C   C66       1.0  0.58665  0.41335  0.00000  1.0000 0.5648926015
C   C67       1.0  0.80595  0.80595  0.63180  1.0000 0.0509731384
C   C68       1.0  0.80595  0.63180  0.80595  1.0000 0.0509731384
C   C69       1.0  0.63180  0.80595  0.80595  1.0000 0.0509731384
C   C70       1.0  0.19405  0.36820  0.19405  1.0000 0.0509731384
C   C71       1.0  0.19405  0.19405  0.36820  1.0000 0.0509731384
C   C72       1.0  0.36820  0.19405  0.19405  1.0000 0.0509731384
C   C73       1.0  0.97628  0.30276  0.30276  1.0000 -0.0029839888
C   C74       1.0  0.30276  0.30276  0.97628  1.0000 -0.0029839888
C   C75       1.0  0.30276  0.97628  0.30276  1.0000 -0.0029839888
C   C76       1.0  0.02372  0.69724  0.69724  1.0000 -0.0029839888
C   C77       1.0  0.69724  0.02372  0.69724  1.0000 -0.0029839888
C   C78       1.0  0.69724  0.69724  0.02372  1.0000 -0.0029839888
C   C79       1.0  0.97108  0.21077  0.21077  1.0000 -0.087707551
C   C80       1.0  0.21077  0.21077  0.97108  1.0000 -0.087707551
C   C81       1.0  0.21077  0.97108  0.21077  1.0000 -0.087707551
C   C82       1.0  0.02892  0.78923  0.78923  1.0000 -0.087707551
C   C83       1.0  0.78923  0.02892  0.78923  1.0000 -0.087707551
C   C84       1.0  0.78923  0.78923  0.02892  1.0000 -0.087707551
C   C85       1.0  0.97222  0.18991  0.27780  1.0000 -0.0174169624
C   C86       1.0  0.18991  0.27780  0.97222  1.0000 -0.0174169624
C   C87       1.0  0.27780  0.97222  0.18991  1.0000 -0.0174169624
C   C88       1.0  0.02778  0.72220  0.81009  1.0000 -0.0174169624
C   C89       1.0  0.81009  0.02778  0.72220  1.0000 -0.0174169624
C   C90       1.0  0.72220  0.81009  0.02778  1.0000 -0.0174169624
C   C91       1.0  0.02778  0.81009  0.72220  1.0000 -0.0174169624
C   C92       1.0  0.81009  0.72220  0.02778  1.0000 -0.0174169624
C   C93       1.0  0.72220  0.02778  0.81009  1.0000 -0.0174169624
C   C94       1.0  0.97222  0.27780  0.18991  1.0000 -0.0174169624
C   C95       1.0  0.18991  0.97222  0.27780  1.0000 -0.0174169624
C   C96       1.0  0.27780  0.18991  0.97222  1.0000 -0.0174169624
C   C97       1.0  0.86386  0.77785  0.60235  1.0000 -0.1542310277
C   C98       1.0  0.77785  0.60235  0.86386  1.0000 -0.1542310277
C   C99       1.0  0.60235  0.86386  0.77785  1.0000 -0.1542310277
C   C100      1.0  0.13614  0.39765  0.22215  1.0000 -0.1542310277
C   C101      1.0  0.22215  0.13614  0.39765  1.0000 -0.1542310277
C   C102      1.0  0.39765  0.22215  0.13614  1.0000 -0.1542310277
C   C103      1.0  0.13614  0.22215  0.39765  1.0000 -0.1542310277
C   C104      1.0  0.22215  0.39765  0.13614  1.0000 -0.1542310277
C   C105      1.0  0.39765  0.13614  0.22215  1.0000 -0.1542310277
C   C106      1.0  0.86386  0.60235  0.77785  1.0000 -0.1542310277
C   C107      1.0  0.77785  0.86386  0.60235  1.0000 -0.1542310277
C   C108      1.0  0.60235  0.77785  0.86386  1.0000 -0.1542310277
C   C109      1.0  0.98026  0.35207  0.35207  1.0000 0.5406580682
C   C110      1.0  0.35207  0.35207  0.98026  1.0000 0.5406580682
C   C111      1.0  0.35207  0.98026  0.35207  1.0000 0.5406580682
C   C112      1.0  0.01974  0.64793  0.64793  1.0000 0.5406580682
C   C113      1.0  0.64793  0.01974  0.64793  1.0000 0.5406580682
C   C114      1.0  0.64793  0.64793  0.01974  1.0000 0.5406580682
C   C115      1.0  0.77355  0.77355  0.69150  1.0000 0.3709261151
C   C116      1.0  0.77355  0.69150  0.77355  1.0000 0.3709261151
C   C117      1.0  0.69150  0.77355  0.77355  1.0000 0.3709261151
C   C118      1.0  0.22645  0.30850  0.22645  1.0000 0.3709261151
C   C119      1.0  0.22645  0.22645  0.30850  1.0000 0.3709261151
C   C120      1.0  0.30850  0.22645  0.22645  1.0000 0.3709261151
C   C121      1.0  0.97514  0.23704  0.32354  1.0000 -0.1241460422
C   C122      1.0  0.23704  0.32354  0.97514  1.0000 -0.1241460422
C   C123      1.0  0.32354  0.97514  0.23704  1.0000 -0.1241460422
C   C124      1.0  0.02486  0.67646  0.76296  1.0000 -0.1241460422
C   C125      1.0  0.76296  0.02486  0.67646  1.0000 -0.1241460422
C   C126      1.0  0.67646  0.76296  0.02486  1.0000 -0.1259109133
C   C127      1.0  0.02486  0.76296  0.67646  1.0000 -0.1259109133
C   C128      1.0  0.76296  0.67646  0.02486  1.0000 -0.1241460422
C   C129      1.0  0.67646  0.02486  0.76296  1.0000 -0.1259109133
C   C130      1.0  0.97514  0.32354  0.23704  1.0000 -0.1241460422
C   C131      1.0  0.23704  0.97514  0.32354  1.0000 -0.1241460422
C   C132      1.0  0.32354  0.23704  0.97514  1.0000 -0.1259109133
C   C133      1.0  0.46170  0.12250  0.37900  1.0000 0.0795115468
C   C134      1.0  0.12250  0.37900  0.46170  1.0000 0.0795115468
C   C135      1.0  0.37900  0.46170  0.12250  1.0000 0.0795115468
C   C136      1.0  0.53830  0.62100  0.87750  1.0000 0.0795115468
C   C137      1.0  0.87750  0.53830  0.62100  1.0000 0.0795115468
C   C138      1.0  0.62100  0.87750  0.53830  1.0000 0.0795115468
C   C139      1.0  0.53830  0.87750  0.62100  1.0000 0.0795115468
C   C140      1.0  0.87750  0.62100  0.53830  1.0000 0.0795115468
C   C141      1.0  0.62100  0.53830  0.87750  1.0000 0.0795115468
C   C142      1.0  0.46170  0.37900  0.12250  1.0000 0.0795115468
C   C143      1.0  0.12250  0.46170  0.37900  1.0000 0.0795115468
C   C144      1.0  0.37900  0.12250  0.46170  1.0000 0.0795115468
C   C145      1.0  0.97143  0.11793  0.30083  1.0000 0.468482024
C   C146      1.0  0.11793  0.30083  0.97143  1.0000 0.468482024
C   C147      1.0  0.30083  0.97143  0.11793  1.0000 0.468482024
C   C148      1.0  0.02857  0.69917  0.88207  1.0000 0.468482024
C   C149      1.0  0.88207  0.02857  0.69917  1.0000 0.468482024
C   C150      1.0  0.69917  0.88207  0.02857  1.0000 0.468482024
C   C151      1.0  0.02857  0.88207  0.69917  1.0000 0.468482024
C   C152      1.0  0.88207  0.69917  0.02857  1.0000 0.468482024
C   C153      1.0  0.69917  0.02857  0.88207  1.0000 0.468482024
C   C154      1.0  0.97143  0.30083  0.11793  1.0000 0.468482024
C   C155      1.0  0.11793  0.97143  0.30083  1.0000 0.468482024
C   C156      1.0  0.30083  0.11793  0.97143  1.0000 0.468482024
C   C157      1.0  0.44830  0.18790  0.36150  1.0000 -0.1612123118
C   C158      1.0  0.18790  0.36150  0.44830  1.0000 -0.1612123118
C   C159      1.0  0.36150  0.44830  0.18790  1.0000 -0.1612123118
C   C160      1.0  0.55170  0.63850  0.81210  1.0000 -0.1612123118
C   C161      1.0  0.81210  0.55170  0.63850  1.0000 -0.1612123118
C   C162      1.0  0.63850  0.81210  0.55170  1.0000 -0.1612123118
C   C163      1.0  0.55170  0.81210  0.63850  1.0000 -0.1612123118
C   C164      1.0  0.81210  0.63850  0.55170  1.0000 -0.1612123118
C   C165      1.0  0.63850  0.55170  0.81210  1.0000 -0.1612123118
C   C166      1.0  0.44830  0.36150  0.18790  1.0000 -0.1612123118
C   C167      1.0  0.18790  0.44830  0.36150  1.0000 -0.1612123118
C   C168      1.0  0.36150  0.18790  0.44830  1.0000 -0.1612123118
C   C169      1.0  0.39415  0.22080  0.39415  1.0000 0.0509731384
C   C170      1.0  0.22080  0.39415  0.39415  1.0000 0.0509731384
C   C171      1.0  0.39415  0.39415  0.22080  1.0000 0.0509731384
C   C172      1.0  0.60585  0.60585  0.77920  1.0000 0.0509731384
C   C173      1.0  0.77920  0.60585  0.60585  1.0000 0.0509731384
C   C174      1.0  0.60585  0.77920  0.60585  1.0000 0.0509731384
C   C175      1.0  0.37075  0.28740  0.37075  1.0000 0.3709261151
C   C176      1.0  0.28740  0.37075  0.37075  1.0000 0.3709261151
C   C177      1.0  0.37075  0.37075  0.28740  1.0000 0.3709261151
C   C178      1.0  0.62925  0.62925  0.71260  1.0000 0.3709261151
C   C179      1.0  0.71260  0.62925  0.62925  1.0000 0.3709261151
C   C180      1.0  0.62925  0.71260  0.62925  1.0000 0.3709261151
C   C181      1.0  0.42130  0.84730  0.49930  1.0000 0.0795115468
C   C182      1.0  0.84730  0.49930  0.42130  1.0000 0.0795115468
C   C183      1.0  0.49930  0.42130  0.84730  1.0000 0.0795115468
C   C184      1.0  0.57870  0.50070  0.15270  1.0000 0.0795115468
C   C185      1.0  0.15270  0.57870  0.50070  1.0000 0.0795115468
C   C186      1.0  0.50070  0.15270  0.57870  1.0000 0.0795115468
C   C187      1.0  0.57870  0.15270  0.50070  1.0000 0.0795115468
C   C188      1.0  0.15270  0.50070  0.57870  1.0000 0.0795115468
C   C189      1.0  0.50070  0.57870  0.15270  1.0000 0.0795115468
C   C190      1.0  0.42130  0.49930  0.84730  1.0000 0.0795115468
C   C191      1.0  0.84730  0.42130  0.49930  1.0000 0.0795115468
C   C192      1.0  0.49930  0.84730  0.42130  1.0000 0.0795115468
C   C193      1.0  0.49330  0.75340  0.49330  1.0000 0.0576140175
C   C194      1.0  0.75340  0.49330  0.49330  1.0000 0.0576140175
C   C195      1.0  0.49330  0.49330  0.75340  1.0000 0.0576140175
C   C196      1.0  0.50670  0.50670  0.24660  1.0000 0.0576140175
C   C197      1.0  0.24660  0.50670  0.50670  1.0000 0.0576140175
C   C198      1.0  0.50670  0.24660  0.50670  1.0000 0.0576140175
C   C199      1.0  0.44090  0.78640  0.52590  1.0000 -0.1612123118
C   C200      1.0  0.78640  0.52590  0.44090  1.0000 -0.1612123118
C   C201      1.0  0.52590  0.44090  0.78640  1.0000 -0.1612123118
C   C202      1.0  0.55910  0.47410  0.21360  1.0000 -0.1612123118
C   C203      1.0  0.21360  0.55910  0.47410  1.0000 -0.1612123118
C   C204      1.0  0.47410  0.21360  0.55910  1.0000 -0.1612123118
C   C205      1.0  0.55910  0.21360  0.47410  1.0000 -0.1612123118
C   C206      1.0  0.21360  0.47410  0.55910  1.0000 -0.1612123118
C   C207      1.0  0.47410  0.55910  0.21360  1.0000 -0.1612123118
C   C208      1.0  0.44090  0.52590  0.78640  1.0000 -0.1612123118
C   C209      1.0  0.78640  0.44090  0.52590  1.0000 -0.1612123118
C   C210      1.0  0.52590  0.78640  0.44090  1.0000 -0.1612123118
C   C211      1.0  0.58110  0.58110  0.58110  1.0000 -0.2119761144
C   C212      1.0  0.41890  0.41890  0.41890  1.0000 -0.2119761144
C   C213      1.0  0.51980  0.60680  0.60680  1.0000 0.3709261151
C   C214      1.0  0.60680  0.60680  0.51980  1.0000 0.3709261151
C   C215      1.0  0.60680  0.51980  0.60680  1.0000 0.3709261151
C   C216      1.0  0.48020  0.39320  0.39320  1.0000 0.3709261151
C   C217      1.0  0.39320  0.48020  0.39320  1.0000 0.3709261151
C   C218      1.0  0.39320  0.39320  0.48020  1.0000 0.3709261151
C   C219      1.0  0.52235  0.69050  0.52235  1.0000 0.3486515994
C   C220      1.0  0.69050  0.52235  0.52235  1.0000 0.3486515994
C   C221      1.0  0.52235  0.52235  0.69050  1.0000 0.3486515994
C   C222      1.0  0.47765  0.47765  0.30950  1.0000 0.3486515994
C   C223      1.0  0.30950  0.47765  0.47765  1.0000 0.3486515994
C   C224      1.0  0.47765  0.30950  0.47765  1.0000 0.3486515994
N   N1        1.0  0.86719  0.86718  0.51824  1.0000 -0.2405490273
N   N2        1.0  0.86719  0.51824  0.86718  1.0000 -0.2405490273
N   N3        1.0  0.51824  0.86718  0.86718  1.0000 -0.2450971191
N   N4        1.0  0.13281  0.48176  0.13281  1.0000 -0.2405490273
N   N5        1.0  0.13282  0.13281  0.48176  1.0000 -0.2405490273
N   N6        1.0  0.48176  0.13281  0.13281  1.0000 -0.2405490273
N   N7        1.0  0.80484  0.71793  0.71793  1.0000 -0.3892872915
N   N8        1.0  0.71793  0.71793  0.80484  1.0000 -0.3892872915
N   N9        1.0  0.71793  0.80484  0.71793  1.0000 -0.3892872915
N   N10       1.0  0.19516  0.28207  0.28207  1.0000 -0.3892872915
N   N11       1.0  0.28207  0.19516  0.28207  1.0000 -0.3892872915
N   N12       1.0  0.28207  0.28207  0.19516  1.0000 -0.3892872915
N   N13       1.0  0.42790  0.08910  0.42790  1.0000 -0.2405490273
N   N14       1.0  0.08910  0.42790  0.42790  1.0000 -0.2405490273
N   N15       1.0  0.42790  0.42790  0.08910  1.0000 -0.2405490273
N   N16       1.0  0.57210  0.57210  0.91090  1.0000 -0.2405490273
N   N17       1.0  0.91090  0.57210  0.57210  1.0000 -0.2405490273
N   N18       1.0  0.57210  0.91090  0.57210  1.0000 -0.2405490273
N   N19       1.0  0.44865  0.87930  0.44865  1.0000 -0.2231693501
N   N20       1.0  0.87930  0.44865  0.44865  1.0000 -0.2231693501
N   N21       1.0  0.44865  0.44865  0.87930  1.0000 -0.2231693501
N   N22       1.0  0.55135  0.55135  0.12070  1.0000 -0.2231693501
N   N23       1.0  0.12070  0.55135  0.55135  1.0000 -0.2231693501
N   N24       1.0  0.55135  0.12070  0.55135  1.0000 -0.2231693501
N   N25       1.0  0.31420  0.31420  0.40140  1.0000 -0.4285572852
N   N26       1.0  0.31420  0.40140  0.31420  1.0000 -0.4285572852
N   N27       1.0  0.40140  0.31420  0.31420  1.0000 -0.4285572852
N   N28       1.0  0.68580  0.59860  0.68580  1.0000 -0.4285572852
N   N29       1.0  0.68580  0.68580  0.59860  1.0000 -0.4285572852
N   N30       1.0  0.59860  0.68580  0.68580  1.0000 -0.4285572852
N   N31       1.0  0.49190  0.66610  0.57870  1.0000 -0.3965157976
N   N32       1.0  0.66610  0.57870  0.49190  1.0000 -0.3965157976
N   N33       1.0  0.57870  0.49190  0.66610  1.0000 -0.3965157976
N   N34       1.0  0.50810  0.42130  0.33390  1.0000 -0.3965157976
N   N35       1.0  0.33390  0.50810  0.42130  1.0000 -0.3965157976
N   N36       1.0  0.42130  0.33390  0.50810  1.0000 -0.3965157976
N   N37       1.0  0.50810  0.33390  0.42130  1.0000 -0.3965157976
N   N38       1.0  0.33390  0.42130  0.50810  1.0000 -0.3965157976
N   N39       1.0  0.42130  0.50810  0.33390  1.0000 -0.3965157976
N   N40       1.0  0.49190  0.57870  0.66610  1.0000 -0.3965157976
N   N41       1.0  0.66610  0.49190  0.57870  1.0000 -0.3965157976
N   N42       1.0  0.57870  0.66610  0.49190  1.0000 -0.3965157976
O   O1        1.0  0.83888  0.95162  0.39728  1.0000 -0.5583470201
O   O2        1.0  0.95162  0.39728  0.83888  1.0000 -0.5583470201
O   O3        1.0  0.39728  0.83888  0.95162  1.0000 -0.5583470201
O   O4        1.0  0.16112  0.60272  0.04838  1.0000 -0.5583470201
O   O5        1.0  0.04838  0.16112  0.60272  1.0000 -0.5583470201
O   O6        1.0  0.60272  0.04838  0.16112  1.0000 -0.5583470201
O   O7        1.0  0.16112  0.04838  0.60272  1.0000 -0.5583470201
O   O8        1.0  0.04838  0.60272  0.16112  1.0000 -0.5583470201
O   O9        1.0  0.60272  0.16112  0.04838  1.0000 -0.5583470201
O   O10       1.0  0.83888  0.39728  0.95162  1.0000 -0.5583470201
O   O11       1.0  0.95162  0.83888  0.39728  1.0000 -0.5583470201
O   O12       1.0  0.39728  0.95162  0.83888  1.0000 -0.5583470201
O   O13       1.0  0.87182  0.98051  0.29201  1.0000 -0.5426790401
O   O14       1.0  0.98051  0.29201  0.87182  1.0000 -0.5426790401
O   O15       1.0  0.29201  0.87182  0.98051  1.0000 -0.5426790401
O   O16       1.0  0.12818  0.70799  0.01949  1.0000 -0.5426790401
O   O17       1.0  0.01949  0.12818  0.70799  1.0000 -0.5426790401
O   O18       1.0  0.70799  0.01949  0.12818  1.0000 -0.5426790401
O   O19       1.0  0.12818  0.01949  0.70799  1.0000 -0.5426790401
O   O20       1.0  0.01949  0.70799  0.12818  1.0000 -0.5426790401
O   O21       1.0  0.70799  0.12818  0.01949  1.0000 -0.5426790401
O   O22       1.0  0.87182  0.29201  0.98051  1.0000 -0.5426790401
O   O23       1.0  0.98051  0.87182  0.29201  1.0000 -0.5426790401
O   O24       1.0  0.29201  0.98051  0.87182  1.0000 -0.5426790401
O   O25       1.0  0.97291  0.07713  0.26062  1.0000 -0.4285572852
O   O26       1.0  0.07713  0.26062  0.97291  1.0000 -0.4285572852
O   O27       1.0  0.26062  0.97291  0.07713  1.0000 -0.4285572852
O   O28       1.0  0.02709  0.73938  0.92287  1.0000 -0.4285572852
O   O29       1.0  0.92287  0.02709  0.73938  1.0000 -0.4285572852
O   O30       1.0  0.73938  0.92287  0.02709  1.0000 -0.4285572852
O   O31       1.0  0.02709  0.92287  0.73938  1.0000 -0.4285572852
O   O32       1.0  0.92287  0.73938  0.02709  1.0000 -0.4285572852
O   O33       1.0  0.73938  0.02709  0.92287  1.0000 -0.4285572852
O   O34       1.0  0.97291  0.26062  0.07713  1.0000 -0.4285572852
O   O35       1.0  0.07713  0.97291  0.26062  1.0000 -0.4285572852
O   O36       1.0  0.26062  0.07713  0.97291  1.0000 -0.4285572852
O   O37       1.0  0.98242  0.98242  0.38099  1.0000 -0.5583470201
O   O38       1.0  0.98242  0.38099  0.98241  1.0000 -0.5651178842
O   O39       1.0  0.38099  0.98242  0.98241  1.0000 -0.5651178842
O   O40       1.0  0.01759  0.61901  0.01758  1.0000 -0.5583470201
O   O41       1.0  0.01759  0.01758  0.61901  1.0000 -0.5583470201
O   O42       1.0  0.61901  0.01758  0.01758  1.0000 -0.5583470201
O   O43       1.0  0.53164  0.98368  0.39952  1.0000 -0.5426790401
O   O44       1.0  0.98368  0.39952  0.53164  1.0000 -0.5426790401
O   O45       1.0  0.39952  0.53164  0.98368  1.0000 -0.5426790401
O   O46       1.0  0.46836  0.60048  0.01632  1.0000 -0.5426790401
O   O47       1.0  0.01632  0.46836  0.60048  1.0000 -0.5426790401
O   O48       1.0  0.60048  0.01632  0.46836  1.0000 -0.5426790401
O   O49       1.0  0.46836  0.01632  0.60048  1.0000 -0.5426790401
O   O50       1.0  0.01632  0.60048  0.46836  1.0000 -0.5426790401
O   O51       1.0  0.60048  0.46836  0.01632  1.0000 -0.5426790401
O   O52       1.0  0.53164  0.39952  0.98368  1.0000 -0.5426790401
O   O53       1.0  0.98368  0.53164  0.39952  1.0000 -0.5426790401
O   O54       1.0  0.39952  0.98368  0.53164  1.0000 -0.5426790401
O   O55       1.0  0.98312  0.41260  0.33341  1.0000 -0.5210473423
O   O56       1.0  0.41260  0.33341  0.98312  1.0000 -0.5210473423
O   O57       1.0  0.33341  0.98312  0.41260  1.0000 -0.5210473423
O   O58       1.0  0.01688  0.66659  0.58740  1.0000 -0.5210473423
O   O59       1.0  0.58740  0.01688  0.66659  1.0000 -0.5210473423
O   O60       1.0  0.66659  0.58740  0.01688  1.0000 -0.5210473423
O   O61       1.0  0.01688  0.58740  0.66659  1.0000 -0.5210473423
O   O62       1.0  0.58740  0.66659  0.01688  1.0000 -0.5210473423
O   O63       1.0  0.66659  0.01688  0.58740  1.0000 -0.5210473423
O   O64       1.0  0.98312  0.33341  0.41260  1.0000 -0.5210473423
O   O65       1.0  0.41260  0.98312  0.33341  1.0000 -0.5210473423
O   O66       1.0  0.33341  0.41260  0.98312  1.0000 -0.5210473423
O   O67       1.0  0.98735  0.10195  0.36395  1.0000 -0.1863652883
O   O68       1.0  0.10195  0.36395  0.98735  1.0000 -0.1811612631
O   O69       1.0  0.36395  0.98735  0.10195  1.0000 -0.1811612631
O   O70       1.0  0.01265  0.63605  0.89805  1.0000 -0.1863652883
O   O71       1.0  0.89805  0.01265  0.63605  1.0000 -0.1863652883
O   O72       1.0  0.63605  0.89805  0.01265  1.0000 -0.1863652883
O   O73       1.0  0.01265  0.89805  0.63605  1.0000 -0.1811612631
O   O74       1.0  0.89805  0.63605  0.01265  1.0000 -0.1863652883
O   O75       1.0  0.63605  0.01265  0.89805  1.0000 -0.1863652883
O   O76       1.0  0.98735  0.36395  0.10195  1.0000 -0.1863652883
O   O77       1.0  0.10195  0.98735  0.36395  1.0000 -0.1863652883
O   O78       1.0  0.36395  0.10195  0.98735  1.0000 -0.1863652883
O   O79       1.0  0.92610  0.10940  0.35310  1.0000 -0.1104829259
O   O80       1.0  0.10940  0.35310  0.92610  1.0000 -0.1104829259
O   O81       1.0  0.35310  0.92610  0.10940  1.0000 -0.1104829259
O   O82       1.0  0.07390  0.64690  0.89060  1.0000 -0.1104829259
O   O83       1.0  0.89060  0.07390  0.64690  1.0000 -0.1104829259
O   O84       1.0  0.64690  0.89060  0.07390  1.0000 -0.1104829259
O   O85       1.0  0.07390  0.89060  0.64690  1.0000 -0.1104829259
O   O86       1.0  0.89060  0.64690  0.07390  1.0000 -0.1104829259
O   O87       1.0  0.64690  0.07390  0.89060  1.0000 -0.1104829259
O   O88       1.0  0.92610  0.35310  0.10940  1.0000 -0.1104829259
O   O89       1.0  0.10940  0.92610  0.35310  1.0000 -0.1104829259
O   O90       1.0  0.35310  0.10940  0.92610  1.0000 -0.1104829259
