# DDEC6 charges by PACMAN v1.1 (https://github.com/mtap-research/PACMAN-charge/)
data_2023[Co][nan]3[ASR]6
_chemical_formula_sum              "Co6 H16 C28 N4 O20"
_cell_length_a       11.0913
_cell_length_b       11.0913
_cell_length_c       10.8516
_cell_angle_alpha    78.7719
_cell_angle_beta     101.228
_cell_angle_gamma    107.776

_symmetry_space_group_name_H-M    "P 1"
_symmetry_Int_Tables_number       1

loop_
  _symmetry_equiv_pos_as_xyz
  'x, y, z'

loop_
  _atom_site_type_symbol
  _atom_site_label
  _atom_site_symmetry_multiplicity
  _atom_site_fract_x
  _atom_site_fract_y
  _atom_site_fract_z
  _atom_site_occupancy
  _atom_site_charge
Co  Co1       1.0  0.38136  0.55778  0.95402  1.0000 0.8680846688
Co  Co2       1.0  0.55778  0.38136  0.54598  1.0000 0.8680846688
Co  Co3       1.0  0.61864  0.44222  0.04598  1.0000 0.8680846688
Co  Co4       1.0  0.44222  0.61864  0.45402  1.0000 0.8680846688
Co  Co5       1.0  0.39920  0.39920  0.75000  1.0000 0.9749526378
Co  Co6       1.0  0.60080  0.60080  0.25000  1.0000 0.9749526378
H   H1        1.0  0.38400  0.31800  0.98600  1.0000 0.3625949022
H   H2        1.0  0.31800  0.38400  0.51400  1.0000 0.3625949022
H   H3        1.0  0.61600  0.68200  0.01400  1.0000 0.3625949022
H   H4        1.0  0.68200  0.61600  0.48600  1.0000 0.3625949022
H   H5        1.0  0.46600  0.95400  0.63500  1.0000 0.1517107484
H   H6        1.0  0.95400  0.46600  0.86500  1.0000 0.1517107484
H   H7        1.0  0.53400  0.04600  0.36500  1.0000 0.1517107484
H   H8        1.0  0.04600  0.53400  0.13500  1.0000 0.1517107484
H   H9        1.0  0.32710  0.80350  0.02700  1.0000 0.1059747186
H   H10       1.0  0.80350  0.32710  0.47300  1.0000 0.1059747186
H   H11       1.0  0.67290  0.19650  0.97300  1.0000 0.1059747186
H   H12       1.0  0.19650  0.67290  0.52700  1.0000 0.1059747186
H   H13       1.0  0.34420  0.02220  0.93900  1.0000 0.1324742955
H   H14       1.0  0.02220  0.34420  0.56100  1.0000 0.1324742955
H   H15       1.0  0.65580  0.97780  0.06100  1.0000 0.1324742955
H   H16       1.0  0.97780  0.65580  0.43900  1.0000 0.1324742955
C   C1        1.0  0.43650  0.92450  0.71820  1.0000 -0.1640901159
C   C2        1.0  0.92450  0.43650  0.78180  1.0000 -0.1640901159
C   C3        1.0  0.56350  0.07550  0.28180  1.0000 -0.1640901159
C   C4        1.0  0.07550  0.56350  0.21820  1.0000 -0.1640901159
C   C5        1.0  0.42420  0.79820  0.77510  1.0000 0.1182953786
C   C6        1.0  0.79820  0.42420  0.72490  1.0000 0.1182953786
C   C7        1.0  0.57580  0.20180  0.22490  1.0000 0.1182953786
C   C8        1.0  0.20180  0.57580  0.27510  1.0000 0.1182953786
C   C9        1.0  0.36600  0.96560  0.89340  1.0000 -0.1673645604
C   C10       1.0  0.96560  0.36600  0.60660  1.0000 -0.1673645604
C   C11       1.0  0.63400  0.03440  0.10660  1.0000 -0.1673645604
C   C12       1.0  0.03440  0.63400  0.39340  1.0000 -0.1673645604
C   C13       1.0  0.40780  0.01240  0.77560  1.0000 0.0347807926
C   C14       1.0  0.01240  0.40780  0.72440  1.0000 0.0347807926
C   C15       1.0  0.59220  0.98760  0.22440  1.0000 0.0347807926
C   C16       1.0  0.98760  0.59220  0.27560  1.0000 0.0347807926
C   C17       1.0  0.45660  0.70560  0.70910  1.0000 0.5586407778
C   C18       1.0  0.70560  0.45660  0.79090  1.0000 0.5586407778
C   C19       1.0  0.54340  0.29440  0.29090  1.0000 0.5586407778
C   C20       1.0  0.29440  0.54340  0.20910  1.0000 0.5586407778
C   C21       1.0  0.42010  0.15070  0.71600  1.0000 0.5705602315
C   C22       1.0  0.15070  0.42010  0.78400  1.0000 0.5705602315
C   C23       1.0  0.57990  0.84930  0.28400  1.0000 0.5705602315
C   C24       1.0  0.84930  0.57990  0.21600  1.0000 0.5705602315
C   C25       1.0  0.35630  0.83810  0.94410  1.0000 0.082420075
C   C26       1.0  0.83810  0.35630  0.55590  1.0000 0.082420075
C   C27       1.0  0.64370  0.16190  0.05590  1.0000 0.082420075
C   C28       1.0  0.16190  0.64370  0.44410  1.0000 0.082420075
N   N1        1.0  0.38420  0.75580  0.88760  1.0000 -0.2644753757
N   N2        1.0  0.75580  0.38420  0.61240  1.0000 -0.2644753757
N   N3        1.0  0.61580  0.24420  0.11240  1.0000 -0.2644753757
N   N4        1.0  0.24420  0.61580  0.38760  1.0000 -0.2644753757
O   O1        1.0  0.42050  0.37470  0.96000  1.0000 -0.7507066879
O   O2        1.0  0.37470  0.42050  0.54000  1.0000 -0.7507066879
O   O3        1.0  0.57950  0.62530  0.04000  1.0000 -0.7507066879
O   O4        1.0  0.62530  0.57950  0.46000  1.0000 -0.7507066879
O   O5        1.0  0.47750  0.74650  0.59820  1.0000 -0.5053484443
O   O6        1.0  0.74650  0.47750  0.90180  1.0000 -0.5053484443
O   O7        1.0  0.52250  0.25350  0.40180  1.0000 -0.5053484443
O   O8        1.0  0.25350  0.52250  0.09820  1.0000 -0.5053484443
O   O9        1.0  0.45800  0.60080  0.77430  1.0000 -0.5556647185
O   O10       1.0  0.60080  0.45800  0.72570  1.0000 -0.5556647185
O   O11       1.0  0.54200  0.39920  0.22570  1.0000 -0.5556647185
O   O12       1.0  0.39920  0.54200  0.27430  1.0000 -0.5556647185
O   O13       1.0  0.48330  0.18870  0.62650  1.0000 -0.5291019681
O   O14       1.0  0.18870  0.48330  0.87350  1.0000 -0.5291019681
O   O15       1.0  0.51670  0.81130  0.37350  1.0000 -0.5291019681
O   O16       1.0  0.81130  0.51670  0.12650  1.0000 -0.5291019681
O   O17       1.0  0.36550  0.20810  0.76440  1.0000 -0.5362610373
O   O18       1.0  0.20810  0.36550  0.73560  1.0000 -0.5362610373
O   O19       1.0  0.63450  0.79190  0.23560  1.0000 -0.5362610373
O   O20       1.0  0.79190  0.63450  0.26440  1.0000 -0.5362610373
