# DDEC6 charges by PACMAN v1.1 (https://github.com/mtap-research/PACMAN-charge/)
data_2023[ZnTi][nan]3[ASR]4
_chemical_formula_sum              "Ti8 Zn6 H246 C384 N30 O72"
_cell_length_a       20.6391
_cell_length_b       20.6391
_cell_length_c       30.6401
_cell_angle_alpha    90
_cell_angle_beta     90
_cell_angle_gamma    120

_symmetry_space_group_name_H-M    "P 1"
_symmetry_Int_Tables_number       1

loop_
  _symmetry_equiv_pos_as_xyz
  'x, y, z'

loop_
  _atom_site_type_symbol
  _atom_site_label
  _atom_site_symmetry_multiplicity
  _atom_site_fract_x
  _atom_site_fract_y
  _atom_site_fract_z
  _atom_site_occupancy
  _atom_site_charge
Ti  Ti1       1.0  0.05120  0.56675  0.46090  1.0000 1.9072207113
Ti  Ti2       1.0  0.43325  0.48445  0.46090  1.0000 1.9072207113
Ti  Ti3       1.0  0.51555  0.94880  0.46090  1.0000 1.9072207113
Ti  Ti4       1.0  0.94880  0.43325  0.96090  1.0000 1.9072207113
Ti  Ti5       1.0  0.56675  0.51555  0.96090  1.0000 1.9072207113
Ti  Ti6       1.0  0.48445  0.05120  0.96090  1.0000 1.9072207113
Ti  Ti7       1.0  0.33333  0.66667  0.70196  1.0000 1.9001167913
Ti  Ti8       1.0  0.66667  0.33333  0.20196  1.0000 1.9001167913
Zn  Zn1       1.0  0.42856  0.26416  0.44798  1.0000 0.735180666
Zn  Zn2       1.0  0.73584  0.16440  0.44798  1.0000 0.735180666
Zn  Zn3       1.0  0.83560  0.57144  0.44798  1.0000 0.735180666
Zn  Zn4       1.0  0.57144  0.73584  0.94798  1.0000 0.735180666
Zn  Zn5       1.0  0.26416  0.83560  0.94798  1.0000 0.735180666
Zn  Zn6       1.0  0.16440  0.42856  0.94798  1.0000 0.735180666
H   H1        1.0  0.51464  0.35302  0.39595  1.0000 0.315743332
H   H2        1.0  0.64698  0.16162  0.39595  1.0000 0.315743332
H   H3        1.0  0.83838  0.48536  0.39595  1.0000 0.315743332
H   H4        1.0  0.48536  0.64698  0.89595  1.0000 0.315743332
H   H5        1.0  0.35302  0.83838  0.89595  1.0000 0.315743332
H   H6        1.0  0.16162  0.51464  0.89595  1.0000 0.315743332
H   H7        1.0  0.55663  0.36012  0.43547  1.0000 0.3056113223
H   H8        1.0  0.63988  0.19651  0.43547  1.0000 0.3056113223
H   H9        1.0  0.80349  0.44337  0.43547  1.0000 0.3056113223
H   H10       1.0  0.44337  0.63988  0.93547  1.0000 0.3056113223
H   H11       1.0  0.36012  0.80349  0.93547  1.0000 0.3056113223
H   H12       1.0  0.19651  0.55663  0.93547  1.0000 0.3056113223
H   H13       1.0  0.51073  0.39520  0.43284  1.0000 0.3056113223
H   H14       1.0  0.60480  0.11553  0.43284  1.0000 0.3056113223
H   H15       1.0  0.88447  0.48927  0.43284  1.0000 0.3056113223
H   H16       1.0  0.48927  0.60480  0.93284  1.0000 0.3056113223
H   H17       1.0  0.39520  0.88447  0.93284  1.0000 0.3056113223
H   H18       1.0  0.11553  0.51073  0.93284  1.0000 0.3056113223
H   H19       1.0  0.09771  0.52695  0.29636  1.0000 0.1186968355
H   H20       1.0  0.47305  0.57076  0.29636  1.0000 0.1186968355
H   H21       1.0  0.42924  0.90229  0.29636  1.0000 0.1186968355
H   H22       1.0  0.90229  0.47305  0.79636  1.0000 0.1186968355
H   H23       1.0  0.52695  0.42924  0.79636  1.0000 0.1186968355
H   H24       1.0  0.57076  0.09771  0.79636  1.0000 0.1186968355
H   H25       1.0  0.17164  0.63142  0.56822  1.0000 0.1302661026
H   H26       1.0  0.36858  0.54022  0.56822  1.0000 0.1302661026
H   H27       1.0  0.45978  0.82836  0.56822  1.0000 0.1302661026
H   H28       1.0  0.82836  0.36858  0.06822  1.0000 0.1302661026
H   H29       1.0  0.63142  0.45978  0.06822  1.0000 0.1302661026
H   H30       1.0  0.54022  0.17164  0.06822  1.0000 0.1302661026
H   H31       1.0  0.19049  0.59258  0.60609  1.0000 0.1302661026
H   H32       1.0  0.40742  0.59791  0.60609  1.0000 0.1302661026
H   H33       1.0  0.40209  0.80951  0.60609  1.0000 0.1302661026
H   H34       1.0  0.80951  0.40742  0.10609  1.0000 0.1302661026
H   H35       1.0  0.59258  0.40209  0.10609  1.0000 0.1302661026
H   H36       1.0  0.59791  0.19049  0.10609  1.0000 0.1302661026
H   H37       1.0  0.26171  0.51259  0.44100  1.0000 0.1302661026
H   H38       1.0  0.48741  0.74912  0.44100  1.0000 0.1302661026
H   H39       1.0  0.25088  0.73829  0.44100  1.0000 0.1302661026
H   H40       1.0  0.73829  0.48741  0.94100  1.0000 0.1302661026
H   H41       1.0  0.51259  0.25088  0.94100  1.0000 0.1302661026
H   H42       1.0  0.74912  0.26171  0.94100  1.0000 0.1302661026
H   H43       1.0  0.18323  0.48106  0.46291  1.0000 0.1302661026
H   H44       1.0  0.51894  0.70217  0.46291  1.0000 0.1302661026
H   H45       1.0  0.29783  0.81677  0.46291  1.0000 0.1302661026
H   H46       1.0  0.81677  0.51894  0.96291  1.0000 0.1302661026
H   H47       1.0  0.48106  0.29783  0.96291  1.0000 0.1302661026
H   H48       1.0  0.70217  0.18323  0.96291  1.0000 0.1302661026
H   H49       1.0  0.17880  0.80990  0.71235  1.0000 0.1186968355
H   H50       1.0  0.19010  0.36890  0.71235  1.0000 0.1186968355
H   H51       1.0  0.63110  0.82120  0.71235  1.0000 0.1186968355
H   H52       1.0  0.82120  0.19010  0.21235  1.0000 0.1186968355
H   H53       1.0  0.80990  0.63110  0.21235  1.0000 0.1186968355
H   H54       1.0  0.36890  0.17880  0.21235  1.0000 0.1186968355
H   H55       1.0  0.13122  0.54603  0.67572  1.0000 0.1302661026
H   H56       1.0  0.45397  0.58519  0.67572  1.0000 0.1302661026
H   H57       1.0  0.41481  0.86878  0.67572  1.0000 0.1302661026
H   H58       1.0  0.86878  0.45397  0.17572  1.0000 0.1302661026
H   H59       1.0  0.54603  0.41481  0.17572  1.0000 0.1302661026
H   H60       1.0  0.58519  0.13122  0.17572  1.0000 0.1302661026
H   H61       1.0  0.08065  0.67152  0.56152  1.0000 0.1302661026
H   H62       1.0  0.32848  0.40913  0.56152  1.0000 0.1302661026
H   H63       1.0  0.59087  0.91935  0.56152  1.0000 0.1302661026
H   H64       1.0  0.91935  0.32848  0.06152  1.0000 0.1302661026
H   H65       1.0  0.67152  0.59087  0.06152  1.0000 0.1302661026
H   H66       1.0  0.40913  0.08065  0.06152  1.0000 0.1302661026
H   H67       1.0  0.87870  0.39001  0.58809  1.0000 0.112950347
H   H68       1.0  0.60999  0.48869  0.58809  1.0000 0.112950347
H   H69       1.0  0.51131  0.12130  0.58809  1.0000 0.112950347
H   H70       1.0  0.12130  0.60999  0.08809  1.0000 0.112950347
H   H71       1.0  0.39001  0.51131  0.08809  1.0000 0.112950347
H   H72       1.0  0.48869  0.87870  0.08809  1.0000 0.112950347
H   H73       1.0  0.35742  0.16754  0.36098  1.0000 0.1302661026
H   H74       1.0  0.83246  0.18988  0.36098  1.0000 0.1302661026
H   H75       1.0  0.81012  0.64258  0.36098  1.0000 0.1302661026
H   H76       1.0  0.64258  0.83246  0.86098  1.0000 0.1302661026
H   H77       1.0  0.16754  0.81012  0.86098  1.0000 0.1302661026
H   H78       1.0  0.18988  0.35742  0.86098  1.0000 0.1302661026
H   H79       1.0  0.06825  0.47294  0.73518  1.0000 0.1302661026
H   H80       1.0  0.52706  0.59531  0.73518  1.0000 0.1302661026
H   H81       1.0  0.40469  0.93175  0.73518  1.0000 0.1302661026
H   H82       1.0  0.93175  0.52706  0.23518  1.0000 0.1302661026
H   H83       1.0  0.47294  0.40469  0.23518  1.0000 0.1302661026
H   H84       1.0  0.59531  0.06825  0.23518  1.0000 0.1302661026
H   H85       1.0  0.17992  0.50231  0.24999  1.0000 0.1186968355
H   H86       1.0  0.49769  0.67761  0.24999  1.0000 0.1186968355
H   H87       1.0  0.32239  0.82008  0.24999  1.0000 0.1186968355
H   H88       1.0  0.82008  0.49769  0.74999  1.0000 0.1186968355
H   H89       1.0  0.50231  0.32239  0.74999  1.0000 0.1186968355
H   H90       1.0  0.67761  0.17992  0.74999  1.0000 0.1186968355
H   H91       1.0  0.46524  0.05965  0.38935  1.0000 0.1474002574
H   H92       1.0  0.94035  0.40559  0.38935  1.0000 0.1474002574
H   H93       1.0  0.59441  0.53476  0.38935  1.0000 0.1474002574
H   H94       1.0  0.53476  0.94035  0.88935  1.0000 0.1474002574
H   H95       1.0  0.05965  0.59441  0.88935  1.0000 0.1474002574
H   H96       1.0  0.40559  0.46524  0.88935  1.0000 0.1474002574
H   H97       1.0  0.02407  0.73980  0.55250  1.0000 0.1186968355
H   H98       1.0  0.26020  0.28427  0.55250  1.0000 0.1186968355
H   H99       1.0  0.71573  0.97593  0.55250  1.0000 0.1186968355
H   H100      1.0  0.97593  0.26020  0.05250  1.0000 0.1186968355
H   H101      1.0  0.73980  0.71573  0.05250  1.0000 0.1186968355
H   H102      1.0  0.28427  0.02407  0.05250  1.0000 0.1186968355
H   H103      1.0  0.31816  0.88899  0.04329  1.0000 0.1302661026
H   H104      1.0  0.11101  0.42917  0.04329  1.0000 0.1302661026
H   H105      1.0  0.57083  0.68184  0.04329  1.0000 0.1302661026
H   H106      1.0  0.68184  0.11101  0.54329  1.0000 0.1302661026
H   H107      1.0  0.88899  0.57083  0.54329  1.0000 0.1302661026
H   H108      1.0  0.42917  0.31816  0.54329  1.0000 0.1302661026
H   H109      1.0  0.94320  0.38377  0.73117  1.0000 0.1186968355
H   H110      1.0  0.61623  0.55943  0.73117  1.0000 0.1186968355
H   H111      1.0  0.44057  0.05680  0.73117  1.0000 0.1186968355
H   H112      1.0  0.05680  0.61623  0.23117  1.0000 0.1186968355
H   H113      1.0  0.38377  0.44057  0.23117  1.0000 0.1186968355
H   H114      1.0  0.55943  0.94320  0.23117  1.0000 0.1186968355
H   H115      1.0  0.32491  0.45061  0.30410  1.0000 0.112950347
H   H116      1.0  0.54939  0.87430  0.30410  1.0000 0.112950347
H   H117      1.0  0.12570  0.67509  0.30410  1.0000 0.112950347
H   H118      1.0  0.67509  0.54939  0.80410  1.0000 0.112950347
H   H119      1.0  0.45061  0.12570  0.80410  1.0000 0.112950347
H   H120      1.0  0.87430  0.32491  0.80410  1.0000 0.112950347
H   H121      1.0  0.19456  0.21299  0.44183  1.0000 0.1186968355
H   H122      1.0  0.78701  0.98157  0.44183  1.0000 0.1186968355
H   H123      1.0  0.01843  0.80544  0.44183  1.0000 0.1186968355
H   H124      1.0  0.80544  0.78701  0.94183  1.0000 0.1186968355
H   H125      1.0  0.21299  0.01843  0.94183  1.0000 0.1186968355
H   H126      1.0  0.98157  0.19456  0.94183  1.0000 0.1186968355
H   H127      1.0  0.28679  0.46087  0.37262  1.0000 0.1186968355
H   H128      1.0  0.53913  0.82592  0.37262  1.0000 0.1186968355
H   H129      1.0  0.17408  0.71321  0.37262  1.0000 0.1186968355
H   H130      1.0  0.71321  0.53913  0.87262  1.0000 0.1186968355
H   H131      1.0  0.46087  0.17408  0.87262  1.0000 0.1186968355
H   H132      1.0  0.82592  0.28679  0.87262  1.0000 0.1186968355
H   H133      1.0  0.27300  0.47397  0.24210  1.0000 0.112950347
H   H134      1.0  0.52603  0.79903  0.24210  1.0000 0.112950347
H   H135      1.0  0.20097  0.72700  0.24210  1.0000 0.112950347
H   H136      1.0  0.72700  0.52603  0.74210  1.0000 0.112950347
H   H137      1.0  0.47397  0.20097  0.74210  1.0000 0.112950347
H   H138      1.0  0.79903  0.27300  0.74210  1.0000 0.112950347
H   H139      1.0  0.02647  0.81959  0.60589  1.0000 0.112950347
H   H140      1.0  0.18041  0.20688  0.60589  1.0000 0.112950347
H   H141      1.0  0.79312  0.97353  0.60589  1.0000 0.112950347
H   H142      1.0  0.97353  0.18041  0.10589  1.0000 0.112950347
H   H143      1.0  0.81959  0.79312  0.10589  1.0000 0.112950347
H   H144      1.0  0.20688  0.02647  0.10589  1.0000 0.112950347
H   H145      1.0  0.95291  0.26722  0.44002  1.0000 0.1009572272
H   H146      1.0  0.73278  0.68569  0.44002  1.0000 0.1009572272
H   H147      1.0  0.31431  0.04709  0.44002  1.0000 0.1009572272
H   H148      1.0  0.04709  0.73278  0.94002  1.0000 0.1009572272
H   H149      1.0  0.26722  0.31431  0.94002  1.0000 0.1009572272
H   H150      1.0  0.68569  0.95291  0.94002  1.0000 0.1009572272
H   H151      1.0  0.49091  0.15160  0.44661  1.0000 0.1378086184
H   H152      1.0  0.84840  0.33931  0.44661  1.0000 0.1378086184
H   H153      1.0  0.66069  0.50909  0.44661  1.0000 0.1378086184
H   H154      1.0  0.50909  0.84840  0.94661  1.0000 0.1378086184
H   H155      1.0  0.15160  0.66069  0.94661  1.0000 0.1378086184
H   H156      1.0  0.33931  0.49091  0.94661  1.0000 0.1378086184
H   H157      1.0  0.06318  0.37669  0.44128  1.0000 0.1186968355
H   H158      1.0  0.62331  0.68649  0.44128  1.0000 0.1186968355
H   H159      1.0  0.31351  0.93682  0.44128  1.0000 0.1186968355
H   H160      1.0  0.93682  0.62331  0.94128  1.0000 0.1186968355
H   H161      1.0  0.37669  0.31351  0.94128  1.0000 0.1186968355
H   H162      1.0  0.68649  0.06318  0.94128  1.0000 0.1186968355
H   H163      1.0  0.09323  0.83546  0.66974  1.0000 0.1186968355
H   H164      1.0  0.16454  0.25777  0.66974  1.0000 0.1186968355
H   H165      1.0  0.74223  0.90677  0.66974  1.0000 0.1186968355
H   H166      1.0  0.90677  0.16454  0.16974  1.0000 0.1186968355
H   H167      1.0  0.83546  0.74223  0.16974  1.0000 0.1186968355
H   H168      1.0  0.25777  0.09323  0.16974  1.0000 0.1186968355
H   H169      1.0  0.88057  0.36102  0.66643  1.0000 0.112950347
H   H170      1.0  0.63898  0.51955  0.66643  1.0000 0.112950347
H   H171      1.0  0.48045  0.11943  0.66643  1.0000 0.112950347
H   H172      1.0  0.11943  0.63898  0.16643  1.0000 0.112950347
H   H173      1.0  0.36102  0.48045  0.16643  1.0000 0.112950347
H   H174      1.0  0.51955  0.88057  0.16643  1.0000 0.112950347
H   H175      1.0  0.18784  0.88440  0.21351  1.0000 0.112950347
H   H176      1.0  0.11560  0.30344  0.21351  1.0000 0.112950347
H   H177      1.0  0.69656  0.81216  0.21351  1.0000 0.112950347
H   H178      1.0  0.81216  0.11560  0.71351  1.0000 0.112950347
H   H179      1.0  0.88440  0.69656  0.71351  1.0000 0.112950347
H   H180      1.0  0.30344  0.18784  0.71351  1.0000 0.112950347
H   H181      1.0  0.14797  0.82978  0.14572  1.0000 0.1302661026
H   H182      1.0  0.17022  0.31819  0.14572  1.0000 0.1302661026
H   H183      1.0  0.68181  0.85203  0.14572  1.0000 0.1302661026
H   H184      1.0  0.85203  0.17022  0.64572  1.0000 0.1302661026
H   H185      1.0  0.82978  0.68181  0.64572  1.0000 0.1302661026
H   H186      1.0  0.31819  0.14797  0.64572  1.0000 0.1302661026
H   H187      1.0  0.47651  0.09443  0.29425  1.0000 0.1474002574
H   H188      1.0  0.90557  0.38208  0.29425  1.0000 0.1474002574
H   H189      1.0  0.61792  0.52349  0.29425  1.0000 0.1474002574
H   H190      1.0  0.52349  0.90557  0.79425  1.0000 0.1474002574
H   H191      1.0  0.09443  0.61792  0.79425  1.0000 0.1474002574
H   H192      1.0  0.38208  0.47651  0.79425  1.0000 0.1474002574
H   H193      1.0  0.43426  0.02769  0.22959  1.0000 0.1186968355
H   H194      1.0  0.97231  0.40657  0.22959  1.0000 0.1186968355
H   H195      1.0  0.59343  0.56574  0.22959  1.0000 0.1186968355
H   H196      1.0  0.56574  0.97231  0.72959  1.0000 0.1186968355
H   H197      1.0  0.02769  0.59343  0.72959  1.0000 0.1186968355
H   H198      1.0  0.40657  0.43426  0.72959  1.0000 0.1186968355
H   H199      1.0  0.22199  0.93934  0.27110  1.0000 0.112950347
H   H200      1.0  0.06066  0.28265  0.27110  1.0000 0.112950347
H   H201      1.0  0.71735  0.77801  0.27110  1.0000 0.112950347
H   H202      1.0  0.77801  0.06066  0.77110  1.0000 0.112950347
H   H203      1.0  0.93934  0.71735  0.77110  1.0000 0.112950347
H   H204      1.0  0.28265  0.22199  0.77110  1.0000 0.112950347
H   H205      1.0  0.26424  0.00608  0.33576  1.0000 0.1302661026
H   H206      1.0  0.99392  0.25816  0.33576  1.0000 0.1302661026
H   H207      1.0  0.74184  0.73576  0.33576  1.0000 0.1302661026
H   H208      1.0  0.73576  0.99392  0.83576  1.0000 0.1302661026
H   H209      1.0  0.00608  0.74184  0.83576  1.0000 0.1302661026
H   H210      1.0  0.25816  0.26424  0.83576  1.0000 0.1302661026
H   H211      1.0  0.12065  0.72531  0.00906  1.0000 0.1302661026
H   H212      1.0  0.27469  0.39534  0.00906  1.0000 0.1302661026
H   H213      1.0  0.60466  0.87935  0.00906  1.0000 0.1302661026
H   H214      1.0  0.87935  0.27469  0.50906  1.0000 0.1302661026
H   H215      1.0  0.72531  0.60466  0.50906  1.0000 0.1302661026
H   H216      1.0  0.39534  0.12065  0.50906  1.0000 0.1302661026
H   H217      1.0  0.11358  0.74898  0.08556  1.0000 0.1378086184
H   H218      1.0  0.25102  0.36460  0.08556  1.0000 0.1378086184
H   H219      1.0  0.63540  0.88642  0.08556  1.0000 0.1378086184
H   H220      1.0  0.88642  0.25102  0.58556  1.0000 0.1378086184
H   H221      1.0  0.74898  0.63540  0.58556  1.0000 0.1378086184
H   H222      1.0  0.36460  0.11358  0.58556  1.0000 0.1378086184
H   H223      1.0  0.35957  0.90376  0.11209  1.0000 0.1302661026
H   H224      1.0  0.09624  0.45581  0.11209  1.0000 0.1302661026
H   H225      1.0  0.54419  0.64043  0.11209  1.0000 0.1302661026
H   H226      1.0  0.64043  0.09624  0.61209  1.0000 0.1302661026
H   H227      1.0  0.90376  0.54419  0.61209  1.0000 0.1302661026
H   H228      1.0  0.45581  0.35957  0.61209  1.0000 0.1302661026
H   H229      1.0  0.05620  0.14686  0.43912  1.0000 0.1186968355
H   H230      1.0  0.85314  0.90934  0.43912  1.0000 0.1186968355
H   H231      1.0  0.09066  0.94380  0.43912  1.0000 0.1186968355
H   H232      1.0  0.94380  0.85314  0.93912  1.0000 0.1186968355
H   H233      1.0  0.14686  0.09066  0.93912  1.0000 0.1186968355
H   H234      1.0  0.90934  0.05620  0.93912  1.0000 0.1186968355
H   H235      1.0  0.39988  0.97452  0.17562  1.0000 0.1186968355
H   H236      1.0  0.02548  0.42536  0.17562  1.0000 0.1186968355
H   H237      1.0  0.57464  0.60012  0.17562  1.0000 0.1186968355
H   H238      1.0  0.60012  0.02548  0.67562  1.0000 0.1186968355
H   H239      1.0  0.97452  0.57464  0.67562  1.0000 0.1186968355
H   H240      1.0  0.42536  0.39988  0.67562  1.0000 0.1186968355
H   H241      1.0  0.94842  0.15202  0.43430  1.0000 0.1186968355
H   H242      1.0  0.84798  0.79640  0.43430  1.0000 0.1186968355
H   H243      1.0  0.20360  0.05158  0.43430  1.0000 0.1186968355
H   H244      1.0  0.05158  0.84798  0.93430  1.0000 0.1186968355
H   H245      1.0  0.15202  0.20360  0.93430  1.0000 0.1186968355
H   H246      1.0  0.79640  0.94842  0.93430  1.0000 0.1186968355
C   C1        1.0  0.17510  0.49940  0.31618  1.0000 0.0615223149
C   C2        1.0  0.50060  0.67570  0.31618  1.0000 0.0615223149
C   C3        1.0  0.32430  0.82490  0.31618  1.0000 0.0615223149
C   C4        1.0  0.82490  0.50060  0.81618  1.0000 0.0615223149
C   C5        1.0  0.49940  0.32430  0.81618  1.0000 0.0615223149
C   C6        1.0  0.67570  0.17510  0.81618  1.0000 0.0615223149
C   C7        1.0  0.21250  0.68910  0.66423  1.0000 0.2318270752
C   C8        1.0  0.31090  0.52340  0.66423  1.0000 0.2318270752
C   C9        1.0  0.47660  0.78750  0.66423  1.0000 0.2318270752
C   C10       1.0  0.78750  0.31090  0.16423  1.0000 0.2318270752
C   C11       1.0  0.68910  0.47660  0.16423  1.0000 0.2318270752
C   C12       1.0  0.52340  0.21250  0.16423  1.0000 0.2318270752
C   C13       1.0  0.26620  0.39370  0.44712  1.0000 0.2519467323
C   C14       1.0  0.60630  0.87250  0.44712  1.0000 0.2519467323
C   C15       1.0  0.12750  0.73380  0.44712  1.0000 0.2519467323
C   C16       1.0  0.73380  0.60630  0.94712  1.0000 0.2519467323
C   C17       1.0  0.39370  0.12750  0.94712  1.0000 0.2519467323
C   C18       1.0  0.87250  0.26620  0.94712  1.0000 0.2519467323
C   C19       1.0  0.03430  0.54650  0.36273  1.0000 0.5982866187
C   C20       1.0  0.45350  0.48780  0.36273  1.0000 0.5982866187
C   C21       1.0  0.51220  0.96570  0.36273  1.0000 0.5982866187
C   C22       1.0  0.96570  0.45350  0.86273  1.0000 0.5982866187
C   C23       1.0  0.54650  0.51220  0.86273  1.0000 0.5982866187
C   C24       1.0  0.48780  0.03430  0.86273  1.0000 0.5982866187
C   C25       1.0  0.92090  0.44760  0.51131  1.0000 0.5865744153
C   C26       1.0  0.55240  0.47330  0.51131  1.0000 0.5865744153
C   C27       1.0  0.52670  0.07910  0.51131  1.0000 0.5865744153
C   C28       1.0  0.07910  0.55240  0.01131  1.0000 0.5865744153
C   C29       1.0  0.44760  0.52670  0.01131  1.0000 0.5865744153
C   C30       1.0  0.47330  0.92090  0.01131  1.0000 0.5865744153
C   C31       1.0  0.16630  0.67220  0.62878  1.0000 -0.0279478065
C   C32       1.0  0.32780  0.49410  0.62878  1.0000 -0.0279478065
C   C33       1.0  0.50590  0.83370  0.62878  1.0000 -0.0279478065
C   C34       1.0  0.83370  0.32780  0.12878  1.0000 -0.0279478065
C   C35       1.0  0.67220  0.50590  0.12878  1.0000 -0.0279478065
C   C36       1.0  0.49410  0.16630  0.12878  1.0000 -0.0279478065
C   C37       1.0  0.33120  0.31760  0.45239  1.0000 0.6156283219
C   C38       1.0  0.68240  0.01360  0.45239  1.0000 0.6156283219
C   C39       1.0  0.98640  0.66880  0.45239  1.0000 0.6156283219
C   C40       1.0  0.66880  0.68240  0.95239  1.0000 0.6156283219
C   C41       1.0  0.31760  0.98640  0.95239  1.0000 0.6156283219
C   C42       1.0  0.01360  0.33120  0.95239  1.0000 0.6156283219
C   C43       1.0  0.20560  0.48490  0.35502  1.0000 0.0509698887
C   C44       1.0  0.51510  0.72070  0.35502  1.0000 0.0509698887
C   C45       1.0  0.27930  0.79440  0.35502  1.0000 0.0509698887
C   C46       1.0  0.79440  0.51510  0.85502  1.0000 0.0509698887
C   C47       1.0  0.48490  0.27930  0.85502  1.0000 0.0509698887
C   C48       1.0  0.72070  0.20560  0.85502  1.0000 0.0509698887
C   C49       1.0  0.11910  0.51930  0.32111  1.0000 -0.1495437768
C   C50       1.0  0.48070  0.59980  0.32111  1.0000 -0.1495437768
C   C51       1.0  0.40020  0.88090  0.32111  1.0000 -0.1495437768
C   C52       1.0  0.88090  0.48070  0.82111  1.0000 -0.1495437768
C   C53       1.0  0.51930  0.40020  0.82111  1.0000 -0.1495437768
C   C54       1.0  0.59980  0.11910  0.82111  1.0000 -0.1495437768
C   C55       1.0  0.21790  0.74020  0.69703  1.0000 -0.1495437768
C   C56       1.0  0.25980  0.47770  0.69703  1.0000 -0.1495437768
C   C57       1.0  0.52230  0.78210  0.69703  1.0000 -0.1495437768
C   C58       1.0  0.78210  0.25980  0.19703  1.0000 -0.1495437768
C   C59       1.0  0.74020  0.52230  0.19703  1.0000 -0.1495437768
C   C60       1.0  0.47770  0.21790  0.19703  1.0000 -0.1495437768
C   C61       1.0  0.15690  0.61030  0.59724  1.0000 -0.2421418553
C   C62       1.0  0.38970  0.54660  0.59724  1.0000 -0.2421418553
C   C63       1.0  0.45340  0.84310  0.59724  1.0000 -0.2421418553
C   C64       1.0  0.84310  0.38970  0.09724  1.0000 -0.2421418553
C   C65       1.0  0.61030  0.45340  0.09724  1.0000 -0.2421418553
C   C66       1.0  0.54660  0.15690  0.09724  1.0000 -0.2421418553
C   C67       1.0  0.26200  0.75470  0.73740  1.0000 0.6067772308
C   C68       1.0  0.24530  0.50730  0.73740  1.0000 0.6067772308
C   C69       1.0  0.49270  0.73800  0.73740  1.0000 0.6067772308
C   C70       1.0  0.73800  0.24530  0.23740  1.0000 0.6067772308
C   C71       1.0  0.75470  0.49270  0.23740  1.0000 0.6067772308
C   C72       1.0  0.50730  0.26200  0.23740  1.0000 0.6067772308
C   C73       1.0  0.20930  0.47490  0.43831  1.0000 -0.2421418553
C   C74       1.0  0.52510  0.73440  0.43831  1.0000 -0.2421418553
C   C75       1.0  0.26560  0.79070  0.43831  1.0000 -0.2421418553
C   C76       1.0  0.79070  0.52510  0.93831  1.0000 -0.2421418553
C   C77       1.0  0.47490  0.26560  0.93831  1.0000 -0.2421418553
C   C78       1.0  0.73440  0.20930  0.93831  1.0000 -0.2421418553
C   C79       1.0  0.17900  0.49030  0.39654  1.0000 -0.0220157539
C   C80       1.0  0.50970  0.68870  0.39654  1.0000 -0.0220157539
C   C81       1.0  0.31130  0.82100  0.39654  1.0000 -0.0220157539
C   C82       1.0  0.82100  0.50970  0.89654  1.0000 -0.0220157539
C   C83       1.0  0.49030  0.31130  0.89654  1.0000 -0.0220157539
C   C84       1.0  0.68870  0.17900  0.89654  1.0000 -0.0220157539
C   C85       1.0  0.96440  0.46820  0.55268  1.0000 -0.1715335188
C   C86       1.0  0.53180  0.49620  0.55268  1.0000 -0.1715335188
C   C87       1.0  0.50380  0.03560  0.55268  1.0000 -0.1715335188
C   C88       1.0  0.03560  0.53180  0.05268  1.0000 -0.1715335188
C   C89       1.0  0.46820  0.50380  0.05268  1.0000 -0.1715335188
C   C90       1.0  0.49620  0.96440  0.05268  1.0000 -0.1715335188
C   C91       1.0  0.26340  0.32310  0.44716  1.0000 -0.1580432083
C   C92       1.0  0.67690  0.94030  0.44716  1.0000 -0.1580432083
C   C93       1.0  0.05970  0.73660  0.44716  1.0000 -0.1580432083
C   C94       1.0  0.73660  0.67690  0.94716  1.0000 -0.1580432083
C   C95       1.0  0.32310  0.05970  0.94716  1.0000 -0.1580432083
C   C96       1.0  0.94030  0.26340  0.94716  1.0000 -0.1580432083
C   C97       1.0  0.12840  0.71260  0.62140  1.0000 0.0441695706
C   C98       1.0  0.28740  0.41580  0.62140  1.0000 0.0441695706
C   C99       1.0  0.58420  0.87160  0.62140  1.0000 0.0441695706
C   C100      1.0  0.87160  0.28740  0.12140  1.0000 0.0441695706
C   C101      1.0  0.71260  0.58420  0.12140  1.0000 0.0441695706
C   C102      1.0  0.41580  0.12840  0.12140  1.0000 0.0441695706
C   C103      1.0  0.03950  0.52700  0.55571  1.0000 0.2449142609
C   C104      1.0  0.47300  0.51250  0.55571  1.0000 0.2449142609
C   C105      1.0  0.48750  0.96050  0.55571  1.0000 0.2449142609
C   C106      1.0  0.96050  0.47300  0.05571  1.0000 0.2449142609
C   C107      1.0  0.52700  0.48750  0.05571  1.0000 0.2449142609
C   C108      1.0  0.51250  0.03950  0.05571  1.0000 0.2449142609
C   C109      1.0  0.09580  0.52770  0.36155  1.0000 -0.1495437768
C   C110      1.0  0.47230  0.56810  0.36155  1.0000 -0.1495437768
C   C111      1.0  0.43190  0.90420  0.36155  1.0000 -0.1495437768
C   C112      1.0  0.90420  0.47230  0.86155  1.0000 -0.1495437768
C   C113      1.0  0.52770  0.43190  0.86155  1.0000 -0.1495437768
C   C114      1.0  0.56810  0.09580  0.86155  1.0000 -0.1495437768
C   C115      1.0  0.17690  0.77680  0.69110  1.0000 -0.1495437768
C   C116      1.0  0.22320  0.40010  0.69110  1.0000 -0.1495437768
C   C117      1.0  0.59990  0.82310  0.69110  1.0000 -0.1495437768
C   C118      1.0  0.82310  0.22320  0.19110  1.0000 -0.1495437768
C   C119      1.0  0.77680  0.59990  0.19110  1.0000 -0.1495437768
C   C120      1.0  0.40010  0.17690  0.19110  1.0000 -0.1495437768
C   C121      1.0  0.20250  0.39870  0.44169  1.0000 -0.0279478065
C   C122      1.0  0.60130  0.80380  0.44169  1.0000 -0.0279478065
C   C123      1.0  0.19620  0.79750  0.44169  1.0000 -0.0279478065
C   C124      1.0  0.79750  0.60130  0.94169  1.0000 -0.0279478065
C   C125      1.0  0.39870  0.19620  0.94169  1.0000 -0.0279478065
C   C126      1.0  0.80380  0.20250  0.94169  1.0000 -0.0279478065
C   C127      1.0  0.08100  0.50970  0.67320  1.0000 -0.1203730669
C   C128      1.0  0.49030  0.57130  0.67320  1.0000 -0.1203730669
C   C129      1.0  0.42870  0.91900  0.67320  1.0000 -0.1203730669
C   C130      1.0  0.91900  0.49030  0.17320  1.0000 -0.1203730669
C   C131      1.0  0.50970  0.42870  0.17320  1.0000 -0.1203730669
C   C132      1.0  0.57130  0.08100  0.17320  1.0000 -0.1203730669
C   C133      1.0  0.29800  0.93500  0.20250  1.0000 0.0656844178
C   C134      1.0  0.06500  0.36300  0.20250  1.0000 0.0656844178
C   C135      1.0  0.63700  0.70200  0.20250  1.0000 0.0656844178
C   C136      1.0  0.70200  0.06500  0.70250  1.0000 0.0656844178
C   C137      1.0  0.93500  0.63700  0.70250  1.0000 0.0656844178
C   C138      1.0  0.36300  0.29800  0.70250  1.0000 0.0656844178
C   C139      1.0  0.12710  0.51440  0.39933  1.0000 0.2318270752
C   C140      1.0  0.48560  0.61270  0.39933  1.0000 0.2318270752
C   C141      1.0  0.38730  0.87290  0.39933  1.0000 0.2318270752
C   C142      1.0  0.87290  0.48560  0.89933  1.0000 0.2318270752
C   C143      1.0  0.51440  0.38730  0.89933  1.0000 0.2318270752
C   C144      1.0  0.61270  0.12710  0.89933  1.0000 0.2318270752
C   C145      1.0  0.96610  0.44060  0.62990  1.0000 0.0509698887
C   C146      1.0  0.55940  0.52550  0.62990  1.0000 0.0509698887
C   C147      1.0  0.47450  0.03390  0.62990  1.0000 0.0509698887
C   C148      1.0  0.03390  0.55940  0.12990  1.0000 0.0509698887
C   C149      1.0  0.44060  0.47450  0.12990  1.0000 0.0509698887
C   C150      1.0  0.52550  0.96610  0.12990  1.0000 0.0509698887
C   C151      1.0  0.08500  0.70490  0.58330  1.0000 -0.127761364
C   C152      1.0  0.29510  0.38010  0.58330  1.0000 -0.127761364
C   C153      1.0  0.61990  0.91500  0.58330  1.0000 -0.127761364
C   C154      1.0  0.91500  0.29510  0.08330  1.0000 -0.127761364
C   C155      1.0  0.70490  0.61990  0.08330  1.0000 -0.127761364
C   C156      1.0  0.38010  0.08500  0.08330  1.0000 -0.127761364
C   C157      1.0  0.92870  0.42720  0.58980  1.0000 -0.1715335188
C   C158      1.0  0.57280  0.50150  0.58980  1.0000 -0.1715335188
C   C159      1.0  0.49850  0.07130  0.58980  1.0000 -0.1715335188
C   C160      1.0  0.07130  0.57280  0.08980  1.0000 -0.1715335188
C   C161      1.0  0.42720  0.49850  0.08980  1.0000 -0.1715335188
C   C162      1.0  0.50150  0.92870  0.08980  1.0000 -0.1715335188
C   C163      1.0  0.13300  0.76440  0.65380  1.0000 0.0615223149
C   C164      1.0  0.23560  0.36860  0.65380  1.0000 0.0615223149
C   C165      1.0  0.63140  0.86700  0.65380  1.0000 0.0615223149
C   C166      1.0  0.86700  0.23560  0.15380  1.0000 0.0615223149
C   C167      1.0  0.76440  0.63140  0.15380  1.0000 0.0615223149
C   C168      1.0  0.36860  0.13300  0.15380  1.0000 0.0615223149
C   C169      1.0  0.07820  0.54430  0.59517  1.0000 -0.0279478065
C   C170      1.0  0.45570  0.53390  0.59517  1.0000 -0.0279478065
C   C171      1.0  0.46610  0.92180  0.59517  1.0000 -0.0279478065
C   C172      1.0  0.92180  0.45570  0.09517  1.0000 -0.0279478065
C   C173      1.0  0.54430  0.46610  0.09517  1.0000 -0.0279478065
C   C174      1.0  0.53390  0.07820  0.09517  1.0000 -0.0279478065
C   C175      1.0  0.04300  0.49910  0.63242  1.0000 0.0441695706
C   C176      1.0  0.50090  0.54390  0.63242  1.0000 0.0441695706
C   C177      1.0  0.45610  0.95700  0.63242  1.0000 0.0441695706
C   C178      1.0  0.95700  0.50090  0.13242  1.0000 0.0441695706
C   C179      1.0  0.49910  0.45610  0.13242  1.0000 0.0441695706
C   C180      1.0  0.54390  0.04300  0.13242  1.0000 0.0441695706
C   C181      1.0  0.38740  0.15240  0.37520  1.0000 0.1186968355
C   C182      1.0  0.84760  0.23500  0.37520  1.0000 0.1186968355
C   C183      1.0  0.76500  0.61260  0.37520  1.0000 0.1186968355
C   C184      1.0  0.61260  0.84760  0.87520  1.0000 0.1186968355
C   C185      1.0  0.15240  0.76500  0.87520  1.0000 0.1186968355
C   C186      1.0  0.23500  0.38740  0.87520  1.0000 0.1186968355
C   C187      1.0  0.04290  0.46570  0.70890  1.0000 -0.068778428
C   C188      1.0  0.53430  0.57720  0.70890  1.0000 -0.068778428
C   C189      1.0  0.42280  0.95710  0.70890  1.0000 -0.068778428
C   C190      1.0  0.95710  0.53430  0.20890  1.0000 -0.068778428
C   C191      1.0  0.46570  0.42280  0.20890  1.0000 -0.068778428
C   C192      1.0  0.57720  0.04290  0.20890  1.0000 -0.068778428
C   C193      1.0  0.13170  0.33150  0.44060  1.0000 0.0509698887
C   C194      1.0  0.66850  0.80020  0.44060  1.0000 0.0509698887
C   C195      1.0  0.19980  0.86830  0.44060  1.0000 0.0509698887
C   C196      1.0  0.86830  0.66850  0.94060  1.0000 0.0509698887
C   C197      1.0  0.33150  0.19980  0.94060  1.0000 0.0509698887
C   C198      1.0  0.80020  0.13170  0.94060  1.0000 0.0509698887
C   C199      1.0  0.20100  0.49400  0.27470  1.0000 -0.1388556654
C   C200      1.0  0.50600  0.70700  0.27470  1.0000 -0.1388556654
C   C201      1.0  0.29300  0.79900  0.27470  1.0000 -0.1388556654
C   C202      1.0  0.79900  0.50600  0.77470  1.0000 -0.1388556654
C   C203      1.0  0.49400  0.29300  0.77470  1.0000 -0.1388556654
C   C204      1.0  0.70700  0.20100  0.77470  1.0000 -0.1388556654
C   C205      1.0  0.25210  0.86000  0.12270  1.0000 0.1573882822
C   C206      1.0  0.14000  0.39210  0.12270  1.0000 0.1573882822
C   C207      1.0  0.60790  0.74790  0.12270  1.0000 0.1573882822
C   C208      1.0  0.74790  0.14000  0.62270  1.0000 0.1573882822
C   C209      1.0  0.86000  0.60790  0.62270  1.0000 0.1573882822
C   C210      1.0  0.39210  0.25210  0.62270  1.0000 0.1573882822
C   C211      1.0  0.44700  0.09260  0.39063  1.0000 -0.0762922044
C   C212      1.0  0.90740  0.35440  0.39063  1.0000 -0.0762922044
C   C213      1.0  0.64560  0.55300  0.39063  1.0000 -0.0762922044
C   C214      1.0  0.55300  0.90740  0.89063  1.0000 -0.0762922044
C   C215      1.0  0.09260  0.64560  0.89063  1.0000 -0.0762922044
C   C216      1.0  0.35440  0.44700  0.89063  1.0000 -0.0762922044
C   C217      1.0  0.05020  0.74500  0.57820  1.0000 -0.1019345041
C   C218      1.0  0.25500  0.30520  0.57820  1.0000 -0.1019345041
C   C219      1.0  0.69480  0.94980  0.57820  1.0000 -0.1019345041
C   C220      1.0  0.94980  0.25500  0.07820  1.0000 -0.1019345041
C   C221      1.0  0.74500  0.69480  0.07820  1.0000 -0.1019345041
C   C222      1.0  0.30520  0.05020  0.07820  1.0000 -0.1019345041
C   C223      1.0  0.26900  0.84970  0.04430  1.0000 0.1302661026
C   C224      1.0  0.15030  0.41930  0.04430  1.0000 0.1302661026
C   C225      1.0  0.58070  0.73100  0.04430  1.0000 0.1302661026
C   C226      1.0  0.73100  0.15030  0.54430  1.0000 0.1302661026
C   C227      1.0  0.84970  0.58070  0.54430  1.0000 0.1302661026
C   C228      1.0  0.41930  0.26900  0.54430  1.0000 0.1302661026
C   C229      1.0  0.96790  0.41140  0.70650  1.0000 -0.0913705214
C   C230      1.0  0.58860  0.55650  0.70650  1.0000 -0.0913705214
C   C231      1.0  0.44350  0.03210  0.70650  1.0000 -0.0913705214
C   C232      1.0  0.03210  0.58860  0.20650  1.0000 -0.0913705214
C   C233      1.0  0.41140  0.44350  0.20650  1.0000 -0.0913705214
C   C234      1.0  0.55650  0.96790  0.20650  1.0000 -0.0913705214
C   C235      1.0  0.28770  0.46320  0.30730  1.0000 -0.0913705214
C   C236      1.0  0.53680  0.82450  0.30730  1.0000 -0.0913705214
C   C237      1.0  0.17550  0.71230  0.30730  1.0000 -0.0913705214
C   C238      1.0  0.71230  0.53680  0.80730  1.0000 -0.0913705214
C   C239      1.0  0.46320  0.17550  0.80730  1.0000 -0.0913705214
C   C240      1.0  0.82450  0.28770  0.80730  1.0000 -0.0913705214
C   C241      1.0  0.19610  0.25880  0.44300  1.0000 -0.1388556654
C   C242      1.0  0.74120  0.93730  0.44300  1.0000 -0.1388556654
C   C243      1.0  0.06270  0.80390  0.44300  1.0000 -0.1388556654
C   C244      1.0  0.80390  0.74120  0.94300  1.0000 -0.1388556654
C   C245      1.0  0.25880  0.06270  0.94300  1.0000 -0.1388556654
C   C246      1.0  0.93730  0.19610  0.94300  1.0000 -0.1388556654
C   C247      1.0  0.26400  0.46840  0.34850  1.0000 -0.1203730669
C   C248      1.0  0.53160  0.79560  0.34850  1.0000 -0.1203730669
C   C249      1.0  0.20440  0.73600  0.34850  1.0000 -0.1203730669
C   C250      1.0  0.73600  0.53160  0.84850  1.0000 -0.1203730669
C   C251      1.0  0.46840  0.20440  0.84850  1.0000 -0.1203730669
C   C252      1.0  0.79560  0.26400  0.84850  1.0000 -0.1203730669
C   C253      1.0  0.25610  0.47680  0.26980  1.0000 -0.1101663826
C   C254      1.0  0.52320  0.77930  0.26980  1.0000 -0.1101663826
C   C255      1.0  0.22070  0.74390  0.26980  1.0000 -0.1101663826
C   C256      1.0  0.74390  0.52320  0.76980  1.0000 -0.1101663826
C   C257      1.0  0.47680  0.22070  0.76980  1.0000 -0.1101663826
C   C258      1.0  0.77930  0.25610  0.76980  1.0000 -0.1101663826
C   C259      1.0  0.05210  0.79370  0.61000  1.0000 -0.1019345041
C   C260      1.0  0.20630  0.25840  0.61000  1.0000 -0.1019345041
C   C261      1.0  0.74160  0.94790  0.61000  1.0000 -0.1019345041
C   C262      1.0  0.94790  0.20630  0.11000  1.0000 -0.1019345041
C   C263      1.0  0.79370  0.74160  0.11000  1.0000 -0.1019345041
C   C264      1.0  0.25840  0.05210  0.11000  1.0000 -0.1019345041
C   C265      1.0  0.99740  0.26620  0.43930  1.0000 -0.0913705214
C   C266      1.0  0.73380  0.73120  0.43930  1.0000 -0.0913705214
C   C267      1.0  0.26880  0.00260  0.43930  1.0000 -0.0913705214
C   C268      1.0  0.00260  0.73380  0.93930  1.0000 -0.0913705214
C   C269      1.0  0.26620  0.26880  0.93930  1.0000 -0.0913705214
C   C270      1.0  0.73120  0.99740  0.93930  1.0000 -0.0913705214
C   C271      1.0  0.46080  0.14310  0.42226  1.0000 -0.04918488
C   C272      1.0  0.85690  0.31770  0.42226  1.0000 -0.04918488
C   C273      1.0  0.68230  0.53920  0.42226  1.0000 -0.04918488
C   C274      1.0  0.53920  0.85690  0.92226  1.0000 -0.04918488
C   C275      1.0  0.14310  0.68230  0.92226  1.0000 -0.04918488
C   C276      1.0  0.31770  0.46080  0.92226  1.0000 -0.04918488
C   C277      1.0  0.06310  0.33160  0.44050  1.0000 -0.127761364
C   C278      1.0  0.66840  0.73150  0.44050  1.0000 -0.127761364
C   C279      1.0  0.26850  0.93690  0.44050  1.0000 -0.127761364
C   C280      1.0  0.93690  0.66840  0.94050  1.0000 -0.127761364
C   C281      1.0  0.33160  0.26850  0.94050  1.0000 -0.127761364
C   C282      1.0  0.73150  0.06310  0.94050  1.0000 -0.127761364
C   C283      1.0  0.09240  0.80360  0.64800  1.0000 -0.1495437768
C   C284      1.0  0.19640  0.28880  0.64800  1.0000 -0.1495437768
C   C285      1.0  0.71120  0.90760  0.64800  1.0000 -0.1495437768
C   C286      1.0  0.90760  0.19640  0.14800  1.0000 -0.1495437768
C   C287      1.0  0.80360  0.71120  0.14800  1.0000 -0.1495437768
C   C288      1.0  0.28880  0.09240  0.14800  1.0000 -0.1495437768
C   C289      1.0  0.93050  0.39840  0.66790  1.0000 -0.1580432083
C   C290      1.0  0.60160  0.53210  0.66790  1.0000 -0.1580432083
C   C291      1.0  0.46790  0.06950  0.66790  1.0000 -0.1580432083
C   C292      1.0  0.06950  0.60160  0.16790  1.0000 -0.1580432083
C   C293      1.0  0.39840  0.46790  0.16790  1.0000 -0.1580432083
C   C294      1.0  0.53210  0.93050  0.16790  1.0000 -0.1580432083
C   C295      1.0  0.22320  0.89080  0.19260  1.0000 -0.127761364
C   C296      1.0  0.10920  0.33240  0.19260  1.0000 -0.127761364
C   C297      1.0  0.66760  0.77680  0.19260  1.0000 -0.127761364
C   C298      1.0  0.77680  0.10920  0.69260  1.0000 -0.127761364
C   C299      1.0  0.89080  0.66760  0.69260  1.0000 -0.127761364
C   C300      1.0  0.33240  0.22320  0.69260  1.0000 -0.127761364
C   C301      1.0  0.19870  0.85570  0.15260  1.0000 -0.1715335188
C   C302      1.0  0.14430  0.34300  0.15260  1.0000 -0.1715335188
C   C303      1.0  0.65700  0.80130  0.15260  1.0000 -0.1715335188
C   C304      1.0  0.80130  0.14430  0.65260  1.0000 -0.1715335188
C   C305      1.0  0.85570  0.65700  0.65260  1.0000 -0.1715335188
C   C306      1.0  0.34300  0.19870  0.65260  1.0000 -0.1715335188
C   C307      1.0  0.42550  0.06330  0.28961  1.0000 -0.1388556654
C   C308      1.0  0.93670  0.36220  0.28961  1.0000 -0.1388556654
C   C309      1.0  0.63780  0.57450  0.28961  1.0000 -0.1388556654
C   C310      1.0  0.57450  0.93670  0.78961  1.0000 -0.1388556654
C   C311      1.0  0.06330  0.63780  0.78961  1.0000 -0.1388556654
C   C312      1.0  0.36220  0.42550  0.78961  1.0000 -0.1388556654
C   C313      1.0  0.40020  0.02340  0.25087  1.0000 -0.1203730669
C   C314      1.0  0.97660  0.37680  0.25087  1.0000 -0.1203730669
C   C315      1.0  0.62320  0.59980  0.25087  1.0000 -0.1203730669
C   C316      1.0  0.59980  0.97660  0.75087  1.0000 -0.1203730669
C   C317      1.0  0.02340  0.62320  0.75087  1.0000 -0.1203730669
C   C318      1.0  0.37680  0.40020  0.75087  1.0000 -0.1203730669
C   C319      1.0  0.32390  0.97690  0.24394  1.0000 0.0656844178
C   C320      1.0  0.02310  0.34700  0.24394  1.0000 0.0656844178
C   C321      1.0  0.65300  0.67610  0.24394  1.0000 0.0656844178
C   C322      1.0  0.67610  0.02310  0.74394  1.0000 0.0656844178
C   C323      1.0  0.97690  0.65300  0.74394  1.0000 0.0656844178
C   C324      1.0  0.34700  0.32390  0.74394  1.0000 0.0656844178
C   C325      1.0  0.27300  0.97040  0.27570  1.0000 -0.1203730669
C   C326      1.0  0.02960  0.30260  0.27570  1.0000 -0.1203730669
C   C327      1.0  0.69740  0.72700  0.27570  1.0000 -0.1203730669
C   C328      1.0  0.72700  0.02960  0.77570  1.0000 -0.1203730669
C   C329      1.0  0.97040  0.69740  0.77570  1.0000 -0.1203730669
C   C330      1.0  0.30260  0.27300  0.77570  1.0000 -0.1203730669
C   C331      1.0  0.29830  0.01040  0.31448  1.0000 -0.1715335188
C   C332      1.0  0.98960  0.28790  0.31448  1.0000 -0.1715335188
C   C333      1.0  0.71210  0.70170  0.31448  1.0000 -0.1715335188
C   C334      1.0  0.70170  0.98960  0.81448  1.0000 -0.1715335188
C   C335      1.0  0.01040  0.71210  0.81448  1.0000 -0.1715335188
C   C336      1.0  0.28790  0.29830  0.81448  1.0000 -0.1715335188
C   C337      1.0  0.37460  0.05690  0.32142  1.0000 0.1573882822
C   C338      1.0  0.94310  0.31770  0.32142  1.0000 0.1573882822
C   C339      1.0  0.68230  0.62540  0.32142  1.0000 0.1573882822
C   C340      1.0  0.62540  0.94310  0.82142  1.0000 0.1573882822
C   C341      1.0  0.05690  0.68230  0.82142  1.0000 0.1573882822
C   C342      1.0  0.31770  0.37460  0.82142  1.0000 0.1573882822
C   C343      1.0  0.12860  0.26070  0.44060  1.0000 0.0615223149
C   C344      1.0  0.73930  0.86790  0.44060  1.0000 0.0615223149
C   C345      1.0  0.13210  0.87140  0.44060  1.0000 0.0615223149
C   C346      1.0  0.87140  0.73930  0.94060  1.0000 0.0615223149
C   C347      1.0  0.26070  0.13210  0.94060  1.0000 0.0615223149
C   C348      1.0  0.86790  0.12860  0.94060  1.0000 0.0615223149
C   C349      1.0  0.16000  0.76080  0.02580  1.0000 -0.0220157539
C   C350      1.0  0.23920  0.39920  0.02580  1.0000 -0.0220157539
C   C351      1.0  0.60080  0.84000  0.02580  1.0000 -0.0220157539
C   C352      1.0  0.84000  0.23920  0.52580  1.0000 -0.0220157539
C   C353      1.0  0.76080  0.60080  0.52580  1.0000 -0.0220157539
C   C354      1.0  0.39920  0.16000  0.52580  1.0000 -0.0220157539
C   C355      1.0  0.15580  0.77250  0.06790  1.0000 -0.1101663826
C   C356      1.0  0.22750  0.38330  0.06790  1.0000 -0.1101663826
C   C357      1.0  0.61670  0.84420  0.06790  1.0000 -0.1101663826
C   C358      1.0  0.84420  0.22750  0.56790  1.0000 -0.1101663826
C   C359      1.0  0.77250  0.61670  0.56790  1.0000 -0.1101663826
C   C360      1.0  0.38330  0.15580  0.56790  1.0000 -0.1101663826
C   C361      1.0  0.32450  0.90160  0.13190  1.0000 -0.1495437768
C   C362      1.0  0.09840  0.42290  0.13190  1.0000 -0.1495437768
C   C363      1.0  0.57710  0.67550  0.13190  1.0000 -0.1495437768
C   C364      1.0  0.67550  0.09840  0.63190  1.0000 -0.1495437768
C   C365      1.0  0.90160  0.57710  0.63190  1.0000 -0.1495437768
C   C366      1.0  0.42290  0.32450  0.63190  1.0000 -0.1495437768
C   C367      1.0  0.05810  0.19280  0.43890  1.0000 -0.1388556654
C   C368      1.0  0.80720  0.86530  0.43890  1.0000 -0.1388556654
C   C369      1.0  0.13470  0.94190  0.43890  1.0000 -0.1388556654
C   C370      1.0  0.94190  0.80720  0.93890  1.0000 -0.1388556654
C   C371      1.0  0.19280  0.13470  0.93890  1.0000 -0.1388556654
C   C372      1.0  0.86530  0.05810  0.93890  1.0000 -0.1388556654
C   C373      1.0  0.34900  0.94240  0.17100  1.0000 -0.1101663826
C   C374      1.0  0.05760  0.40660  0.17100  1.0000 -0.1101663826
C   C375      1.0  0.59340  0.65100  0.17100  1.0000 -0.1101663826
C   C376      1.0  0.65100  0.05760  0.67100  1.0000 -0.1101663826
C   C377      1.0  0.94240  0.59340  0.67100  1.0000 -0.1101663826
C   C378      1.0  0.40660  0.34900  0.67100  1.0000 -0.1101663826
C   C379      1.0  0.99430  0.19580  0.43710  1.0000 -0.1019345041
C   C380      1.0  0.80420  0.79850  0.43710  1.0000 -0.1019345041
C   C381      1.0  0.20150  0.00570  0.43710  1.0000 -0.1019345041
C   C382      1.0  0.00570  0.80420  0.93710  1.0000 -0.1101663826
C   C383      1.0  0.19580  0.20150  0.93710  1.0000 -0.1101663826
C   C384      1.0  0.79850  0.99430  0.93710  1.0000 -0.1101663826
N   N1        1.0  0.23130  0.80880  0.01016  1.0000 -0.2784893911
N   N2        1.0  0.19120  0.42250  0.01016  1.0000 -0.2784893911
N   N3        1.0  0.57750  0.76870  0.01016  1.0000 -0.2784893911
N   N4        1.0  0.76870  0.19120  0.51016  1.0000 -0.2784893911
N   N5        1.0  0.80880  0.57750  0.51016  1.0000 -0.2784893911
N   N6        1.0  0.42250  0.23130  0.51016  1.0000 -0.2784893911
N   N7        1.0  0.42210  0.18040  0.41217  1.0000 -0.2931766412
N   N8        1.0  0.81960  0.24170  0.41217  1.0000 -0.2931766412
N   N9        1.0  0.75830  0.57790  0.41217  1.0000 -0.2931766412
N   N10       1.0  0.57790  0.81960  0.91217  1.0000 -0.2931766412
N   N11       1.0  0.18040  0.75830  0.91217  1.0000 -0.2931766412
N   N12       1.0  0.24170  0.42210  0.91217  1.0000 -0.2931766412
N   N13       1.0  0.40090  0.09870  0.36053  1.0000 0.0123820088
N   N14       1.0  0.90130  0.30220  0.36053  1.0000 0.0123820088
N   N15       1.0  0.69780  0.59910  0.36053  1.0000 0.0123820088
N   N16       1.0  0.59910  0.90130  0.86053  1.0000 0.0123820088
N   N17       1.0  0.09870  0.69780  0.86053  1.0000 0.0123820088
N   N18       1.0  0.30220  0.40090  0.86053  1.0000 0.0123820088
N   N19       1.0  0.51440  0.35560  0.42493  1.0000 -0.7692573171
N   N20       1.0  0.64440  0.15880  0.42493  1.0000 -0.7692573171
N   N21       1.0  0.84120  0.48560  0.42493  1.0000 -0.7692573171
N   N22       1.0  0.48560  0.64440  0.92493  1.0000 -0.7692573171
N   N23       1.0  0.35560  0.84120  0.92493  1.0000 -0.7692573171
N   N24       1.0  0.15880  0.51440  0.92493  1.0000 -0.7692573171
N   N25       1.0  0.22720  0.82700  0.08030  1.0000 0.0123820088
N   N26       1.0  0.17300  0.40020  0.08030  1.0000 0.0123820088
N   N27       1.0  0.59980  0.77280  0.08030  1.0000 0.0123820088
N   N28       1.0  0.77280  0.17300  0.58030  1.0000 0.0123820088
N   N29       1.0  0.82700  0.59980  0.58030  1.0000 0.0123820088
N   N30       1.0  0.40020  0.22720  0.58030  1.0000 0.0123820088
O   O1        1.0  0.95769  0.47203  0.47506  1.0000 -0.6366449545
O   O2        1.0  0.52797  0.48566  0.47506  1.0000 -0.6366449545
O   O3        1.0  0.51434  0.04231  0.47506  1.0000 -0.6366449545
O   O4        1.0  0.04231  0.52797  0.97506  1.0000 -0.6366449545
O   O5        1.0  0.47203  0.51434  0.97506  1.0000 -0.6366449545
O   O6        1.0  0.48566  0.95769  0.97506  1.0000 -0.6366449545
O   O7        1.0  0.38906  0.37063  0.47091  1.0000 -0.621805802
O   O8        1.0  0.62937  0.01843  0.47091  1.0000 -0.621805802
O   O9        1.0  0.98157  0.61094  0.47091  1.0000 -0.621805802
O   O10       1.0  0.61094  0.62937  0.97091  1.0000 -0.621805802
O   O11       1.0  0.37063  0.98157  0.97091  1.0000 -0.621805802
O   O12       1.0  0.01843  0.38906  0.97091  1.0000 -0.621805802
O   O13       1.0  0.33362  0.45708  0.44972  1.0000 -0.621805802
O   O14       1.0  0.54292  0.87654  0.44972  1.0000 -0.621805802
O   O15       1.0  0.12346  0.66638  0.44972  1.0000 -0.621805802
O   O16       1.0  0.66638  0.54292  0.94972  1.0000 -0.621805802
O   O17       1.0  0.45708  0.12346  0.94972  1.0000 -0.621805802
O   O18       1.0  0.87654  0.33362  0.94972  1.0000 -0.621805802
O   O19       1.0  0.07401  0.56752  0.51997  1.0000 -0.621805802
O   O20       1.0  0.43248  0.50649  0.51997  1.0000 -0.621805802
O   O21       1.0  0.49351  0.92599  0.51997  1.0000 -0.621805802
O   O22       1.0  0.92599  0.43248  0.01997  1.0000 -0.621805802
O   O23       1.0  0.56752  0.49351  0.01997  1.0000 -0.621805802
O   O24       1.0  0.50649  0.07401  0.01997  1.0000 -0.621805802
O   O25       1.0  0.10636  0.52489  0.43937  1.0000 -0.621805802
O   O26       1.0  0.47511  0.58147  0.43937  1.0000 -0.621805802
O   O27       1.0  0.41853  0.89364  0.43937  1.0000 -0.621805802
O   O28       1.0  0.89364  0.47511  0.93937  1.0000 -0.621805802
O   O29       1.0  0.52489  0.41853  0.93937  1.0000 -0.621805802
O   O30       1.0  0.58147  0.10636  0.93937  1.0000 -0.621805802
O   O31       1.0  0.25083  0.65208  0.66942  1.0000 -0.606488814
O   O32       1.0  0.34792  0.59875  0.66942  1.0000 -0.606488814
O   O33       1.0  0.40125  0.74917  0.66942  1.0000 -0.606488814
O   O34       1.0  0.74917  0.34792  0.16942  1.0000 -0.606488814
O   O35       1.0  0.65208  0.40125  0.16942  1.0000 -0.606488814
O   O36       1.0  0.59875  0.25083  0.16942  1.0000 -0.606488814
O   O37       1.0  0.00800  0.55430  0.32815  1.0000 -0.5095653634
O   O38       1.0  0.44570  0.45370  0.32815  1.0000 -0.5095653634
O   O39       1.0  0.54630  0.99200  0.32815  1.0000 -0.5095653634
O   O40       1.0  0.99200  0.44570  0.82815  1.0000 -0.5095653634
O   O41       1.0  0.55430  0.54630  0.82815  1.0000 -0.5095653634
O   O42       1.0  0.45370  0.00800  0.82815  1.0000 -0.5095653634
O   O43       1.0  0.00869  0.55135  0.40020  1.0000 -0.6366449545
O   O44       1.0  0.44865  0.45734  0.40020  1.0000 -0.6366449545
O   O45       1.0  0.54266  0.99131  0.40020  1.0000 -0.6366449545
O   O46       1.0  0.99131  0.44865  0.90020  1.0000 -0.6366449545
O   O47       1.0  0.55135  0.54266  0.90020  1.0000 -0.6366449545
O   O48       1.0  0.45734  0.00869  0.90020  1.0000 -0.6366449545
O   O49       1.0  0.30460  0.72580  0.74223  1.0000 -0.606488814
O   O50       1.0  0.27420  0.57880  0.74223  1.0000 -0.606488814
O   O51       1.0  0.42120  0.69540  0.74223  1.0000 -0.606488814
O   O52       1.0  0.69540  0.27420  0.24223  1.0000 -0.606488814
O   O53       1.0  0.72580  0.42120  0.24223  1.0000 -0.606488814
O   O54       1.0  0.57880  0.30460  0.24223  1.0000 -0.606488814
O   O55       1.0  0.33020  0.25905  0.44034  1.0000 -0.5095653634
O   O56       1.0  0.74095  0.07115  0.44034  1.0000 -0.5095653634
O   O57       1.0  0.92885  0.66980  0.44034  1.0000 -0.5095653634
O   O58       1.0  0.66980  0.74095  0.94034  1.0000 -0.5095653634
O   O59       1.0  0.25905  0.92885  0.94034  1.0000 -0.5095653634
O   O60       1.0  0.07115  0.33020  0.94034  1.0000 -0.5095653634
O   O61       1.0  0.85280  0.40760  0.51123  1.0000 -0.5095653634
O   O62       1.0  0.59240  0.44520  0.51123  1.0000 -0.5095653634
O   O63       1.0  0.55480  0.14720  0.51123  1.0000 -0.5095653634
O   O64       1.0  0.14720  0.59240  0.01123  1.0000 -0.5095653634
O   O65       1.0  0.40760  0.55480  0.01123  1.0000 -0.5095653634
O   O66       1.0  0.44520  0.85280  0.01123  1.0000 -0.5095653634
O   O67       1.0  0.25690  0.79320  0.76696  1.0000 -0.5310183863
O   O68       1.0  0.20680  0.46370  0.76696  1.0000 -0.5310183863
O   O69       1.0  0.53630  0.74310  0.76696  1.0000 -0.5310183863
O   O70       1.0  0.74310  0.20680  0.26696  1.0000 -0.5310183863
O   O71       1.0  0.79320  0.53630  0.26696  1.0000 -0.5310183863
O   O72       1.0  0.46370  0.25690  0.26696  1.0000 -0.5310183863
