# DDEC6 charges by PACMAN v1.1 (https://github.com/mtap-research/PACMAN-charge/)
data_2023[Hf][flu]3[ASR]4
_chemical_formula_sum              "Hf6 H42 C74 N4 O24"
_cell_length_a       18.8136
_cell_length_b       18.8136
_cell_length_c       16.554
_cell_angle_alpha    85.9695
_cell_angle_beta     94.0305
_cell_angle_gamma    45.3651

_symmetry_space_group_name_H-M    "P 1"
_symmetry_Int_Tables_number       1

loop_
  _symmetry_equiv_pos_as_xyz
  'x, y, z'

loop_
  _atom_site_type_symbol
  _atom_site_label
  _atom_site_symmetry_multiplicity
  _atom_site_fract_x
  _atom_site_fract_y
  _atom_site_fract_z
  _atom_site_occupancy
  _atom_site_charge
Hf  Hf1       1.0  0.93324  0.16848  0.01540  1.0000 1.5672445717
Hf  Hf2       1.0  0.16848  0.93324  0.98460  1.0000 1.5672445717
Hf  Hf3       1.0  0.06676  0.83152  0.98460  1.0000 1.5625746074
Hf  Hf4       1.0  0.83152  0.06676  0.01540  1.0000 1.5625746074
Hf  Hf5       1.0  0.05495  0.94505  0.14845  1.0000 1.4796441021
Hf  Hf6       1.0  0.94505  0.05495  0.85155  1.0000 1.4879709901
H   H1        1.0  0.81290  0.95130  0.54240  1.0000 0.1185232733
H   H2        1.0  0.87390  0.98430  0.64360  1.0000 0.1264482336
H   H3        1.0  0.95830  0.68250  0.68030  1.0000 0.1185232733
H   H4        1.0  0.02350  0.71170  0.78070  1.0000 0.1106912545
H   H5        1.0  0.62570  0.78450  0.38580  1.0000 0.1185232733
H   H6        1.0  0.30310  0.80910  0.33630  1.0000 0.1185232733
H   H7        1.0  0.57890  0.74510  0.26850  1.0000 0.1106912545
H   H8        1.0  0.43300  0.74920  0.44110  1.0000 0.1106912545
H   H9        1.0  0.44920  0.79920  0.16310  1.0000 0.1106912545
H   H10       1.0  0.81040  0.72480  0.61910  1.0000 0.298331392
H   H11       1.0  0.95130  0.81290  0.45760  1.0000 0.1185232733
H   H12       1.0  0.98430  0.87390  0.35640  1.0000 0.1264482336
H   H13       1.0  0.68250  0.95830  0.31970  1.0000 0.1185232733
H   H14       1.0  0.71170  0.02350  0.21930  1.0000 0.1106912545
H   H15       1.0  0.78450  0.62570  0.61420  1.0000 0.1185232733
H   H16       1.0  0.80910  0.30310  0.66370  1.0000 0.1185232733
H   H17       1.0  0.74510  0.57890  0.73150  1.0000 0.1106912545
H   H18       1.0  0.74920  0.43300  0.55890  1.0000 0.1106912545
H   H19       1.0  0.79920  0.44920  0.83690  1.0000 0.1106912545
H   H20       1.0  0.72480  0.81040  0.38090  1.0000 0.298331392
H   H21       1.0  0.18710  0.04870  0.45760  1.0000 0.1185232733
H   H22       1.0  0.12610  0.01570  0.35640  1.0000 0.1264482336
H   H23       1.0  0.04170  0.31750  0.31970  1.0000 0.1185232733
H   H24       1.0  0.97650  0.28830  0.21930  1.0000 0.1106912545
H   H25       1.0  0.37430  0.21550  0.61420  1.0000 0.1185232733
H   H26       1.0  0.69690  0.19090  0.66370  1.0000 0.1185232733
H   H27       1.0  0.42110  0.25490  0.73150  1.0000 0.1106912545
H   H28       1.0  0.56700  0.25080  0.55890  1.0000 0.1106912545
H   H29       1.0  0.55080  0.20080  0.83690  1.0000 0.1106912545
H   H30       1.0  0.18960  0.27520  0.38090  1.0000 0.298331392
H   H31       1.0  0.04870  0.18710  0.54240  1.0000 0.1185232733
H   H32       1.0  0.01570  0.12610  0.64360  1.0000 0.1264482336
H   H33       1.0  0.31750  0.04170  0.68030  1.0000 0.1185232733
H   H34       1.0  0.28830  0.97650  0.78070  1.0000 0.1106912545
H   H35       1.0  0.21550  0.37430  0.38580  1.0000 0.1185232733
H   H36       1.0  0.19090  0.69690  0.33630  1.0000 0.1185232733
H   H37       1.0  0.25490  0.42110  0.26850  1.0000 0.1106912545
H   H38       1.0  0.25080  0.56700  0.44110  1.0000 0.1106912545
H   H39       1.0  0.20080  0.55080  0.16310  1.0000 0.1106912545
H   H40       1.0  0.27520  0.18960  0.61910  1.0000 0.298331392
H   H41       1.0  0.60440  0.60440  0.50000  1.0000 0.1185232733
H   H42       1.0  0.39560  0.39560  0.50000  1.0000 0.1185232733
C   C1        1.0  0.99440  0.87100  0.78880  1.0000 0.5588741275
C   C2        1.0  0.27700  0.84040  0.18600  1.0000 0.5505811544
C   C3        1.0  0.95940  0.84800  0.72240  1.0000 -0.0471034767
C   C4        1.0  0.87360  0.81680  0.60110  1.0000 0.0571325878
C   C5        1.0  0.82690  0.79950  0.54240  1.0000 0.0515492047
C   C6        1.0  0.85410  0.90330  0.59160  1.0000 -0.1726624342
C   C7        1.0  0.60000  0.70260  0.43340  1.0000 0.0869050929
C   C8        1.0  0.89230  0.92230  0.65070  1.0000 -0.0731508191
C   C9        1.0  0.94060  0.74420  0.67290  1.0000 -0.1793445805
C   C10       1.0  0.98070  0.76090  0.73230  1.0000 -0.0731508191
C   C11       1.0  0.64310  0.73970  0.43260  1.0000 -0.2089404119
C   C12       1.0  0.36310  0.81130  0.24090  1.0000 -0.0313462829
C   C13       1.0  0.52270  0.73550  0.36540  1.0000 0.0772246244
C   C14       1.0  0.35950  0.79510  0.32230  1.0000 -0.093099839
C   C15       1.0  0.52460  0.75520  0.28270  1.0000 -0.1793445805
C   C16       1.0  0.43760  0.75840  0.38530  1.0000 -0.1726624342
C   C17       1.0  0.44520  0.79040  0.21930  1.0000 -0.0797312772
C   C18       1.0  0.87100  0.99440  0.21120  1.0000 0.5588741275
C   C19       1.0  0.84040  0.27700  0.81400  1.0000 0.5505811544
C   C20       1.0  0.84800  0.95940  0.27760  1.0000 -0.0471034767
C   C21       1.0  0.81680  0.87360  0.39890  1.0000 0.0571325878
C   C22       1.0  0.79950  0.82690  0.45760  1.0000 0.0515492047
C   C23       1.0  0.90330  0.85410  0.40840  1.0000 -0.1726624342
C   C24       1.0  0.70260  0.60000  0.56660  1.0000 0.0869050929
C   C25       1.0  0.92230  0.89230  0.34930  1.0000 -0.0731508191
C   C26       1.0  0.74420  0.94060  0.32710  1.0000 -0.1793445805
C   C27       1.0  0.76090  0.98070  0.26770  1.0000 -0.0731508191
C   C28       1.0  0.73970  0.64310  0.56740  1.0000 -0.2089404119
C   C29       1.0  0.81130  0.36310  0.75910  1.0000 -0.0313462829
C   C30       1.0  0.73550  0.52270  0.63460  1.0000 0.0772246244
C   C31       1.0  0.79510  0.35950  0.67770  1.0000 -0.093099839
C   C32       1.0  0.75520  0.52460  0.71730  1.0000 -0.1793445805
C   C33       1.0  0.75840  0.43760  0.61470  1.0000 -0.1726624342
C   C34       1.0  0.79040  0.44520  0.78070  1.0000 -0.0797312772
C   C35       1.0  0.00560  0.12900  0.21120  1.0000 0.5588741275
C   C36       1.0  0.72300  0.15960  0.81400  1.0000 0.5505811544
C   C37       1.0  0.04060  0.15200  0.27760  1.0000 -0.0471034767
C   C38       1.0  0.12640  0.18320  0.39890  1.0000 0.0571325878
C   C39       1.0  0.17310  0.20050  0.45760  1.0000 0.0515492047
C   C40       1.0  0.14590  0.09670  0.40840  1.0000 -0.1726624342
C   C41       1.0  0.40000  0.29740  0.56660  1.0000 0.0869050929
C   C42       1.0  0.10770  0.07770  0.34930  1.0000 -0.0731508191
C   C43       1.0  0.05940  0.25580  0.32710  1.0000 -0.1793445805
C   C44       1.0  0.01930  0.23910  0.26770  1.0000 -0.0731508191
C   C45       1.0  0.35690  0.26030  0.56740  1.0000 -0.2089404119
C   C46       1.0  0.63690  0.18870  0.75910  1.0000 -0.0313462829
C   C47       1.0  0.47730  0.26450  0.63460  1.0000 0.0772246244
C   C48       1.0  0.64050  0.20490  0.67770  1.0000 -0.093099839
C   C49       1.0  0.47540  0.24480  0.71730  1.0000 -0.1793445805
C   C50       1.0  0.56240  0.24160  0.61470  1.0000 -0.1726624342
C   C51       1.0  0.55480  0.20960  0.78070  1.0000 -0.0797312772
C   C52       1.0  0.12900  0.00560  0.78880  1.0000 0.5588741275
C   C53       1.0  0.15960  0.72300  0.18600  1.0000 0.5505811544
C   C54       1.0  0.15200  0.04060  0.72240  1.0000 -0.0471034767
C   C55       1.0  0.18320  0.12640  0.60110  1.0000 0.0571325878
C   C56       1.0  0.20050  0.17310  0.54240  1.0000 0.0515492047
C   C57       1.0  0.09670  0.14590  0.59160  1.0000 -0.1726624342
C   C58       1.0  0.29740  0.40000  0.43340  1.0000 0.0869050929
C   C59       1.0  0.07770  0.10770  0.65070  1.0000 -0.0731508191
C   C60       1.0  0.25580  0.05940  0.67290  1.0000 -0.1793445805
C   C61       1.0  0.23910  0.01930  0.73230  1.0000 -0.0731508191
C   C62       1.0  0.26030  0.35690  0.43260  1.0000 -0.2089404119
C   C63       1.0  0.18870  0.63690  0.24090  1.0000 -0.0313462829
C   C64       1.0  0.26450  0.47730  0.36540  1.0000 0.0772246244
C   C65       1.0  0.20490  0.64050  0.32230  1.0000 -0.093099839
C   C66       1.0  0.24480  0.47540  0.28270  1.0000 -0.1793445805
C   C67       1.0  0.24160  0.56240  0.38530  1.0000 -0.1726624342
C   C68       1.0  0.20960  0.55480  0.21930  1.0000 -0.0797312772
C   C69       1.0  0.75370  0.75370  0.50000  1.0000 0.1995453882
C   C70       1.0  0.71160  0.71160  0.50000  1.0000 0.0257850783
C   C71       1.0  0.63170  0.63170  0.50000  1.0000 -0.1897769896
C   C72       1.0  0.24630  0.24630  0.50000  1.0000 0.1995453882
C   C73       1.0  0.28840  0.28840  0.50000  1.0000 0.0257850783
C   C74       1.0  0.36830  0.36830  0.50000  1.0000 -0.1897769896
N   N1        1.0  0.80000  0.75160  0.56840  1.0000 -0.3062376259
N   N2        1.0  0.75160  0.80000  0.43160  1.0000 -0.3062376259
N   N3        1.0  0.20000  0.24840  0.43160  1.0000 -0.3047005115
N   N4        1.0  0.24840  0.20000  0.56840  1.0000 -0.3047005115
O   O1        1.0  0.04210  0.81150  0.85510  1.0000 -0.5054321863
O   O2        1.0  0.96437  0.95197  0.76940  1.0000 -0.480238202
O   O3        1.0  0.20650  0.87030  0.20550  1.0000 -0.480238202
O   O4        1.0  0.28260  0.86140  0.10220  1.0000 -0.5485787867
O   O5        1.0  0.07940  0.02380  0.07180  1.0000 -0.7362593987
O   O6        1.0  0.81150  0.04210  0.14490  1.0000 -0.5043044863
O   O7        1.0  0.95197  0.96437  0.23060  1.0000 -0.480238202
O   O8        1.0  0.87030  0.20650  0.79450  1.0000 -0.480238202
O   O9        1.0  0.86140  0.28260  0.89780  1.0000 -0.5485787867
O   O10       1.0  0.02380  0.07940  0.92820  1.0000 -0.7305431543
O   O11       1.0  0.95790  0.18850  0.14490  1.0000 -0.5054321863
O   O12       1.0  0.03563  0.04803  0.23060  1.0000 -0.480238202
O   O13       1.0  0.79350  0.12970  0.79450  1.0000 -0.480238202
O   O14       1.0  0.71740  0.13860  0.89780  1.0000 -0.5485787867
O   O15       1.0  0.92060  0.97620  0.92820  1.0000 -0.7362593987
O   O16       1.0  0.18850  0.95790  0.85510  1.0000 -0.5054321863
O   O17       1.0  0.04803  0.03563  0.76940  1.0000 -0.480238202
O   O18       1.0  0.12970  0.79350  0.20550  1.0000 -0.480238202
O   O19       1.0  0.13860  0.71740  0.10220  1.0000 -0.5485787867
O   O20       1.0  0.97620  0.92060  0.07180  1.0000 -0.7362593987
O   O21       1.0  0.14540  0.85460  0.05810  1.0000 -0.7305431543
O   O22       1.0  0.91400  0.08600  0.08460  1.0000 -0.7528960286
O   O23       1.0  0.85460  0.14540  0.94190  1.0000 -0.7305431543
O   O24       1.0  0.08600  0.91400  0.91540  1.0000 -0.7568754731
