# DDEC6 charges by PACMAN v1.1 (https://github.com/mtap-research/PACMAN-charge/)
data_2023[Nd][nan]3[ASR]1
_chemical_formula_sum              "Nd8 H164 C288 N24 O52"
_cell_length_a       16.2697
_cell_length_b       16.2697
_cell_length_c       31.2773
_cell_angle_alpha    79.8314
_cell_angle_beta     100.169
_cell_angle_gamma    83.8638

_symmetry_space_group_name_H-M    "P 1"
_symmetry_Int_Tables_number       1

loop_
  _symmetry_equiv_pos_as_xyz
  'x, y, z'

loop_
  _atom_site_type_symbol
  _atom_site_label
  _atom_site_symmetry_multiplicity
  _atom_site_fract_x
  _atom_site_fract_y
  _atom_site_fract_z
  _atom_site_occupancy
  _atom_site_charge
Nd  Nd1       1.0  0.30110  0.13150  0.29880  1.0000 2.1088376035
Nd  Nd2       1.0  0.13150  0.30110  0.20120  1.0000 2.1088376035
Nd  Nd3       1.0  0.69890  0.86850  0.70120  1.0000 2.1088376035
Nd  Nd4       1.0  0.86850  0.69890  0.79880  1.0000 2.1088376035
Nd  Nd5       1.0  0.86360  0.52400  0.91470  1.0000 1.976805686
Nd  Nd6       1.0  0.52400  0.86360  0.58530  1.0000 1.976805686
Nd  Nd7       1.0  0.13640  0.47600  0.08530  1.0000 1.976805686
Nd  Nd8       1.0  0.47600  0.13640  0.41470  1.0000 1.976805686
H   H1        1.0  0.70350  0.62950  0.87700  1.0000 0.370161145
H   H2        1.0  0.62950  0.70350  0.62300  1.0000 0.370161145
H   H3        1.0  0.29650  0.37050  0.12300  1.0000 0.370161145
H   H4        1.0  0.37050  0.29650  0.37700  1.0000 0.370161145
H   H5        1.0  0.75430  0.65470  0.84850  1.0000 0.2995348563
H   H6        1.0  0.65470  0.75430  0.65150  1.0000 0.2995348563
H   H7        1.0  0.24570  0.34530  0.15150  1.0000 0.2995348563
H   H8        1.0  0.34530  0.24570  0.34850  1.0000 0.2995348563
H   H9        1.0  0.99300  0.33100  0.59910  1.0000 0.2695897696
H   H10       1.0  0.33100  0.99300  0.90090  1.0000 0.2695897696
H   H11       1.0  0.00700  0.66900  0.40090  1.0000 0.2695897696
H   H12       1.0  0.66900  0.00700  0.09910  1.0000 0.2695897696
H   H13       1.0  0.07220  0.39100  0.54750  1.0000 0.2769012144
H   H14       1.0  0.39100  0.07220  0.95250  1.0000 0.2769012144
H   H15       1.0  0.92780  0.60900  0.45250  1.0000 0.2769012144
H   H16       1.0  0.60900  0.92780  0.04750  1.0000 0.2769012144
H   H17       1.0  0.41830  0.59550  0.55980  1.0000 0.1199863367
H   H18       1.0  0.59550  0.41830  0.94020  1.0000 0.1199863367
H   H19       1.0  0.58170  0.40450  0.44020  1.0000 0.1199863367
H   H20       1.0  0.40450  0.58170  0.05980  1.0000 0.1199863367
H   H21       1.0  0.32400  0.49800  0.55880  1.0000 0.1199863367
H   H22       1.0  0.49800  0.32400  0.94120  1.0000 0.1199863367
H   H23       1.0  0.67600  0.50200  0.44120  1.0000 0.1199863367
H   H24       1.0  0.50200  0.67600  0.05880  1.0000 0.1199863367
H   H25       1.0  0.15440  0.65620  0.58980  1.0000 0.1199863367
H   H26       1.0  0.65620  0.15440  0.91020  1.0000 0.1199863367
H   H27       1.0  0.84560  0.34380  0.41020  1.0000 0.1199863367
H   H28       1.0  0.34380  0.84560  0.08980  1.0000 0.1199863367
H   H29       1.0  0.24680  0.75660  0.59190  1.0000 0.1199863367
H   H30       1.0  0.75660  0.24680  0.90810  1.0000 0.1199863367
H   H31       1.0  0.75320  0.24340  0.40810  1.0000 0.1199863367
H   H32       1.0  0.24340  0.75320  0.09190  1.0000 0.1199863367
H   H33       1.0  0.22140  0.52080  0.66380  1.0000 0.1287324979
H   H34       1.0  0.52080  0.22140  0.83620  1.0000 0.1287324979
H   H35       1.0  0.77860  0.47920  0.33620  1.0000 0.1287324979
H   H36       1.0  0.47920  0.77860  0.16380  1.0000 0.1287324979
H   H37       1.0  0.13460  0.46600  0.71430  1.0000 0.1287324979
H   H38       1.0  0.46600  0.13460  0.78570  1.0000 0.1287324979
H   H39       1.0  0.86540  0.53400  0.28570  1.0000 0.1287324979
H   H40       1.0  0.53400  0.86540  0.21430  1.0000 0.1287324979
H   H41       1.0  0.84310  0.51870  0.75520  1.0000 0.1287324979
H   H42       1.0  0.51870  0.84310  0.74480  1.0000 0.1287324979
H   H43       1.0  0.15690  0.48130  0.24480  1.0000 0.1287324979
H   H44       1.0  0.48130  0.15690  0.25520  1.0000 0.1287324979
H   H45       1.0  0.87400  0.48320  0.69080  1.0000 0.1199863367
H   H46       1.0  0.48320  0.87400  0.80920  1.0000 0.1199863367
H   H47       1.0  0.12600  0.51680  0.30920  1.0000 0.1199863367
H   H48       1.0  0.51680  0.12600  0.19080  1.0000 0.1199863367
H   H49       1.0  0.08030  0.33250  0.76090  1.0000 0.1199863367
H   H50       1.0  0.33250  0.08030  0.73910  1.0000 0.1199863367
H   H51       1.0  0.91970  0.66750  0.23910  1.0000 0.1199863367
H   H52       1.0  0.66750  0.91970  0.26090  1.0000 0.1199863367
H   H53       1.0  0.04810  0.36570  0.82540  1.0000 0.1199863367
H   H54       1.0  0.36570  0.04810  0.67460  1.0000 0.1199863367
H   H55       1.0  0.95190  0.63430  0.17460  1.0000 0.1199863367
H   H56       1.0  0.63430  0.95190  0.32540  1.0000 0.1199863367
H   H57       1.0  0.85980  0.30940  0.69410  1.0000 0.1287324979
H   H58       1.0  0.30940  0.85980  0.80590  1.0000 0.1287324979
H   H59       1.0  0.14020  0.69060  0.30590  1.0000 0.1287324979
H   H60       1.0  0.69060  0.14020  0.19410  1.0000 0.1287324979
H   H61       1.0  0.80530  0.22370  0.64150  1.0000 0.1287324979
H   H62       1.0  0.22370  0.80530  0.85850  1.0000 0.1287324979
H   H63       1.0  0.19470  0.77630  0.35850  1.0000 0.1287324979
H   H64       1.0  0.77630  0.19470  0.14150  1.0000 0.1287324979
H   H65       1.0  0.64420  0.12180  0.53770  1.0000 0.1391474222
H   H66       1.0  0.12180  0.64420  0.96230  1.0000 0.1391474222
H   H67       1.0  0.35580  0.87820  0.46230  1.0000 0.1391474222
H   H68       1.0  0.87820  0.35580  0.03770  1.0000 0.1391474222
H   H69       1.0  0.82710  0.96930  0.62860  1.0000 0.1199863367
H   H70       1.0  0.96930  0.82710  0.87140  1.0000 0.1199863367
H   H71       1.0  0.17290  0.03070  0.37140  1.0000 0.1199863367
H   H72       1.0  0.03070  0.17290  0.12860  1.0000 0.1199863367
H   H73       1.0  0.91580  0.06340  0.61690  1.0000 0.1199863367
H   H74       1.0  0.06340  0.91580  0.88310  1.0000 0.1287324979
H   H75       1.0  0.08420  0.93660  0.38310  1.0000 0.1287324979
H   H76       1.0  0.93660  0.08420  0.11690  1.0000 0.1199863367
H   H77       1.0  0.73410  0.21870  0.52800  1.0000 0.1287324979
H   H78       1.0  0.21870  0.73410  0.97200  1.0000 0.1287324979
H   H79       1.0  0.26590  0.78130  0.47200  1.0000 0.1287324979
H   H80       1.0  0.78130  0.26590  0.02800  1.0000 0.1287324979
H   H81       1.0  0.90020  0.13760  0.49830  1.0000 0.1287324979
H   H82       1.0  0.13760  0.90020  0.00170  1.0000 0.1287324979
H   H83       1.0  0.09980  0.86240  0.50170  1.0000 0.1287324979
H   H84       1.0  0.86240  0.09980  0.99830  1.0000 0.1287324979
H   H85       1.0  0.98280  0.19980  0.44670  1.0000 0.1287324979
H   H86       1.0  0.19980  0.98280  0.05330  1.0000 0.1287324979
H   H87       1.0  0.01720  0.80020  0.55330  1.0000 0.1287324979
H   H88       1.0  0.80020  0.01720  0.94670  1.0000 0.1287324979
H   H89       1.0  0.19590  0.55710  0.48710  1.0000 0.1287324979
H   H90       1.0  0.55710  0.19590  0.01290  1.0000 0.1287324979
H   H91       1.0  0.80410  0.44290  0.51290  1.0000 0.1287324979
H   H92       1.0  0.44290  0.80410  0.98710  1.0000 0.1287324979
H   H93       1.0  0.14400  0.47220  0.43420  1.0000 0.1287324979
H   H94       1.0  0.47220  0.14400  0.06580  1.0000 0.1287324979
H   H95       1.0  0.85600  0.52780  0.56580  1.0000 0.1287324979
H   H96       1.0  0.52780  0.85600  0.93420  1.0000 0.1287324979
H   H97       1.0  0.17420  0.22860  0.44950  1.0000 0.1199863367
H   H98       1.0  0.22860  0.17420  0.05050  1.0000 0.1199863367
H   H99       1.0  0.82580  0.77140  0.55050  1.0000 0.1199863367
H   H100      1.0  0.77140  0.82580  0.94950  1.0000 0.1199863367
H   H101      1.0  0.20320  0.21200  0.38090  1.0000 0.1199863367
H   H102      1.0  0.21200  0.20320  0.11910  1.0000 0.1199863367
H   H103      1.0  0.79680  0.78800  0.61910  1.0000 0.1199863367
H   H104      1.0  0.78800  0.79680  0.88090  1.0000 0.1199863367
H   H105      1.0  0.01340  0.39060  0.31880  1.0000 0.1199863367
H   H106      1.0  0.39060  0.01340  0.18120  1.0000 0.1199863367
H   H107      1.0  0.98660  0.60940  0.68120  1.0000 0.1199863367
H   H108      1.0  0.60940  0.98660  0.81880  1.0000 0.1199863367
H   H109      1.0  0.98700  0.41320  0.38760  1.0000 0.1199863367
H   H110      1.0  0.41320  0.98700  0.11240  1.0000 0.1199863367
H   H111      1.0  0.01300  0.58680  0.61240  1.0000 0.1199863367
H   H112      1.0  0.58680  0.01300  0.88760  1.0000 0.1199863367
H   H113      1.0  0.11380  0.94100  0.29300  1.0000 0.1199863367
H   H114      1.0  0.94100  0.11380  0.20700  1.0000 0.1199863367
H   H115      1.0  0.88620  0.05900  0.70700  1.0000 0.1199863367
H   H116      1.0  0.05900  0.88620  0.79300  1.0000 0.1199863367
H   H117      1.0  0.01840  0.84740  0.29240  1.0000 0.1199863367
H   H118      1.0  0.84740  0.01840  0.20760  1.0000 0.1199863367
H   H119      1.0  0.98160  0.15260  0.70760  1.0000 0.1199863367
H   H120      1.0  0.15260  0.98160  0.79240  1.0000 0.1199863367
H   H121      1.0  0.90530  0.89170  0.16550  1.0000 0.1287324979
H   H122      1.0  0.89170  0.90530  0.33450  1.0000 0.1287324979
H   H123      1.0  0.09470  0.10830  0.83450  1.0000 0.1287324979
H   H124      1.0  0.10830  0.09470  0.66550  1.0000 0.1287324979
H   H125      1.0  0.84500  0.80580  0.11440  1.0000 0.1391474222
H   H126      1.0  0.80580  0.84500  0.38560  1.0000 0.1391474222
H   H127      1.0  0.15500  0.19420  0.88560  1.0000 0.1391474222
H   H128      1.0  0.19420  0.15500  0.61440  1.0000 0.1391474222
H   H129      1.0  0.31600  0.49440  0.21110  1.0000 0.1287324979
H   H130      1.0  0.49440  0.31600  0.28890  1.0000 0.1287324979
H   H131      1.0  0.68400  0.50560  0.78890  1.0000 0.1287324979
H   H132      1.0  0.50560  0.68400  0.71110  1.0000 0.1287324979
H   H133      1.0  0.41010  0.58930  0.20930  1.0000 0.1199863367
H   H134      1.0  0.58930  0.41010  0.29070  1.0000 0.1199863367
H   H135      1.0  0.58990  0.41070  0.79070  1.0000 0.1199863367
H   H136      1.0  0.41070  0.58990  0.70930  1.0000 0.1199863367
H   H137      1.0  0.55730  0.51390  0.16900  1.0000 0.1287324979
H   H138      1.0  0.51390  0.55730  0.33100  1.0000 0.1287324979
H   H139      1.0  0.44270  0.48610  0.83100  1.0000 0.1287324979
H   H140      1.0  0.48610  0.44270  0.66900  1.0000 0.1287324979
H   H141      1.0  0.64270  0.57190  0.11880  1.0000 0.1287324979
H   H142      1.0  0.57190  0.64270  0.38120  1.0000 0.1287324979
H   H143      1.0  0.35730  0.42810  0.88120  1.0000 0.1287324979
H   H144      1.0  0.42810  0.35730  0.61880  1.0000 0.1287324979
H   H145      1.0  0.84690  0.57010  0.13370  1.0000 0.1199863367
H   H146      1.0  0.57010  0.84690  0.36630  1.0000 0.1199863367
H   H147      1.0  0.15310  0.42990  0.86630  1.0000 0.1199863367
H   H148      1.0  0.42990  0.15310  0.63370  1.0000 0.1199863367
H   H149      1.0  0.67790  0.76410  0.06180  1.0000 0.1199863367
H   H150      1.0  0.76410  0.67790  0.43820  1.0000 0.1199863367
H   H151      1.0  0.32210  0.23590  0.93820  1.0000 0.1199863367
H   H152      1.0  0.23590  0.32210  0.56180  1.0000 0.1199863367
H   H153      1.0  0.71080  0.72200  0.99770  1.0000 0.1199863367
H   H154      1.0  0.72200  0.71080  0.50230  1.0000 0.1199863367
H   H155      1.0  0.28920  0.27800  0.00230  1.0000 0.1199863367
H   H156      1.0  0.27800  0.28920  0.49770  1.0000 0.1199863367
H   H157      1.0  0.87460  0.53420  0.06990  1.0000 0.1471586032
H   H158      1.0  0.53420  0.87460  0.43010  1.0000 0.1471586032
H   H159      1.0  0.12540  0.46580  0.93010  1.0000 0.1471586032
H   H160      1.0  0.46580  0.12540  0.56990  1.0000 0.1471586032
H   H161      1.0  0.75290  0.75210  0.22390  1.0000 0.2695897696
H   H162      1.0  0.75210  0.75290  0.27610  1.0000 0.2695897696
H   H163      1.0  0.24710  0.24790  0.77610  1.0000 0.2695897696
H   H164      1.0  0.24790  0.24710  0.72390  1.0000 0.2695897696
C   C1        1.0  0.40330  0.74790  0.58140  1.0000 0.5622581979
C   C2        1.0  0.74790  0.40330  0.91860  1.0000 0.5622581979
C   C3        1.0  0.59670  0.25210  0.41860  1.0000 0.5622581979
C   C4        1.0  0.25210  0.59670  0.08140  1.0000 0.5622581979
C   C5        1.0  0.34420  0.68420  0.57940  1.0000 -0.0215968878
C   C6        1.0  0.68420  0.34420  0.92060  1.0000 -0.0215968878
C   C7        1.0  0.65580  0.31580  0.42060  1.0000 -0.0215968878
C   C8        1.0  0.31580  0.65580  0.07940  1.0000 -0.0215968878
C   C9        1.0  0.36620  0.60780  0.56720  1.0000 -0.0902064833
C   C10       1.0  0.60780  0.36620  0.93280  1.0000 -0.0902064833
C   C11       1.0  0.63380  0.39220  0.43280  1.0000 -0.0902064833
C   C12       1.0  0.39220  0.63380  0.06720  1.0000 -0.0902064833
C   C13       1.0  0.30860  0.54960  0.56630  1.0000 -0.1584347273
C   C14       1.0  0.54960  0.30860  0.93370  1.0000 -0.1584347273
C   C15       1.0  0.69140  0.45040  0.43370  1.0000 -0.1584347273
C   C16       1.0  0.45040  0.69140  0.06630  1.0000 -0.1584347273
C   C17       1.0  0.23080  0.56600  0.57590  1.0000 0.0808012457
C   C18       1.0  0.56600  0.23080  0.92410  1.0000 0.0808012457
C   C19       1.0  0.76920  0.43400  0.42410  1.0000 0.0808012457
C   C20       1.0  0.43400  0.76920  0.07590  1.0000 0.0808012457
C   C21       1.0  0.20840  0.64300  0.58470  1.0000 -0.1495821151
C   C22       1.0  0.64300  0.20840  0.91530  1.0000 -0.1495821151
C   C23       1.0  0.79160  0.35700  0.41530  1.0000 -0.1495821151
C   C24       1.0  0.35700  0.79160  0.08470  1.0000 -0.1495821151
C   C25       1.0  0.26420  0.70400  0.58630  1.0000 -0.1023371006
C   C26       1.0  0.70400  0.26420  0.91370  1.0000 -0.0902064833
C   C27       1.0  0.73580  0.29600  0.41370  1.0000 -0.0902064833
C   C28       1.0  0.29600  0.73580  0.08630  1.0000 -0.0902064833
C   C29       1.0  0.17072  0.50408  0.57430  1.0000 -0.0787836502
C   C30       1.0  0.50408  0.17072  0.92570  1.0000 -0.0787836502
C   C31       1.0  0.82928  0.49592  0.42570  1.0000 -0.0787836502
C   C32       1.0  0.49592  0.82928  0.07430  1.0000 -0.0787836502
C   C33       1.0  0.14690  0.47310  0.61440  1.0000 0.1703748343
C   C34       1.0  0.47310  0.14690  0.88560  1.0000 0.1703748343
C   C35       1.0  0.85310  0.52690  0.38560  1.0000 0.1703748343
C   C36       1.0  0.52690  0.85310  0.11440  1.0000 0.1703748343
C   C37       1.0  0.17630  0.49190  0.65680  1.0000 -0.1784469197
C   C38       1.0  0.49190  0.17630  0.84320  1.0000 -0.1784469197
C   C39       1.0  0.82370  0.50810  0.34320  1.0000 -0.1784469197
C   C40       1.0  0.50810  0.82370  0.15680  1.0000 -0.1784469197
C   C41       1.0  0.12910  0.46130  0.68470  1.0000 -0.1901295823
C   C42       1.0  0.46130  0.12910  0.81530  1.0000 -0.1901295823
C   C43       1.0  0.87090  0.53870  0.31530  1.0000 -0.1901295823
C   C44       1.0  0.53870  0.87090  0.18470  1.0000 -0.1901295823
C   C45       1.0  0.06810  0.41990  0.66090  1.0000 0.179316963
C   C46       1.0  0.41990  0.06810  0.83910  1.0000 0.179316963
C   C47       1.0  0.93190  0.58010  0.33910  1.0000 0.179316963
C   C48       1.0  0.58010  0.93190  0.16090  1.0000 0.179316963
C   C49       1.0  0.00110  0.38670  0.67660  1.0000 -0.0902064833
C   C50       1.0  0.38670  0.00110  0.82340  1.0000 -0.0902064833
C   C51       1.0  0.99890  0.61330  0.32340  1.0000 -0.0902064833
C   C52       1.0  0.61330  0.99890  0.17660  1.0000 -0.0902064833
C   C53       1.0  0.92850  0.47990  0.83710  1.0000 0.6192728867
C   C54       1.0  0.47990  0.92850  0.66290  1.0000 0.6192728867
C   C55       1.0  0.07150  0.52010  0.16290  1.0000 0.6192728867
C   C56       1.0  0.52010  0.07150  0.33710  1.0000 0.6192728867
C   C57       1.0  0.94580  0.45080  0.79580  1.0000 -0.0215968878
C   C58       1.0  0.45080  0.94580  0.70420  1.0000 -0.0215968878
C   C59       1.0  0.05420  0.54920  0.20420  1.0000 -0.0215968878
C   C60       1.0  0.54920  0.05420  0.29580  1.0000 -0.0215968878
C   C61       1.0  0.89190  0.48230  0.75640  1.0000 -0.0902064833
C   C62       1.0  0.48230  0.89190  0.74360  1.0000 -0.0902064833
C   C63       1.0  0.10810  0.51770  0.24360  1.0000 -0.0902064833
C   C64       1.0  0.51770  0.10810  0.25640  1.0000 -0.0902064833
C   C65       1.0  0.91000  0.46000  0.71780  1.0000 -0.1410585254
C   C66       1.0  0.46000  0.91000  0.78220  1.0000 -0.1410585254
C   C67       1.0  0.09000  0.54000  0.28220  1.0000 -0.1410585254
C   C68       1.0  0.54000  0.09000  0.21780  1.0000 -0.1410585254
C   C69       1.0  0.98010  0.40410  0.71910  1.0000 0.0881023514
C   C70       1.0  0.40410  0.98010  0.78090  1.0000 0.0881023514
C   C71       1.0  0.01990  0.59590  0.28090  1.0000 0.0881023514
C   C72       1.0  0.59590  0.01990  0.21910  1.0000 0.0881023514
C   C73       1.0  0.03220  0.37020  0.75960  1.0000 -0.1495821151
C   C74       1.0  0.37020  0.03220  0.74040  1.0000 -0.1495821151
C   C75       1.0  0.96780  0.62980  0.24040  1.0000 -0.1495821151
C   C76       1.0  0.62980  0.96780  0.25960  1.0000 -0.1495821151
C   C77       1.0  0.01420  0.39140  0.79810  1.0000 -0.0902064833
C   C78       1.0  0.39140  0.01420  0.70190  1.0000 -0.0902064833
C   C79       1.0  0.98580  0.60860  0.20190  1.0000 -0.0902064833
C   C80       1.0  0.60860  0.98580  0.29810  1.0000 -0.0902064833
C   C81       1.0  0.94690  0.34030  0.65330  1.0000 0.1626225986
C   C82       1.0  0.34030  0.94690  0.84670  1.0000 0.1626225986
C   C83       1.0  0.05310  0.65970  0.34670  1.0000 0.1626225986
C   C84       1.0  0.65970  0.05310  0.15330  1.0000 0.1626225986
C   C85       1.0  0.87950  0.30250  0.66870  1.0000 -0.2095818529
C   C86       1.0  0.30250  0.87950  0.83130  1.0000 -0.2095818529
C   C87       1.0  0.12050  0.69750  0.33130  1.0000 -0.2095818529
C   C88       1.0  0.69750  0.12050  0.16870  1.0000 -0.2095818529
C   C89       1.0  0.84970  0.25510  0.63990  1.0000 -0.198740826
C   C90       1.0  0.25510  0.84970  0.86010  1.0000 -0.198740826
C   C91       1.0  0.15030  0.74490  0.36010  1.0000 -0.198740826
C   C92       1.0  0.74490  0.15030  0.13990  1.0000 -0.198740826
C   C93       1.0  0.89970  0.26230  0.60640  1.0000 0.1626225986
C   C94       1.0  0.26230  0.89970  0.89360  1.0000 0.1626225986
C   C95       1.0  0.10030  0.73770  0.39360  1.0000 0.1626225986
C   C96       1.0  0.73770  0.10030  0.10640  1.0000 0.1626225986
C   C97       1.0  0.66430  0.97430  0.59260  1.0000 0.6065451493
C   C98       1.0  0.97430  0.66430  0.90740  1.0000 0.6065451493
C   C99       1.0  0.33570  0.02570  0.40740  1.0000 0.6065451493
C   C100      1.0  0.02570  0.33570  0.09260  1.0000 0.6065451493
C   C101      1.0  0.69890  0.11050  0.55440  1.0000 -0.0787836502
C   C102      1.0  0.11050  0.69890  0.94560  1.0000 -0.0787836502
C   C103      1.0  0.30110  0.88950  0.44560  1.0000 -0.0787836502
C   C104      1.0  0.88950  0.30110  0.05440  1.0000 -0.0787836502
C   C105      1.0  0.72390  0.03590  0.58440  1.0000 -0.0314733374
C   C106      1.0  0.03590  0.72390  0.91560  1.0000 -0.0314733374
C   C107      1.0  0.27610  0.96410  0.41560  1.0000 -0.0314733374
C   C108      1.0  0.96410  0.27610  0.08440  1.0000 -0.0314733374
C   C109      1.0  0.80790  0.01970  0.60820  1.0000 -0.1061724471
C   C110      1.0  0.01970  0.80790  0.89180  1.0000 -0.1061724471
C   C111      1.0  0.19210  0.98030  0.39180  1.0000 -0.1061724471
C   C112      1.0  0.98030  0.19210  0.10820  1.0000 -0.1061724471
C   C113      1.0  0.86000  0.07640  0.60170  1.0000 -0.1326078577
C   C114      1.0  0.07640  0.86000  0.89830  1.0000 -0.1326078577
C   C115      1.0  0.14000  0.92360  0.39830  1.0000 -0.1326078577
C   C116      1.0  0.92360  0.14000  0.10170  1.0000 -0.1326078577
C   C117      1.0  0.83480  0.15280  0.57340  1.0000 0.0881023514
C   C118      1.0  0.15280  0.83480  0.92660  1.0000 0.0881023514
C   C119      1.0  0.16520  0.84720  0.42660  1.0000 0.0881023514
C   C120      1.0  0.84720  0.16520  0.07340  1.0000 0.0881023514
C   C121      1.0  0.75240  0.16860  0.54860  1.0000 -0.1410585254
C   C122      1.0  0.16860  0.75240  0.95140  1.0000 -0.1410585254
C   C123      1.0  0.24760  0.83140  0.45140  1.0000 -0.1410585254
C   C124      1.0  0.83140  0.24760  0.04860  1.0000 -0.1410585254
C   C125      1.0  0.89250  0.21850  0.57140  1.0000 -0.0787836502
C   C126      1.0  0.21850  0.89250  0.92860  1.0000 -0.0787836502
C   C127      1.0  0.10750  0.78150  0.42860  1.0000 -0.0787836502
C   C128      1.0  0.78150  0.10750  0.07140  1.0000 -0.0787836502
C   C129      1.0  0.93640  0.22880  0.53670  1.0000 0.1872659465
C   C130      1.0  0.22880  0.93640  0.96330  1.0000 0.1872659465
C   C131      1.0  0.06360  0.77120  0.46330  1.0000 0.1872659465
C   C132      1.0  0.77120  0.06360  0.03670  1.0000 0.1872659465
C   C133      1.0  0.93030  0.18250  0.50110  1.0000 -0.1901295823
C   C134      1.0  0.18250  0.93030  0.99890  1.0000 -0.1901295823
C   C135      1.0  0.06970  0.81750  0.49890  1.0000 -0.1901295823
C   C136      1.0  0.81750  0.06970  0.00110  1.0000 -0.1901295823
C   C137      1.0  0.97630  0.21650  0.47300  1.0000 -0.198740826
C   C138      1.0  0.21650  0.97630  0.02700  1.0000 -0.198740826
C   C139      1.0  0.02370  0.78350  0.52700  1.0000 -0.198740826
C   C140      1.0  0.78350  0.02370  0.97300  1.0000 -0.1901295823
C   C141      1.0  0.01380  0.28260  0.49000  1.0000 0.1703748343
C   C142      1.0  0.28260  0.01380  0.01000  1.0000 0.1703748343
C   C143      1.0  0.98620  0.71740  0.51000  1.0000 0.1703748343
C   C144      1.0  0.71740  0.98620  0.99000  1.0000 0.1703748343
C   C145      1.0  0.14160  0.48040  0.53350  1.0000 0.1703748343
C   C146      1.0  0.48040  0.14160  0.96650  1.0000 0.1703748343
C   C147      1.0  0.85840  0.51960  0.46650  1.0000 0.1703748343
C   C148      1.0  0.51960  0.85840  0.03350  1.0000 0.1703748343
C   C149      1.0  0.16570  0.51230  0.49250  1.0000 -0.1901295823
C   C150      1.0  0.51230  0.16570  0.00750  1.0000 -0.1901295823
C   C151      1.0  0.83430  0.48770  0.50750  1.0000 -0.1901295823
C   C152      1.0  0.48770  0.83430  0.99250  1.0000 -0.1901295823
C   C153      1.0  0.13680  0.46620  0.46330  1.0000 -0.1901295823
C   C154      1.0  0.46620  0.13680  0.03670  1.0000 -0.1901295823
C   C155      1.0  0.86320  0.53380  0.53670  1.0000 -0.1901295823
C   C156      1.0  0.53380  0.86320  0.96330  1.0000 -0.1901295823
C   C157      1.0  0.09270  0.40550  0.48550  1.0000 0.1626225986
C   C158      1.0  0.40550  0.09270  0.01450  1.0000 0.1626225986
C   C159      1.0  0.90730  0.59450  0.51450  1.0000 0.1626225986
C   C160      1.0  0.59450  0.90730  0.98550  1.0000 0.1626225986
C   C161      1.0  0.05910  0.33870  0.46900  1.0000 -0.0733621205
C   C162      1.0  0.33870  0.05910  0.03100  1.0000 -0.0733621205
C   C163      1.0  0.94090  0.66130  0.53100  1.0000 -0.0733621205
C   C164      1.0  0.66130  0.94090  0.96900  1.0000 -0.0733621205
C   C165      1.0  0.07790  0.32450  0.42500  1.0000 0.0881023514
C   C166      1.0  0.32450  0.07790  0.07500  1.0000 0.0881023514
C   C167      1.0  0.92210  0.67550  0.57500  1.0000 0.0881023514
C   C168      1.0  0.67550  0.92210  0.92500  1.0000 0.0881023514
C   C169      1.0  0.14260  0.26260  0.42350  1.0000 -0.1326078577
C   C170      1.0  0.26260  0.14260  0.07650  1.0000 -0.1326078577
C   C171      1.0  0.85740  0.73740  0.57650  1.0000 -0.1326078577
C   C172      1.0  0.73740  0.85740  0.92350  1.0000 -0.1326078577
C   C173      1.0  0.15940  0.25260  0.38210  1.0000 -0.0902064833
C   C174      1.0  0.25260  0.15940  0.11790  1.0000 -0.0902064833
C   C175      1.0  0.84060  0.74740  0.61790  1.0000 -0.0902064833
C   C176      1.0  0.74740  0.84060  0.88210  1.0000 -0.0902064833
C   C177      1.0  0.11280  0.30100  0.34380  1.0000 -0.0215968878
C   C178      1.0  0.30100  0.11280  0.15620  1.0000 -0.0215968878
C   C179      1.0  0.88720  0.69900  0.65620  1.0000 -0.0215968878
C   C180      1.0  0.69900  0.88720  0.84380  1.0000 -0.0215968878
C   C181      1.0  0.04710  0.35930  0.34500  1.0000 -0.0902064833
C   C182      1.0  0.35930  0.04710  0.15500  1.0000 -0.0902064833
C   C183      1.0  0.95290  0.64070  0.65500  1.0000 -0.0902064833
C   C184      1.0  0.64070  0.95290  0.84500  1.0000 -0.0902064833
C   C185      1.0  0.03050  0.37210  0.38660  1.0000 -0.1495821151
C   C186      1.0  0.37210  0.03050  0.11340  1.0000 -0.1495821151
C   C187      1.0  0.96950  0.62790  0.61340  1.0000 -0.1495821151
C   C188      1.0  0.62790  0.96950  0.88660  1.0000 -0.1495821151
C   C189      1.0  0.13050  0.29130  0.29930  1.0000 0.6382566681
C   C190      1.0  0.29130  0.13050  0.20070  1.0000 0.6382566681
C   C191      1.0  0.86950  0.70870  0.70070  1.0000 0.6382566681
C   C192      1.0  0.70870  0.86950  0.79930  1.0000 0.6382566681
C   C193      1.0  0.10020  0.10020  0.25000  1.0000 0.6573069682
C   C194      1.0  0.89980  0.89980  0.75000  1.0000 0.6573069682
C   C195      1.0  0.03910  0.03910  0.25000  1.0000 -0.058350348
C   C196      1.0  0.96090  0.96090  0.75000  1.0000 -0.058350348
C   C197      1.0  0.06000  0.95760  0.27550  1.0000 -0.0902064833
C   C198      1.0  0.95760  0.06000  0.22450  1.0000 -0.0902064833
C   C199      1.0  0.94000  0.04240  0.72450  1.0000 -0.0902064833
C   C200      1.0  0.04240  0.94000  0.77550  1.0000 -0.0902064833
C   C201      1.0  0.00250  0.90130  0.27510  1.0000 -0.1495821151
C   C202      1.0  0.90130  0.00250  0.22490  1.0000 -0.1495821151
C   C203      1.0  0.99750  0.09870  0.72490  1.0000 -0.1495821151
C   C204      1.0  0.09870  0.99750  0.77510  1.0000 -0.1495821151
C   C205      1.0  0.92250  0.92250  0.25000  1.0000 0.099935743
C   C206      1.0  0.07750  0.07750  0.75000  1.0000 0.099935743
C   C207      1.0  0.86000  0.86000  0.25000  1.0000 -0.1156986217
C   C208      1.0  0.14000  0.14000  0.75000  1.0000 -0.1156986217
C   C209      1.0  0.83430  0.83310  0.21050  1.0000 0.1471586032
C   C210      1.0  0.83310  0.83430  0.28950  1.0000 0.1471586032
C   C211      1.0  0.16570  0.16690  0.78950  1.0000 0.1471586032
C   C212      1.0  0.16690  0.16570  0.71050  1.0000 0.1471586032
C   C213      1.0  0.86790  0.85330  0.17080  1.0000 -0.1901295823
C   C214      1.0  0.85330  0.86790  0.32920  1.0000 -0.1901295823
C   C215      1.0  0.13210  0.14670  0.82920  1.0000 -0.1901295823
C   C216      1.0  0.14670  0.13210  0.67080  1.0000 -0.1901295823
C   C217      1.0  0.83450  0.80570  0.14270  1.0000 -0.198740826
C   C218      1.0  0.80570  0.83450  0.35730  1.0000 -0.1901295823
C   C219      1.0  0.16550  0.19430  0.85730  1.0000 -0.1901295823
C   C220      1.0  0.19430  0.16550  0.64270  1.0000 -0.1901295823
C   C221      1.0  0.78010  0.75470  0.16360  1.0000 0.1703748343
C   C222      1.0  0.75470  0.78010  0.33640  1.0000 0.1703748343
C   C223      1.0  0.21990  0.24530  0.83640  1.0000 0.1703748343
C   C224      1.0  0.24530  0.21990  0.66360  1.0000 0.1703748343
C   C225      1.0  0.33280  0.33280  0.25000  1.0000 0.6311866333
C   C226      1.0  0.66720  0.66720  0.75000  1.0000 0.6311866333
C   C227      1.0  0.39540  0.39540  0.25000  1.0000 -0.0314733374
C   C228      1.0  0.60460  0.60460  0.75000  1.0000 -0.0314733374
C   C229      1.0  0.37130  0.47770  0.22660  1.0000 -0.0902064833
C   C230      1.0  0.47770  0.37130  0.27340  1.0000 -0.0902064833
C   C231      1.0  0.62870  0.52230  0.77340  1.0000 -0.0902064833
C   C232      1.0  0.52230  0.62870  0.72660  1.0000 -0.0902064833
C   C233      1.0  0.42720  0.53480  0.22580  1.0000 -0.1584347273
C   C234      1.0  0.53480  0.42720  0.27420  1.0000 -0.1584347273
C   C235      1.0  0.57280  0.46520  0.77420  1.0000 -0.1584347273
C   C236      1.0  0.46520  0.57280  0.72580  1.0000 -0.1584347273
C   C237      1.0  0.51080  0.51080  0.25000  1.0000 0.0881023514
C   C238      1.0  0.48920  0.48920  0.75000  1.0000 0.0881023514
C   C239      1.0  0.57300  0.57300  0.25000  1.0000 -0.0902064833
C   C240      1.0  0.42700  0.42700  0.75000  1.0000 -0.0902064833
C   C241      1.0  0.60790  0.59110  0.21240  1.0000 0.2022630265
C   C242      1.0  0.59110  0.60790  0.28760  1.0000 0.2022630265
C   C243      1.0  0.39210  0.40890  0.78760  1.0000 0.2022630265
C   C244      1.0  0.40890  0.39210  0.71240  1.0000 0.2022630265
C   C245      1.0  0.59330  0.55370  0.17370  1.0000 -0.1901295823
C   C246      1.0  0.55370  0.59330  0.32630  1.0000 -0.1901295823
C   C247      1.0  0.40670  0.44630  0.82630  1.0000 -0.1901295823
C   C248      1.0  0.44630  0.40670  0.67370  1.0000 -0.1901295823
C   C249      1.0  0.63980  0.58560  0.14620  1.0000 -0.1901295823
C   C250      1.0  0.58560  0.63980  0.35380  1.0000 -0.1901295823
C   C251      1.0  0.36020  0.41440  0.85380  1.0000 -0.1901295823
C   C252      1.0  0.41440  0.36020  0.64620  1.0000 -0.1901295823
C   C253      1.0  0.68510  0.64470  0.16580  1.0000 0.1703748343
C   C254      1.0  0.64470  0.68510  0.33420  1.0000 0.1703748343
C   C255      1.0  0.31490  0.35530  0.83420  1.0000 0.1703748343
C   C256      1.0  0.35530  0.31490  0.66580  1.0000 0.1703748343
C   C257      1.0  0.73800  0.69380  0.14650  1.0000 -0.0787836502
C   C258      1.0  0.69380  0.73800  0.35350  1.0000 -0.0787836502
C   C259      1.0  0.26200  0.30620  0.85350  1.0000 -0.0787836502
C   C260      1.0  0.30620  0.26200  0.64650  1.0000 -0.0787836502
C   C261      1.0  0.81900  0.60200  0.10630  1.0000 -0.1410585254
C   C262      1.0  0.60200  0.81900  0.39370  1.0000 -0.1410585254
C   C263      1.0  0.18100  0.39800  0.89370  1.0000 -0.1410585254
C   C264      1.0  0.39800  0.18100  0.60630  1.0000 -0.1410585254
C   C265      1.0  0.71830  0.71770  0.06430  1.0000 -0.1495821151
C   C266      1.0  0.71770  0.71830  0.43570  1.0000 -0.1495821151
C   C267      1.0  0.28170  0.28230  0.93570  1.0000 -0.1495821151
C   C268      1.0  0.28230  0.28170  0.56430  1.0000 -0.1495821151
C   C269      1.0  0.73920  0.69240  0.02550  1.0000 -0.1023371006
C   C270      1.0  0.69240  0.73920  0.47450  1.0000 -0.1023371006
C   C271      1.0  0.26080  0.30760  0.97450  1.0000 -0.1023371006
C   C272      1.0  0.30760  0.26080  0.52550  1.0000 -0.1023371006
C   C273      1.0  0.81820  0.60060  0.98660  1.0000 0.565584599
C   C274      1.0  0.60060  0.81820  0.51340  1.0000 0.565584599
C   C275      1.0  0.18180  0.39940  0.01340  1.0000 0.565584599
C   C276      1.0  0.39940  0.18180  0.48660  1.0000 0.565584599
C   C277      1.0  0.79730  0.62870  0.02840  1.0000 0.0058949087
C   C278      1.0  0.62870  0.79730  0.47160  1.0000 0.0058949087
C   C279      1.0  0.20270  0.37130  0.97160  1.0000 0.0058949087
C   C280      1.0  0.37130  0.20270  0.52840  1.0000 0.0058949087
C   C281      1.0  0.83590  0.58150  0.06840  1.0000 -0.0787836502
C   C282      1.0  0.58150  0.83590  0.43160  1.0000 -0.0787836502
C   C283      1.0  0.16410  0.41850  0.93160  1.0000 -0.0787836502
C   C284      1.0  0.41850  0.16410  0.56840  1.0000 -0.0787836502
C   C285      1.0  0.75760  0.67380  0.10360  1.0000 0.0808012457
C   C286      1.0  0.67380  0.75760  0.39640  1.0000 0.0808012457
C   C287      1.0  0.24240  0.32620  0.89640  1.0000 0.0808012457
C   C288      1.0  0.32620  0.24240  0.60360  1.0000 0.0808012457
N   N1        1.0  0.08250  0.42550  0.61910  1.0000 -0.4371534596
N   N2        1.0  0.42550  0.08250  0.88090  1.0000 -0.4371534596
N   N3        1.0  0.91750  0.57450  0.38090  1.0000 -0.4371534596
N   N4        1.0  0.57450  0.91750  0.11910  1.0000 -0.4371534596
N   N5        1.0  0.95710  0.31570  0.61500  1.0000 -0.2787555168
N   N6        1.0  0.31570  0.95710  0.88500  1.0000 -0.2787555168
N   N7        1.0  0.04290  0.68430  0.38500  1.0000 -0.2787555168
N   N8        1.0  0.68430  0.04290  0.11500  1.0000 -0.2787555168
N   N9        1.0  0.98730  0.28850  0.52880  1.0000 -0.4302689219
N   N10       1.0  0.28850  0.98730  0.97120  1.0000 -0.4302689219
N   N11       1.0  0.01270  0.71150  0.47120  1.0000 -0.4302689219
N   N12       1.0  0.71150  0.01270  0.02880  1.0000 -0.4302689219
N   N13       1.0  0.09570  0.41830  0.52790  1.0000 -0.2613595734
N   N14       1.0  0.41830  0.09570  0.97210  1.0000 -0.2613595734
N   N15       1.0  0.90430  0.58170  0.47210  1.0000 -0.2613595734
N   N16       1.0  0.58170  0.90430  0.02790  1.0000 -0.2613595734
N   N17       1.0  0.78090  0.77370  0.20490  1.0000 -0.2868617187
N   N18       1.0  0.77370  0.78090  0.29510  1.0000 -0.2868617187
N   N19       1.0  0.21910  0.22630  0.79510  1.0000 -0.2868617187
N   N20       1.0  0.22630  0.21910  0.70490  1.0000 -0.2868617187
N   N21       1.0  0.66430  0.64630  0.20650  1.0000 -0.3921610648
N   N22       1.0  0.64630  0.66430  0.29350  1.0000 -0.3921610648
N   N23       1.0  0.33570  0.35370  0.79350  1.0000 -0.3921610648
N   N24       1.0  0.35370  0.33570  0.70650  1.0000 -0.3921610648
O   O1        1.0  0.88210  0.54890  0.83270  1.0000 -0.7327597151
O   O2        1.0  0.54890  0.88210  0.66730  1.0000 -0.724097233
O   O3        1.0  0.11790  0.45110  0.16730  1.0000 -0.724097233
O   O4        1.0  0.45110  0.11790  0.33270  1.0000 -0.724097233
O   O5        1.0  0.96080  0.43640  0.87550  1.0000 -0.5798259313
O   O6        1.0  0.43640  0.96080  0.62450  1.0000 -0.5798259313
O   O7        1.0  0.03920  0.56360  0.12450  1.0000 -0.5798259313
O   O8        1.0  0.56360  0.03920  0.37550  1.0000 -0.5798259313
O   O9        1.0  0.40010  0.79970  0.60520  1.0000 -0.5798259313
O   O10       1.0  0.79970  0.40010  0.89480  1.0000 -0.5798259313
O   O11       1.0  0.59990  0.20030  0.39480  1.0000 -0.5798259313
O   O12       1.0  0.20030  0.59990  0.10520  1.0000 -0.5798259313
O   O13       1.0  0.45720  0.74800  0.55590  1.0000 -0.6408919702
O   O14       1.0  0.74800  0.45720  0.94410  1.0000 -0.6408919702
O   O15       1.0  0.54280  0.25200  0.44410  1.0000 -0.6408919702
O   O16       1.0  0.25200  0.54280  0.05590  1.0000 -0.6408919702
O   O17       1.0  0.68730  0.90870  0.62290  1.0000 -0.7579574594
O   O18       1.0  0.90870  0.68730  0.87710  1.0000 -0.7579574594
O   O19       1.0  0.31270  0.09130  0.37710  1.0000 -0.7579574594
O   O20       1.0  0.09130  0.31270  0.12290  1.0000 -0.7579574594
O   O21       1.0  0.59400  0.98940  0.56850  1.0000 -0.5608555684
O   O22       1.0  0.98940  0.59400  0.93150  1.0000 -0.5608555684
O   O23       1.0  0.40600  0.01060  0.43150  1.0000 -0.5608555684
O   O24       1.0  0.01060  0.40600  0.06850  1.0000 -0.5608555684
O   O25       1.0  0.08430  0.33650  0.26540  1.0000 -0.6230709562
O   O26       1.0  0.33650  0.08430  0.23460  1.0000 -0.6230709562
O   O27       1.0  0.91570  0.66350  0.73460  1.0000 -0.6230709562
O   O28       1.0  0.66350  0.91570  0.76540  1.0000 -0.6230709562
O   O29       1.0  0.19320  0.23960  0.29740  1.0000 -0.7465027283
O   O30       1.0  0.23960  0.19320  0.20260  1.0000 -0.7465027283
O   O31       1.0  0.80680  0.76040  0.70260  1.0000 -0.7465027283
O   O32       1.0  0.76040  0.80680  0.79740  1.0000 -0.7465027283
O   O33       1.0  0.17250  0.07770  0.27530  1.0000 -0.6965352307
O   O34       1.0  0.07770  0.17250  0.22470  1.0000 -0.6965352307
O   O35       1.0  0.82750  0.92230  0.72470  1.0000 -0.6965352307
O   O36       1.0  0.92230  0.82750  0.77530  1.0000 -0.6965352307
O   O37       1.0  0.73940  0.61000  0.86260  1.0000 -0.7327597151
O   O38       1.0  0.61000  0.73940  0.63740  1.0000 -0.7327597151
O   O39       1.0  0.26060  0.39000  0.13740  1.0000 -0.7327597151
O   O40       1.0  0.39000  0.26060  0.36260  1.0000 -0.7327597151
O   O41       1.0  0.78430  0.63610  0.95080  1.0000 -0.5217486183
O   O42       1.0  0.63610  0.78430  0.54920  1.0000 -0.5217486183
O   O43       1.0  0.21570  0.36390  0.04920  1.0000 -0.5217486183
O   O44       1.0  0.36390  0.21570  0.45080  1.0000 -0.5217486183
O   O45       1.0  0.87760  0.53800  0.99360  1.0000 -0.6041841119
O   O46       1.0  0.53800  0.87760  0.50640  1.0000 -0.6041841119
O   O47       1.0  0.12240  0.46200  0.00640  1.0000 -0.6041841119
O   O48       1.0  0.46200  0.12240  0.49360  1.0000 -0.6050337563
O   O49       1.0  0.26090  0.35770  0.22690  1.0000 -0.649254785
O   O50       1.0  0.35770  0.26090  0.27310  1.0000 -0.649254785
O   O51       1.0  0.73910  0.64230  0.77310  1.0000 -0.649254785
O   O52       1.0  0.64230  0.73910  0.72690  1.0000 -0.649254785
