# DDEC6 charges by PACMAN v1.1 (https://github.com/mtap-research/PACMAN-charge/)
data_2023[Yb][the]3[ASR]1
_chemical_formula_sum              "Yb24 H144 C336 N6 O120"
_cell_length_a       29.9871
_cell_length_b       29.9871
_cell_length_c       29.9871
_cell_angle_alpha    60
_cell_angle_beta     60
_cell_angle_gamma    60

_symmetry_space_group_name_H-M    "P 1"
_symmetry_Int_Tables_number       1

loop_
  _symmetry_equiv_pos_as_xyz
  'x, y, z'

loop_
  _atom_site_type_symbol
  _atom_site_label
  _atom_site_symmetry_multiplicity
  _atom_site_fract_x
  _atom_site_fract_y
  _atom_site_fract_z
  _atom_site_occupancy
  _atom_site_charge
Yb  Yb1       1.0  0.40968  0.59032  0.94738  1.0000 1.8436931074
Yb  Yb2       1.0  0.59032  0.40968  0.05262  1.0000 1.8436931074
Yb  Yb3       1.0  0.94738  0.05262  0.40968  1.0000 1.8467983803
Yb  Yb4       1.0  0.05262  0.94738  0.59032  1.0000 1.8436931074
Yb  Yb5       1.0  0.94738  0.40968  0.59032  1.0000 1.8467983803
Yb  Yb6       1.0  0.05262  0.59032  0.40968  1.0000 1.8436931074
Yb  Yb7       1.0  0.40968  0.94738  0.05262  1.0000 1.8467983803
Yb  Yb8       1.0  0.59032  0.05262  0.94738  1.0000 1.8467983803
Yb  Yb9       1.0  0.59032  0.94738  0.40968  1.0000 1.8467983803
Yb  Yb10      1.0  0.40968  0.05262  0.59032  1.0000 1.8467983803
Yb  Yb11      1.0  0.05262  0.40968  0.94738  1.0000 1.8436931074
Yb  Yb12      1.0  0.94738  0.59032  0.05262  1.0000 1.8467983803
Yb  Yb13      1.0  0.09032  0.90968  0.44738  1.0000 1.8436931074
Yb  Yb14      1.0  0.90968  0.09032  0.55262  1.0000 1.8467983803
Yb  Yb15      1.0  0.55262  0.44738  0.90968  1.0000 1.8436931074
Yb  Yb16      1.0  0.44738  0.55262  0.09032  1.0000 1.8436931074
Yb  Yb17      1.0  0.55262  0.09032  0.44738  1.0000 1.8436931074
Yb  Yb18      1.0  0.44738  0.90968  0.55262  1.0000 1.8467983803
Yb  Yb19      1.0  0.09032  0.55262  0.90968  1.0000 1.8436931074
Yb  Yb20      1.0  0.90968  0.44738  0.09032  1.0000 1.8467983803
Yb  Yb21      1.0  0.90968  0.55262  0.44738  1.0000 1.8467983803
Yb  Yb22      1.0  0.09032  0.44738  0.55262  1.0000 1.8436931074
Yb  Yb23      1.0  0.44738  0.09032  0.90968  1.0000 1.8436931074
Yb  Yb24      1.0  0.55262  0.90968  0.09032  1.0000 1.8467983803
H   H1        1.0  0.26770  0.48070  0.94510  1.0000 0.0911365998
H   H2        1.0  0.48070  0.26770  0.30650  1.0000 0.0911365998
H   H3        1.0  0.94510  0.30650  0.26770  1.0000 0.0911365998
H   H4        1.0  0.30650  0.94510  0.48070  1.0000 0.0911365998
H   H5        1.0  0.94510  0.26770  0.48070  1.0000 0.0911365998
H   H6        1.0  0.30650  0.48070  0.26770  1.0000 0.0911365998
H   H7        1.0  0.26770  0.94510  0.30650  1.0000 0.0911365998
H   H8        1.0  0.48070  0.30650  0.94510  1.0000 0.0911365998
H   H9        1.0  0.48070  0.94510  0.26770  1.0000 0.0911365998
H   H10       1.0  0.26770  0.30650  0.48070  1.0000 0.0911365998
H   H11       1.0  0.30650  0.26770  0.94510  1.0000 0.0911365998
H   H12       1.0  0.94510  0.48070  0.30650  1.0000 0.0911365998
H   H13       1.0  0.23230  0.01930  0.19350  1.0000 0.0911365998
H   H14       1.0  0.01930  0.23230  0.55490  1.0000 0.0911365998
H   H15       1.0  0.55490  0.19350  0.01930  1.0000 0.0911365998
H   H16       1.0  0.19350  0.55490  0.23230  1.0000 0.0911365998
H   H17       1.0  0.55490  0.23230  0.19350  1.0000 0.0911365998
H   H18       1.0  0.19350  0.01930  0.55490  1.0000 0.0911365998
H   H19       1.0  0.23230  0.55490  0.01930  1.0000 0.0911365998
H   H20       1.0  0.01930  0.19350  0.23230  1.0000 0.0911365998
H   H21       1.0  0.01930  0.55490  0.19350  1.0000 0.0911365998
H   H22       1.0  0.23230  0.19350  0.55490  1.0000 0.0911365998
H   H23       1.0  0.19350  0.23230  0.01930  1.0000 0.0911365998
H   H24       1.0  0.55490  0.01930  0.23230  1.0000 0.0911365998
H   H25       1.0  0.73230  0.51930  0.05490  1.0000 0.0911365998
H   H26       1.0  0.51930  0.73230  0.69350  1.0000 0.0911365998
H   H27       1.0  0.05490  0.69350  0.73230  1.0000 0.0911365998
H   H28       1.0  0.69350  0.05490  0.51930  1.0000 0.0911365998
H   H29       1.0  0.05490  0.73230  0.51930  1.0000 0.0911365998
H   H30       1.0  0.69350  0.51930  0.73230  1.0000 0.0911365998
H   H31       1.0  0.73230  0.05490  0.69350  1.0000 0.0911365998
H   H32       1.0  0.51930  0.69350  0.05490  1.0000 0.0911365998
H   H33       1.0  0.51930  0.05490  0.73230  1.0000 0.0911365998
H   H34       1.0  0.73230  0.69350  0.51930  1.0000 0.0911365998
H   H35       1.0  0.69350  0.73230  0.05490  1.0000 0.0911365998
H   H36       1.0  0.05490  0.51930  0.69350  1.0000 0.0911365998
H   H37       1.0  0.76770  0.98070  0.80650  1.0000 0.0911365998
H   H38       1.0  0.98070  0.76770  0.44510  1.0000 0.0911365998
H   H39       1.0  0.44510  0.80650  0.98070  1.0000 0.0911365998
H   H40       1.0  0.80650  0.44510  0.76770  1.0000 0.0911365998
H   H41       1.0  0.44510  0.76770  0.80650  1.0000 0.0911365998
H   H42       1.0  0.80650  0.98070  0.44510  1.0000 0.0911365998
H   H43       1.0  0.76770  0.44510  0.98070  1.0000 0.0911365998
H   H44       1.0  0.98070  0.80650  0.76770  1.0000 0.0911365998
H   H45       1.0  0.98070  0.44510  0.80650  1.0000 0.0911365998
H   H46       1.0  0.76770  0.80650  0.44510  1.0000 0.0911365998
H   H47       1.0  0.80650  0.76770  0.98070  1.0000 0.0911365998
H   H48       1.0  0.44510  0.98070  0.76770  1.0000 0.0911365998
H   H49       1.0  0.31770  0.52150  0.94030  1.0000 0.1011824244
H   H50       1.0  0.52150  0.31770  0.22050  1.0000 0.1011824244
H   H51       1.0  0.94030  0.22050  0.31770  1.0000 0.1011824244
H   H52       1.0  0.22050  0.94030  0.52150  1.0000 0.1011824244
H   H53       1.0  0.94030  0.31770  0.52150  1.0000 0.1011824244
H   H54       1.0  0.22050  0.52150  0.31770  1.0000 0.1011824244
H   H55       1.0  0.31770  0.94030  0.22050  1.0000 0.1011824244
H   H56       1.0  0.52150  0.22050  0.94030  1.0000 0.1011824244
H   H57       1.0  0.52150  0.94030  0.31770  1.0000 0.1011824244
H   H58       1.0  0.31770  0.22050  0.52150  1.0000 0.1011824244
H   H59       1.0  0.22050  0.31770  0.94030  1.0000 0.1011824244
H   H60       1.0  0.94030  0.52150  0.22050  1.0000 0.1011824244
H   H61       1.0  0.18230  0.97850  0.27950  1.0000 0.1011824244
H   H62       1.0  0.97850  0.18230  0.55970  1.0000 0.1011824244
H   H63       1.0  0.55970  0.27950  0.97850  1.0000 0.1011824244
H   H64       1.0  0.27950  0.55970  0.18230  1.0000 0.1011824244
H   H65       1.0  0.55970  0.18230  0.27950  1.0000 0.1011824244
H   H66       1.0  0.27950  0.97850  0.55970  1.0000 0.1011824244
H   H67       1.0  0.18230  0.55970  0.97850  1.0000 0.1011824244
H   H68       1.0  0.97850  0.27950  0.18230  1.0000 0.1011824244
H   H69       1.0  0.97850  0.55970  0.27950  1.0000 0.1011824244
H   H70       1.0  0.18230  0.27950  0.55970  1.0000 0.1011824244
H   H71       1.0  0.27950  0.18230  0.97850  1.0000 0.1011824244
H   H72       1.0  0.55970  0.97850  0.18230  1.0000 0.1011824244
H   H73       1.0  0.68230  0.47850  0.05970  1.0000 0.1011824244
H   H74       1.0  0.47850  0.68230  0.77950  1.0000 0.1011824244
H   H75       1.0  0.05970  0.77950  0.68230  1.0000 0.1011824244
H   H76       1.0  0.77950  0.05970  0.47850  1.0000 0.1011824244
H   H77       1.0  0.05970  0.68230  0.47850  1.0000 0.1011824244
H   H78       1.0  0.77950  0.47850  0.68230  1.0000 0.1011824244
H   H79       1.0  0.68230  0.05970  0.77950  1.0000 0.1011824244
H   H80       1.0  0.47850  0.77950  0.05970  1.0000 0.1011824244
H   H81       1.0  0.47850  0.05970  0.68230  1.0000 0.1011824244
H   H82       1.0  0.68230  0.77950  0.47850  1.0000 0.1011824244
H   H83       1.0  0.77950  0.68230  0.05970  1.0000 0.1011824244
H   H84       1.0  0.05970  0.47850  0.77950  1.0000 0.1011824244
H   H85       1.0  0.81770  0.02150  0.72050  1.0000 0.1011824244
H   H86       1.0  0.02150  0.81770  0.44030  1.0000 0.1011824244
H   H87       1.0  0.44030  0.72050  0.02150  1.0000 0.1011824244
H   H88       1.0  0.72050  0.44030  0.81770  1.0000 0.1011824244
H   H89       1.0  0.44030  0.81770  0.72050  1.0000 0.1011824244
H   H90       1.0  0.72050  0.02150  0.44030  1.0000 0.1011824244
H   H91       1.0  0.81770  0.44030  0.02150  1.0000 0.1011824244
H   H92       1.0  0.02150  0.72050  0.81770  1.0000 0.1011824244
H   H93       1.0  0.02150  0.44030  0.72050  1.0000 0.1011824244
H   H94       1.0  0.81770  0.72050  0.44030  1.0000 0.1011824244
H   H95       1.0  0.72050  0.81770  0.02150  1.0000 0.1011824244
H   H96       1.0  0.44030  0.02150  0.81770  1.0000 0.1011824244
H   H97       1.0  0.44860  0.38840  0.93180  1.0000 0.1011824244
H   H98       1.0  0.38840  0.44860  0.23120  1.0000 0.1011824244
H   H99       1.0  0.93180  0.23120  0.44860  1.0000 0.1011824244
H   H100      1.0  0.23120  0.93180  0.38840  1.0000 0.1011824244
H   H101      1.0  0.93180  0.44860  0.38840  1.0000 0.1011824244
H   H102      1.0  0.23120  0.38840  0.44860  1.0000 0.1011824244
H   H103      1.0  0.44860  0.93180  0.23120  1.0000 0.1011824244
H   H104      1.0  0.38840  0.23120  0.93180  1.0000 0.1011824244
H   H105      1.0  0.38840  0.93180  0.44860  1.0000 0.1011824244
H   H106      1.0  0.44860  0.23120  0.38840  1.0000 0.1011824244
H   H107      1.0  0.23120  0.44860  0.93180  1.0000 0.1011824244
H   H108      1.0  0.93180  0.38840  0.23120  1.0000 0.1011824244
H   H109      1.0  0.05140  0.11160  0.26880  1.0000 0.1011824244
H   H110      1.0  0.11160  0.05140  0.56820  1.0000 0.1011824244
H   H111      1.0  0.56820  0.26880  0.11160  1.0000 0.1011824244
H   H112      1.0  0.26880  0.56820  0.05140  1.0000 0.1011824244
H   H113      1.0  0.56820  0.05140  0.26880  1.0000 0.1011824244
H   H114      1.0  0.26880  0.11160  0.56820  1.0000 0.1011824244
H   H115      1.0  0.05140  0.56820  0.11160  1.0000 0.1011824244
H   H116      1.0  0.11160  0.26880  0.05140  1.0000 0.1011824244
H   H117      1.0  0.11160  0.56820  0.26880  1.0000 0.1011824244
H   H118      1.0  0.05140  0.26880  0.56820  1.0000 0.1011824244
H   H119      1.0  0.26880  0.05140  0.11160  1.0000 0.1011824244
H   H120      1.0  0.56820  0.11160  0.05140  1.0000 0.1011824244
H   H121      1.0  0.55140  0.61160  0.06820  1.0000 0.1011824244
H   H122      1.0  0.61160  0.55140  0.76880  1.0000 0.1011824244
H   H123      1.0  0.06820  0.76880  0.55140  1.0000 0.1011824244
H   H124      1.0  0.76880  0.06820  0.61160  1.0000 0.1011824244
H   H125      1.0  0.06820  0.55140  0.61160  1.0000 0.1011824244
H   H126      1.0  0.76880  0.61160  0.55140  1.0000 0.1011824244
H   H127      1.0  0.55140  0.06820  0.76880  1.0000 0.1011824244
H   H128      1.0  0.61160  0.76880  0.06820  1.0000 0.1011824244
H   H129      1.0  0.61160  0.06820  0.55140  1.0000 0.1011824244
H   H130      1.0  0.55140  0.76880  0.61160  1.0000 0.1011824244
H   H131      1.0  0.76880  0.55140  0.06820  1.0000 0.1011824244
H   H132      1.0  0.06820  0.61160  0.76880  1.0000 0.1011824244
H   H133      1.0  0.94860  0.88840  0.73120  1.0000 0.1011824244
H   H134      1.0  0.88840  0.94860  0.43180  1.0000 0.1011824244
H   H135      1.0  0.43180  0.73120  0.88840  1.0000 0.1011824244
H   H136      1.0  0.73120  0.43180  0.94860  1.0000 0.1011824244
H   H137      1.0  0.43180  0.94860  0.73120  1.0000 0.1011824244
H   H138      1.0  0.73120  0.88840  0.43180  1.0000 0.1011824244
H   H139      1.0  0.94860  0.43180  0.88840  1.0000 0.1011824244
H   H140      1.0  0.88840  0.73120  0.94860  1.0000 0.1011824244
H   H141      1.0  0.88840  0.43180  0.73120  1.0000 0.1011824244
H   H142      1.0  0.94860  0.73120  0.43180  1.0000 0.1011824244
H   H143      1.0  0.73120  0.94860  0.88840  1.0000 0.1011824244
H   H144      1.0  0.43180  0.88840  0.94860  1.0000 0.1011824244
C   C1        1.0  0.30030  0.38470  0.93430  1.0000 0.0106633897
C   C2        1.0  0.38470  0.30030  0.38070  1.0000 0.0106633897
C   C3        1.0  0.93430  0.38070  0.30030  1.0000 0.0106633897
C   C4        1.0  0.38070  0.93430  0.38470  1.0000 0.0106633897
C   C5        1.0  0.93430  0.30030  0.38470  1.0000 0.0106633897
C   C6        1.0  0.38070  0.38470  0.30030  1.0000 0.0106633897
C   C7        1.0  0.30030  0.93430  0.38070  1.0000 0.0106633897
C   C8        1.0  0.38470  0.38070  0.93430  1.0000 0.0106633897
C   C9        1.0  0.38470  0.93430  0.30030  1.0000 0.0106633897
C   C10       1.0  0.30030  0.38070  0.38470  1.0000 0.0106633897
C   C11       1.0  0.38070  0.30030  0.93430  1.0000 0.0106633897
C   C12       1.0  0.93430  0.38470  0.38070  1.0000 0.0106633897
C   C13       1.0  0.19970  0.11530  0.11930  1.0000 0.0106633897
C   C14       1.0  0.11530  0.19970  0.56570  1.0000 0.0106633897
C   C15       1.0  0.56570  0.11930  0.11530  1.0000 0.0106633897
C   C16       1.0  0.11930  0.56570  0.19970  1.0000 0.0106633897
C   C17       1.0  0.56570  0.19970  0.11930  1.0000 0.0106633897
C   C18       1.0  0.11930  0.11530  0.56570  1.0000 0.0106633897
C   C19       1.0  0.19970  0.56570  0.11530  1.0000 0.0106633897
C   C20       1.0  0.11530  0.11930  0.19970  1.0000 0.0106633897
C   C21       1.0  0.11530  0.56570  0.11930  1.0000 0.0106633897
C   C22       1.0  0.19970  0.11930  0.56570  1.0000 0.0106633897
C   C23       1.0  0.11930  0.19970  0.11530  1.0000 0.0106633897
C   C24       1.0  0.56570  0.11530  0.19970  1.0000 0.0106633897
C   C25       1.0  0.69970  0.61530  0.06570  1.0000 0.0106633897
C   C26       1.0  0.61530  0.69970  0.61930  1.0000 0.0106633897
C   C27       1.0  0.06570  0.61930  0.69970  1.0000 0.0106633897
C   C28       1.0  0.61930  0.06570  0.61530  1.0000 0.0106633897
C   C29       1.0  0.06570  0.69970  0.61530  1.0000 0.0106633897
C   C30       1.0  0.61930  0.61530  0.69970  1.0000 0.0106633897
C   C31       1.0  0.69970  0.06570  0.61930  1.0000 0.0106633897
C   C32       1.0  0.61530  0.61930  0.06570  1.0000 0.0106633897
C   C33       1.0  0.61530  0.06570  0.69970  1.0000 0.0106633897
C   C34       1.0  0.69970  0.61930  0.61530  1.0000 0.0106633897
C   C35       1.0  0.61930  0.69970  0.06570  1.0000 0.0106633897
C   C36       1.0  0.06570  0.61530  0.61930  1.0000 0.0106633897
C   C37       1.0  0.80030  0.88470  0.88070  1.0000 0.0106633897
C   C38       1.0  0.88470  0.80030  0.43430  1.0000 0.0106633897
C   C39       1.0  0.43430  0.88070  0.88470  1.0000 0.0106633897
C   C40       1.0  0.88070  0.43430  0.80030  1.0000 0.0106633897
C   C41       1.0  0.43430  0.80030  0.88070  1.0000 0.0106633897
C   C42       1.0  0.88070  0.88470  0.43430  1.0000 0.0106633897
C   C43       1.0  0.80030  0.43430  0.88470  1.0000 0.0106633897
C   C44       1.0  0.88470  0.88070  0.80030  1.0000 0.0106633897
C   C45       1.0  0.88470  0.43430  0.88070  1.0000 0.0106633897
C   C46       1.0  0.80030  0.88070  0.43430  1.0000 0.0106633897
C   C47       1.0  0.88070  0.80030  0.88470  1.0000 0.0106633897
C   C48       1.0  0.43430  0.88470  0.80030  1.0000 0.0106633897
C   C49       1.0  0.30460  0.46240  0.94120  1.0000 -0.176032111
C   C50       1.0  0.46240  0.30460  0.29180  1.0000 -0.176032111
C   C51       1.0  0.94120  0.29180  0.30460  1.0000 -0.176032111
C   C52       1.0  0.29180  0.94120  0.46240  1.0000 -0.176032111
C   C53       1.0  0.94120  0.30460  0.46240  1.0000 -0.176032111
C   C54       1.0  0.29180  0.46240  0.30460  1.0000 -0.176032111
C   C55       1.0  0.30460  0.94120  0.29180  1.0000 -0.176032111
C   C56       1.0  0.46240  0.29180  0.94120  1.0000 -0.176032111
C   C57       1.0  0.46240  0.94120  0.30460  1.0000 -0.176032111
C   C58       1.0  0.30460  0.29180  0.46240  1.0000 -0.176032111
C   C59       1.0  0.29180  0.30460  0.94120  1.0000 -0.176032111
C   C60       1.0  0.94120  0.46240  0.29180  1.0000 -0.176032111
C   C61       1.0  0.19540  0.03760  0.20820  1.0000 -0.176032111
C   C62       1.0  0.03760  0.19540  0.55880  1.0000 -0.176032111
C   C63       1.0  0.55880  0.20820  0.03760  1.0000 -0.176032111
C   C64       1.0  0.20820  0.55880  0.19540  1.0000 -0.176032111
C   C65       1.0  0.55880  0.19540  0.20820  1.0000 -0.176032111
C   C66       1.0  0.20820  0.03760  0.55880  1.0000 -0.176032111
C   C67       1.0  0.19540  0.55880  0.03760  1.0000 -0.176032111
C   C68       1.0  0.03760  0.20820  0.19540  1.0000 -0.176032111
C   C69       1.0  0.03760  0.55880  0.20820  1.0000 -0.176032111
C   C70       1.0  0.19540  0.20820  0.55880  1.0000 -0.176032111
C   C71       1.0  0.20820  0.19540  0.03760  1.0000 -0.176032111
C   C72       1.0  0.55880  0.03760  0.19540  1.0000 -0.176032111
C   C73       1.0  0.69540  0.53760  0.05880  1.0000 -0.176032111
C   C74       1.0  0.53760  0.69540  0.70820  1.0000 -0.176032111
C   C75       1.0  0.05880  0.70820  0.69540  1.0000 -0.176032111
C   C76       1.0  0.70820  0.05880  0.53760  1.0000 -0.176032111
C   C77       1.0  0.05880  0.69540  0.53760  1.0000 -0.176032111
C   C78       1.0  0.70820  0.53760  0.69540  1.0000 -0.176032111
C   C79       1.0  0.69540  0.05880  0.70820  1.0000 -0.176032111
C   C80       1.0  0.53760  0.70820  0.05880  1.0000 -0.176032111
C   C81       1.0  0.53760  0.05880  0.69540  1.0000 -0.176032111
C   C82       1.0  0.69540  0.70820  0.53760  1.0000 -0.176032111
C   C83       1.0  0.70820  0.69540  0.05880  1.0000 -0.176032111
C   C84       1.0  0.05880  0.53760  0.70820  1.0000 -0.176032111
C   C85       1.0  0.80460  0.96240  0.79180  1.0000 -0.176032111
C   C86       1.0  0.96240  0.80460  0.44120  1.0000 -0.176032111
C   C87       1.0  0.44120  0.79180  0.96240  1.0000 -0.176032111
C   C88       1.0  0.79180  0.44120  0.80460  1.0000 -0.176032111
C   C89       1.0  0.44120  0.80460  0.79180  1.0000 -0.176032111
C   C90       1.0  0.79180  0.96240  0.44120  1.0000 -0.176032111
C   C91       1.0  0.80460  0.44120  0.96240  1.0000 -0.176032111
C   C92       1.0  0.96240  0.79180  0.80460  1.0000 -0.176032111
C   C93       1.0  0.96240  0.44120  0.79180  1.0000 -0.176032111
C   C94       1.0  0.80460  0.79180  0.44120  1.0000 -0.176032111
C   C95       1.0  0.79180  0.80460  0.96240  1.0000 -0.176032111
C   C96       1.0  0.44120  0.96240  0.80460  1.0000 -0.176032111
C   C97       1.0  0.38680  0.46120  0.93540  1.0000 -0.049302831
C   C98       1.0  0.46120  0.38680  0.21660  1.0000 -0.049302831
C   C99       1.0  0.93540  0.21660  0.38680  1.0000 -0.049302831
C   C100      1.0  0.21660  0.93540  0.46120  1.0000 -0.049302831
C   C101      1.0  0.93540  0.38680  0.46120  1.0000 -0.049302831
C   C102      1.0  0.21660  0.46120  0.38680  1.0000 -0.049302831
C   C103      1.0  0.38680  0.93540  0.21660  1.0000 -0.049302831
C   C104      1.0  0.46120  0.21660  0.93540  1.0000 -0.049302831
C   C105      1.0  0.46120  0.93540  0.38680  1.0000 -0.049302831
C   C106      1.0  0.38680  0.21660  0.46120  1.0000 -0.049302831
C   C107      1.0  0.21660  0.38680  0.93540  1.0000 -0.049302831
C   C108      1.0  0.93540  0.46120  0.21660  1.0000 -0.049302831
C   C109      1.0  0.11320  0.03880  0.28340  1.0000 -0.049302831
C   C110      1.0  0.03880  0.11320  0.56460  1.0000 -0.049302831
C   C111      1.0  0.56460  0.28340  0.03880  1.0000 -0.049302831
C   C112      1.0  0.28340  0.56460  0.11320  1.0000 -0.049302831
C   C113      1.0  0.56460  0.11320  0.28340  1.0000 -0.049302831
C   C114      1.0  0.28340  0.03880  0.56460  1.0000 -0.049302831
C   C115      1.0  0.11320  0.56460  0.03880  1.0000 -0.049302831
C   C116      1.0  0.03880  0.28340  0.11320  1.0000 -0.049302831
C   C117      1.0  0.03880  0.56460  0.28340  1.0000 -0.049302831
C   C118      1.0  0.11320  0.28340  0.56460  1.0000 -0.049302831
C   C119      1.0  0.28340  0.11320  0.03880  1.0000 -0.049302831
C   C120      1.0  0.56460  0.03880  0.11320  1.0000 -0.049302831
C   C121      1.0  0.61320  0.53880  0.06460  1.0000 -0.049302831
C   C122      1.0  0.53880  0.61320  0.78340  1.0000 -0.049302831
C   C123      1.0  0.06460  0.78340  0.61320  1.0000 -0.049302831
C   C124      1.0  0.78340  0.06460  0.53880  1.0000 -0.049302831
C   C125      1.0  0.06460  0.61320  0.53880  1.0000 -0.049302831
C   C126      1.0  0.78340  0.53880  0.61320  1.0000 -0.049302831
C   C127      1.0  0.61320  0.06460  0.78340  1.0000 -0.049302831
C   C128      1.0  0.53880  0.78340  0.06460  1.0000 -0.049302831
C   C129      1.0  0.53880  0.06460  0.61320  1.0000 -0.049302831
C   C130      1.0  0.61320  0.78340  0.53880  1.0000 -0.049302831
C   C131      1.0  0.78340  0.61320  0.06460  1.0000 -0.049302831
C   C132      1.0  0.06460  0.53880  0.78340  1.0000 -0.049302831
C   C133      1.0  0.88680  0.96120  0.71660  1.0000 -0.049302831
C   C134      1.0  0.96120  0.88680  0.43540  1.0000 -0.049302831
C   C135      1.0  0.43540  0.71660  0.96120  1.0000 -0.049302831
C   C136      1.0  0.71660  0.43540  0.88680  1.0000 -0.049302831
C   C137      1.0  0.43540  0.88680  0.71660  1.0000 -0.049302831
C   C138      1.0  0.71660  0.96120  0.43540  1.0000 -0.049302831
C   C139      1.0  0.88680  0.43540  0.96120  1.0000 -0.049302831
C   C140      1.0  0.96120  0.71660  0.88680  1.0000 -0.049302831
C   C141      1.0  0.96120  0.43540  0.71660  1.0000 -0.049302831
C   C142      1.0  0.88680  0.71660  0.43540  1.0000 -0.049302831
C   C143      1.0  0.71660  0.88680  0.96120  1.0000 -0.049302831
C   C144      1.0  0.43540  0.96120  0.88680  1.0000 -0.049302831
C   C145      1.0  0.33470  0.48610  0.93910  1.0000 -0.1000417193
C   C146      1.0  0.48610  0.33470  0.24010  1.0000 -0.1000417193
C   C147      1.0  0.93910  0.24010  0.33470  1.0000 -0.1000417193
C   C148      1.0  0.24010  0.93910  0.48610  1.0000 -0.1000417193
C   C149      1.0  0.93910  0.33470  0.48610  1.0000 -0.1000417193
C   C150      1.0  0.24010  0.48610  0.33470  1.0000 -0.1000417193
C   C151      1.0  0.33470  0.93910  0.24010  1.0000 -0.1000417193
C   C152      1.0  0.48610  0.24010  0.93910  1.0000 -0.1000417193
C   C153      1.0  0.48610  0.93910  0.33470  1.0000 -0.1000417193
C   C154      1.0  0.33470  0.24010  0.48610  1.0000 -0.1000417193
C   C155      1.0  0.24010  0.33470  0.93910  1.0000 -0.1000417193
C   C156      1.0  0.93910  0.48610  0.24010  1.0000 -0.1000417193
C   C157      1.0  0.16530  0.01390  0.25990  1.0000 -0.1000417193
C   C158      1.0  0.01390  0.16530  0.56090  1.0000 -0.1000417193
C   C159      1.0  0.56090  0.25990  0.01390  1.0000 -0.1000417193
C   C160      1.0  0.25990  0.56090  0.16530  1.0000 -0.1000417193
C   C161      1.0  0.56090  0.16530  0.25990  1.0000 -0.1000417193
C   C162      1.0  0.25990  0.01390  0.56090  1.0000 -0.1000417193
C   C163      1.0  0.16530  0.56090  0.01390  1.0000 -0.1000417193
C   C164      1.0  0.01390  0.25990  0.16530  1.0000 -0.1000417193
C   C165      1.0  0.01390  0.56090  0.25990  1.0000 -0.1000417193
C   C166      1.0  0.16530  0.25990  0.56090  1.0000 -0.1000417193
C   C167      1.0  0.25990  0.16530  0.01390  1.0000 -0.1000417193
C   C168      1.0  0.56090  0.01390  0.16530  1.0000 -0.1000417193
C   C169      1.0  0.66530  0.51390  0.06090  1.0000 -0.1000417193
C   C170      1.0  0.51390  0.66530  0.75990  1.0000 -0.1000417193
C   C171      1.0  0.06090  0.75990  0.66530  1.0000 -0.1000417193
C   C172      1.0  0.75990  0.06090  0.51390  1.0000 -0.1000417193
C   C173      1.0  0.06090  0.66530  0.51390  1.0000 -0.1000417193
C   C174      1.0  0.75990  0.51390  0.66530  1.0000 -0.1000417193
C   C175      1.0  0.66530  0.06090  0.75990  1.0000 -0.1000417193
C   C176      1.0  0.51390  0.75990  0.06090  1.0000 -0.1000417193
C   C177      1.0  0.51390  0.06090  0.66530  1.0000 -0.1000417193
C   C178      1.0  0.66530  0.75990  0.51390  1.0000 -0.1000417193
C   C179      1.0  0.75990  0.66530  0.06090  1.0000 -0.1000417193
C   C180      1.0  0.06090  0.51390  0.75990  1.0000 -0.1000417193
C   C181      1.0  0.83470  0.98610  0.74010  1.0000 -0.1000417193
C   C182      1.0  0.98610  0.83470  0.43910  1.0000 -0.1000417193
C   C183      1.0  0.43910  0.74010  0.98610  1.0000 -0.1000417193
C   C184      1.0  0.74010  0.43910  0.83470  1.0000 -0.1000417193
C   C185      1.0  0.43910  0.83470  0.74010  1.0000 -0.1000417193
C   C186      1.0  0.74010  0.98610  0.43910  1.0000 -0.1000417193
C   C187      1.0  0.83470  0.43910  0.98610  1.0000 -0.1000417193
C   C188      1.0  0.98610  0.74010  0.83470  1.0000 -0.1000417193
C   C189      1.0  0.98610  0.43910  0.74010  1.0000 -0.1000417193
C   C190      1.0  0.83470  0.74010  0.43910  1.0000 -0.1000417193
C   C191      1.0  0.74010  0.83470  0.98610  1.0000 -0.1000417193
C   C192      1.0  0.43910  0.98610  0.83470  1.0000 -0.1000417193
C   C193      1.0  0.33060  0.40940  0.93720  1.0000 0.0106633897
C   C194      1.0  0.40940  0.33060  0.32280  1.0000 0.0106633897
C   C195      1.0  0.93720  0.32280  0.33060  1.0000 0.0106633897
C   C196      1.0  0.32280  0.93720  0.40940  1.0000 0.0106633897
C   C197      1.0  0.93720  0.33060  0.40940  1.0000 0.0106633897
C   C198      1.0  0.32280  0.40940  0.33060  1.0000 0.0106633897
C   C199      1.0  0.33060  0.93720  0.32280  1.0000 0.0106633897
C   C200      1.0  0.40940  0.32280  0.93720  1.0000 0.0106633897
C   C201      1.0  0.40940  0.93720  0.33060  1.0000 0.0106633897
C   C202      1.0  0.33060  0.32280  0.40940  1.0000 0.0106633897
C   C203      1.0  0.32280  0.33060  0.93720  1.0000 0.0106633897
C   C204      1.0  0.93720  0.40940  0.32280  1.0000 0.0106633897
C   C205      1.0  0.16940  0.09060  0.17720  1.0000 0.0106633897
C   C206      1.0  0.09060  0.16940  0.56280  1.0000 0.0106633897
C   C207      1.0  0.56280  0.17720  0.09060  1.0000 0.0106633897
C   C208      1.0  0.17720  0.56280  0.16940  1.0000 0.0106633897
C   C209      1.0  0.56280  0.16940  0.17720  1.0000 0.0106633897
C   C210      1.0  0.17720  0.09060  0.56280  1.0000 0.0106633897
C   C211      1.0  0.16940  0.56280  0.09060  1.0000 0.0106633897
C   C212      1.0  0.09060  0.17720  0.16940  1.0000 0.0106633897
C   C213      1.0  0.09060  0.56280  0.17720  1.0000 0.0106633897
C   C214      1.0  0.16940  0.17720  0.56280  1.0000 0.0106633897
C   C215      1.0  0.17720  0.16940  0.09060  1.0000 0.0106633897
C   C216      1.0  0.56280  0.09060  0.16940  1.0000 0.0106633897
C   C217      1.0  0.66940  0.59060  0.06280  1.0000 0.0106633897
C   C218      1.0  0.59060  0.66940  0.67720  1.0000 0.0106633897
C   C219      1.0  0.06280  0.67720  0.66940  1.0000 0.0106633897
C   C220      1.0  0.67720  0.06280  0.59060  1.0000 0.0106633897
C   C221      1.0  0.06280  0.66940  0.59060  1.0000 0.0106633897
C   C222      1.0  0.67720  0.59060  0.66940  1.0000 0.0106633897
C   C223      1.0  0.66940  0.06280  0.67720  1.0000 0.0106633897
C   C224      1.0  0.59060  0.67720  0.06280  1.0000 0.0106633897
C   C225      1.0  0.59060  0.06280  0.66940  1.0000 0.0106633897
C   C226      1.0  0.66940  0.67720  0.59060  1.0000 0.0106633897
C   C227      1.0  0.67720  0.66940  0.06280  1.0000 0.0106633897
C   C228      1.0  0.06280  0.59060  0.67720  1.0000 0.0106633897
C   C229      1.0  0.83060  0.90940  0.82280  1.0000 0.0106633897
C   C230      1.0  0.90940  0.83060  0.43720  1.0000 0.0106633897
C   C231      1.0  0.43720  0.82280  0.90940  1.0000 0.0106633897
C   C232      1.0  0.82280  0.43720  0.83060  1.0000 0.0106633897
C   C233      1.0  0.43720  0.83060  0.82280  1.0000 0.0106633897
C   C234      1.0  0.82280  0.90940  0.43720  1.0000 0.0106633897
C   C235      1.0  0.83060  0.43720  0.90940  1.0000 0.0106633897
C   C236      1.0  0.90940  0.82280  0.83060  1.0000 0.0106633897
C   C237      1.0  0.90940  0.43720  0.82280  1.0000 0.0106633897
C   C238      1.0  0.83060  0.82280  0.43720  1.0000 0.0106633897
C   C239      1.0  0.82280  0.83060  0.90940  1.0000 0.0106633897
C   C240      1.0  0.43720  0.90940  0.83060  1.0000 0.0106633897
C   C241      1.0  0.41220  0.40680  0.93360  1.0000 -0.1682224655
C   C242      1.0  0.40680  0.41220  0.24740  1.0000 -0.1682224655
C   C243      1.0  0.93360  0.24740  0.41220  1.0000 -0.1682224655
C   C244      1.0  0.24740  0.93360  0.40680  1.0000 -0.1682224655
C   C245      1.0  0.93360  0.41220  0.40680  1.0000 -0.1682224655
C   C246      1.0  0.24740  0.40680  0.41220  1.0000 -0.1682224655
C   C247      1.0  0.41220  0.93360  0.24740  1.0000 -0.1682224655
C   C248      1.0  0.40680  0.24740  0.93360  1.0000 -0.1682224655
C   C249      1.0  0.40680  0.93360  0.41220  1.0000 -0.1682224655
C   C250      1.0  0.41220  0.24740  0.40680  1.0000 -0.1682224655
C   C251      1.0  0.24740  0.41220  0.93360  1.0000 -0.1682224655
C   C252      1.0  0.93360  0.40680  0.24740  1.0000 -0.1682224655
C   C253      1.0  0.08780  0.09320  0.25260  1.0000 -0.1682224655
C   C254      1.0  0.09320  0.08780  0.56640  1.0000 -0.1682224655
C   C255      1.0  0.56640  0.25260  0.09320  1.0000 -0.1682224655
C   C256      1.0  0.25260  0.56640  0.08780  1.0000 -0.1682224655
C   C257      1.0  0.56640  0.08780  0.25260  1.0000 -0.1682224655
C   C258      1.0  0.25260  0.09320  0.56640  1.0000 -0.1682224655
C   C259      1.0  0.08780  0.56640  0.09320  1.0000 -0.1682224655
C   C260      1.0  0.09320  0.25260  0.08780  1.0000 -0.1682224655
C   C261      1.0  0.09320  0.56640  0.25260  1.0000 -0.1682224655
C   C262      1.0  0.08780  0.25260  0.56640  1.0000 -0.1682224655
C   C263      1.0  0.25260  0.08780  0.09320  1.0000 -0.1682224655
C   C264      1.0  0.56640  0.09320  0.08780  1.0000 -0.1682224655
C   C265      1.0  0.58780  0.59320  0.06640  1.0000 -0.1682224655
C   C266      1.0  0.59320  0.58780  0.75260  1.0000 -0.1682224655
C   C267      1.0  0.06640  0.75260  0.58780  1.0000 -0.1682224655
C   C268      1.0  0.75260  0.06640  0.59320  1.0000 -0.1682224655
C   C269      1.0  0.06640  0.58780  0.59320  1.0000 -0.1682224655
C   C270      1.0  0.75260  0.59320  0.58780  1.0000 -0.1682224655
C   C271      1.0  0.58780  0.06640  0.75260  1.0000 -0.1682224655
C   C272      1.0  0.59320  0.75260  0.06640  1.0000 -0.1682224655
C   C273      1.0  0.59320  0.06640  0.58780  1.0000 -0.1682224655
C   C274      1.0  0.58780  0.75260  0.59320  1.0000 -0.1682224655
C   C275      1.0  0.75260  0.58780  0.06640  1.0000 -0.1682224655
C   C276      1.0  0.06640  0.59320  0.75260  1.0000 -0.1682224655
C   C277      1.0  0.91220  0.90680  0.74740  1.0000 -0.1682224655
C   C278      1.0  0.90680  0.91220  0.43360  1.0000 -0.1682224655
C   C279      1.0  0.43360  0.74740  0.90680  1.0000 -0.1682224655
C   C280      1.0  0.74740  0.43360  0.91220  1.0000 -0.1682224655
C   C281      1.0  0.43360  0.91220  0.74740  1.0000 -0.1682224655
C   C282      1.0  0.74740  0.90680  0.43360  1.0000 -0.1682224655
C   C283      1.0  0.91220  0.43360  0.90680  1.0000 -0.1682224655
C   C284      1.0  0.90680  0.74740  0.91220  1.0000 -0.1682224655
C   C285      1.0  0.90680  0.43360  0.74740  1.0000 -0.1682224655
C   C286      1.0  0.91220  0.74740  0.43360  1.0000 -0.1682224655
C   C287      1.0  0.74740  0.91220  0.90680  1.0000 -0.1682224655
C   C288      1.0  0.43360  0.90680  0.91220  1.0000 -0.1682224655
C   C289      1.0  0.41940  0.48740  0.93320  1.0000 0.6477557073
C   C290      1.0  0.48740  0.41940  0.16000  1.0000 0.6477557073
C   C291      1.0  0.93320  0.16000  0.41940  1.0000 0.6477557073
C   C292      1.0  0.16000  0.93320  0.48740  1.0000 0.6477557073
C   C293      1.0  0.93320  0.41940  0.48740  1.0000 0.6477557073
C   C294      1.0  0.16000  0.48740  0.41940  1.0000 0.6477557073
C   C295      1.0  0.41940  0.93320  0.16000  1.0000 0.6477557073
C   C296      1.0  0.48740  0.16000  0.93320  1.0000 0.6477557073
C   C297      1.0  0.48740  0.93320  0.41940  1.0000 0.6477557073
C   C298      1.0  0.41940  0.16000  0.48740  1.0000 0.6477557073
C   C299      1.0  0.16000  0.41940  0.93320  1.0000 0.6477557073
C   C300      1.0  0.93320  0.48740  0.16000  1.0000 0.6477557073
C   C301      1.0  0.08060  0.01260  0.34000  1.0000 0.6477557073
C   C302      1.0  0.01260  0.08060  0.56680  1.0000 0.6477557073
C   C303      1.0  0.56680  0.34000  0.01260  1.0000 0.6477557073
C   C304      1.0  0.34000  0.56680  0.08060  1.0000 0.6477557073
C   C305      1.0  0.56680  0.08060  0.34000  1.0000 0.6477557073
C   C306      1.0  0.34000  0.01260  0.56680  1.0000 0.6477557073
C   C307      1.0  0.08060  0.56680  0.01260  1.0000 0.6477557073
C   C308      1.0  0.01260  0.34000  0.08060  1.0000 0.6477557073
C   C309      1.0  0.01260  0.56680  0.34000  1.0000 0.6477557073
C   C310      1.0  0.08060  0.34000  0.56680  1.0000 0.6477557073
C   C311      1.0  0.34000  0.08060  0.01260  1.0000 0.6477557073
C   C312      1.0  0.56680  0.01260  0.08060  1.0000 0.6477557073
C   C313      1.0  0.58060  0.51260  0.06680  1.0000 0.6477557073
C   C314      1.0  0.51260  0.58060  0.84000  1.0000 0.6477557073
C   C315      1.0  0.06680  0.84000  0.58060  1.0000 0.6477557073
C   C316      1.0  0.84000  0.06680  0.51260  1.0000 0.6477557073
C   C317      1.0  0.06680  0.58060  0.51260  1.0000 0.6477557073
C   C318      1.0  0.84000  0.51260  0.58060  1.0000 0.6477557073
C   C319      1.0  0.58060  0.06680  0.84000  1.0000 0.6477557073
C   C320      1.0  0.51260  0.84000  0.06680  1.0000 0.6477557073
C   C321      1.0  0.51260  0.06680  0.58060  1.0000 0.6477557073
C   C322      1.0  0.58060  0.84000  0.51260  1.0000 0.6477557073
C   C323      1.0  0.84000  0.58060  0.06680  1.0000 0.6477557073
C   C324      1.0  0.06680  0.51260  0.84000  1.0000 0.6477557073
C   C325      1.0  0.91940  0.98740  0.66000  1.0000 0.6477557073
C   C326      1.0  0.98740  0.91940  0.43320  1.0000 0.6477557073
C   C327      1.0  0.43320  0.66000  0.98740  1.0000 0.6477557073
C   C328      1.0  0.66000  0.43320  0.91940  1.0000 0.6477557073
C   C329      1.0  0.43320  0.91940  0.66000  1.0000 0.6477557073
C   C330      1.0  0.66000  0.98740  0.43320  1.0000 0.6477557073
C   C331      1.0  0.91940  0.43320  0.98740  1.0000 0.6477557073
C   C332      1.0  0.98740  0.66000  0.91940  1.0000 0.6477557073
C   C333      1.0  0.98740  0.43320  0.66000  1.0000 0.6477557073
C   C334      1.0  0.91940  0.66000  0.43320  1.0000 0.6477557073
C   C335      1.0  0.66000  0.91940  0.98740  1.0000 0.6477557073
C   C336      1.0  0.43320  0.98740  0.91940  1.0000 0.6477557073
N   N1        1.0  0.50000  0.50000  0.00000  1.0000 0.4404191574
N   N2        1.0  0.00000  0.00000  0.50000  1.0000 0.4404191574
N   N3        1.0  0.00000  0.50000  0.50000  1.0000 0.4404191574
N   N4        1.0  0.50000  0.00000  0.00000  1.0000 0.4453223845
N   N5        1.0  0.50000  0.00000  0.50000  1.0000 0.4404191574
N   N6        1.0  0.00000  0.50000  0.00000  1.0000 0.4404191574
O   O1        1.0  0.46410  0.53590  0.00930  1.0000 -0.1318140537
O   O2        1.0  0.53590  0.46410  0.99070  1.0000 -0.1318140537
O   O3        1.0  0.00930  0.99070  0.46410  1.0000 -0.1318140537
O   O4        1.0  0.99070  0.00930  0.53590  1.0000 -0.135711349
O   O5        1.0  0.00930  0.46410  0.53590  1.0000 -0.1318140537
O   O6        1.0  0.99070  0.53590  0.46410  1.0000 -0.1318140537
O   O7        1.0  0.46410  0.00930  0.99070  1.0000 -0.135711349
O   O8        1.0  0.53590  0.99070  0.00930  1.0000 -0.135711349
O   O9        1.0  0.53590  0.00930  0.46410  1.0000 -0.1318140537
O   O10       1.0  0.46410  0.99070  0.53590  1.0000 -0.1318140537
O   O11       1.0  0.99070  0.46410  0.00930  1.0000 -0.135711349
O   O12       1.0  0.00930  0.53590  0.99070  1.0000 -0.1318140537
O   O13       1.0  0.03590  0.96410  0.50930  1.0000 -0.1318140537
O   O14       1.0  0.96410  0.03590  0.49070  1.0000 -0.1318140537
O   O15       1.0  0.49070  0.50930  0.96410  1.0000 -0.1318140537
O   O16       1.0  0.50930  0.49070  0.03590  1.0000 -0.1318140537
O   O17       1.0  0.49070  0.03590  0.50930  1.0000 -0.1318140537
O   O18       1.0  0.50930  0.96410  0.49070  1.0000 -0.1318140537
O   O19       1.0  0.03590  0.49070  0.96410  1.0000 -0.1318140537
O   O20       1.0  0.96410  0.50930  0.03590  1.0000 -0.1318140537
O   O21       1.0  0.96410  0.49070  0.50930  1.0000 -0.1318140537
O   O22       1.0  0.03590  0.50930  0.49070  1.0000 -0.1318140537
O   O23       1.0  0.50930  0.03590  0.96410  1.0000 -0.135711349
O   O24       1.0  0.49070  0.96410  0.03590  1.0000 -0.1318140537
O   O25       1.0  0.39720  0.53260  0.93480  1.0000 -0.6529380517
O   O26       1.0  0.53260  0.39720  0.13540  1.0000 -0.6529380517
O   O27       1.0  0.93480  0.13540  0.39720  1.0000 -0.6529380517
O   O28       1.0  0.13540  0.93480  0.53260  1.0000 -0.6529380517
O   O29       1.0  0.93480  0.39720  0.53260  1.0000 -0.6529380517
O   O30       1.0  0.13540  0.53260  0.39720  1.0000 -0.6529380517
O   O31       1.0  0.39720  0.93480  0.13540  1.0000 -0.6529380517
O   O32       1.0  0.53260  0.13540  0.93480  1.0000 -0.6529380517
O   O33       1.0  0.53260  0.93480  0.39720  1.0000 -0.6529380517
O   O34       1.0  0.39720  0.13540  0.53260  1.0000 -0.6529380517
O   O35       1.0  0.13540  0.39720  0.93480  1.0000 -0.6529380517
O   O36       1.0  0.93480  0.53260  0.13540  1.0000 -0.6529380517
O   O37       1.0  0.10280  0.96740  0.36460  1.0000 -0.6529380517
O   O38       1.0  0.96740  0.10280  0.56520  1.0000 -0.6529380517
O   O39       1.0  0.56520  0.36460  0.96740  1.0000 -0.6529380517
O   O40       1.0  0.36460  0.56520  0.10280  1.0000 -0.6529380517
O   O41       1.0  0.56520  0.10280  0.36460  1.0000 -0.6529380517
O   O42       1.0  0.36460  0.96740  0.56520  1.0000 -0.6529380517
O   O43       1.0  0.10280  0.56520  0.96740  1.0000 -0.6529380517
O   O44       1.0  0.96740  0.36460  0.10280  1.0000 -0.6529380517
O   O45       1.0  0.96740  0.56520  0.36460  1.0000 -0.6529380517
O   O46       1.0  0.10280  0.36460  0.56520  1.0000 -0.6529380517
O   O47       1.0  0.36460  0.10280  0.96740  1.0000 -0.6529380517
O   O48       1.0  0.56520  0.96740  0.10280  1.0000 -0.6529380517
O   O49       1.0  0.60280  0.46740  0.06520  1.0000 -0.6529380517
O   O50       1.0  0.46740  0.60280  0.86460  1.0000 -0.6529380517
O   O51       1.0  0.06520  0.86460  0.60280  1.0000 -0.6529380517
O   O52       1.0  0.86460  0.06520  0.46740  1.0000 -0.6529380517
O   O53       1.0  0.06520  0.60280  0.46740  1.0000 -0.6529380517
O   O54       1.0  0.86460  0.46740  0.60280  1.0000 -0.6529380517
O   O55       1.0  0.60280  0.06520  0.86460  1.0000 -0.6529380517
O   O56       1.0  0.46740  0.86460  0.06520  1.0000 -0.6529380517
O   O57       1.0  0.46740  0.06520  0.60280  1.0000 -0.6529380517
O   O58       1.0  0.60280  0.86460  0.46740  1.0000 -0.6529380517
O   O59       1.0  0.86460  0.60280  0.06520  1.0000 -0.6529380517
O   O60       1.0  0.06520  0.46740  0.86460  1.0000 -0.6529380517
O   O61       1.0  0.89720  0.03260  0.63540  1.0000 -0.6529380517
O   O62       1.0  0.03260  0.89720  0.43480  1.0000 -0.6529380517
O   O63       1.0  0.43480  0.63540  0.03260  1.0000 -0.6529380517
O   O64       1.0  0.63540  0.43480  0.89720  1.0000 -0.6529380517
O   O65       1.0  0.43480  0.89720  0.63540  1.0000 -0.6529380517
O   O66       1.0  0.63540  0.03260  0.43480  1.0000 -0.6529380517
O   O67       1.0  0.89720  0.43480  0.03260  1.0000 -0.6529380517
O   O68       1.0  0.03260  0.63540  0.89720  1.0000 -0.6529380517
O   O69       1.0  0.03260  0.43480  0.63540  1.0000 -0.6529380517
O   O70       1.0  0.89720  0.63540  0.43480  1.0000 -0.6529380517
O   O71       1.0  0.63540  0.89720  0.03260  1.0000 -0.6529380517
O   O72       1.0  0.43480  0.03260  0.89720  1.0000 -0.6529380517
O   O73       1.0  0.46780  0.45880  0.92980  1.0000 -0.7275111787
O   O74       1.0  0.45880  0.46780  0.14360  1.0000 -0.7275111787
O   O75       1.0  0.92980  0.14360  0.46780  1.0000 -0.7275111787
O   O76       1.0  0.14360  0.92980  0.45880  1.0000 -0.7275111787
O   O77       1.0  0.92980  0.46780  0.45880  1.0000 -0.7275111787
O   O78       1.0  0.14360  0.45880  0.46780  1.0000 -0.7275111787
O   O79       1.0  0.46780  0.92980  0.14360  1.0000 -0.7275111787
O   O80       1.0  0.45880  0.14360  0.92980  1.0000 -0.7275111787
O   O81       1.0  0.45880  0.92980  0.46780  1.0000 -0.7275111787
O   O82       1.0  0.46780  0.14360  0.45880  1.0000 -0.7275111787
O   O83       1.0  0.14360  0.46780  0.92980  1.0000 -0.7275111787
O   O84       1.0  0.92980  0.45880  0.14360  1.0000 -0.7275111787
O   O85       1.0  0.03220  0.04120  0.35640  1.0000 -0.7275111787
O   O86       1.0  0.04120  0.03220  0.57020  1.0000 -0.7275111787
O   O87       1.0  0.57020  0.35640  0.04120  1.0000 -0.7275111787
O   O88       1.0  0.35640  0.57020  0.03220  1.0000 -0.7275111787
O   O89       1.0  0.57020  0.03220  0.35640  1.0000 -0.7275111787
O   O90       1.0  0.35640  0.04120  0.57020  1.0000 -0.7275111787
O   O91       1.0  0.03220  0.57020  0.04120  1.0000 -0.7275111787
O   O92       1.0  0.04120  0.35640  0.03220  1.0000 -0.7275111787
O   O93       1.0  0.04120  0.57020  0.35640  1.0000 -0.7275111787
O   O94       1.0  0.03220  0.35640  0.57020  1.0000 -0.7275111787
O   O95       1.0  0.35640  0.03220  0.04120  1.0000 -0.7275111787
O   O96       1.0  0.57020  0.04120  0.03220  1.0000 -0.7275111787
O   O97       1.0  0.53220  0.54120  0.07020  1.0000 -0.7275111787
O   O98       1.0  0.54120  0.53220  0.85640  1.0000 -0.7275111787
O   O99       1.0  0.07020  0.85640  0.53220  1.0000 -0.7275111787
O   O100      1.0  0.85640  0.07020  0.54120  1.0000 -0.7275111787
O   O101      1.0  0.07020  0.53220  0.54120  1.0000 -0.7275111787
O   O102      1.0  0.85640  0.54120  0.53220  1.0000 -0.7275111787
O   O103      1.0  0.53220  0.07020  0.85640  1.0000 -0.7275111787
O   O104      1.0  0.54120  0.85640  0.07020  1.0000 -0.7275111787
O   O105      1.0  0.54120  0.07020  0.53220  1.0000 -0.7275111787
O   O106      1.0  0.53220  0.85640  0.54120  1.0000 -0.7275111787
O   O107      1.0  0.85640  0.53220  0.07020  1.0000 -0.7275111787
O   O108      1.0  0.07020  0.54120  0.85640  1.0000 -0.7275111787
O   O109      1.0  0.96780  0.95880  0.64360  1.0000 -0.7275111787
O   O110      1.0  0.95880  0.96780  0.42980  1.0000 -0.7275111787
O   O111      1.0  0.42980  0.64360  0.95880  1.0000 -0.7275111787
O   O112      1.0  0.64360  0.42980  0.96780  1.0000 -0.7275111787
O   O113      1.0  0.42980  0.96780  0.64360  1.0000 -0.7275111787
O   O114      1.0  0.64360  0.95880  0.42980  1.0000 -0.7275111787
O   O115      1.0  0.96780  0.42980  0.95880  1.0000 -0.7275111787
O   O116      1.0  0.95880  0.64360  0.96780  1.0000 -0.7275111787
O   O117      1.0  0.95880  0.42980  0.64360  1.0000 -0.7275111787
O   O118      1.0  0.96780  0.64360  0.42980  1.0000 -0.7275111787
O   O119      1.0  0.64360  0.96780  0.95880  1.0000 -0.7275111787
O   O120      1.0  0.42980  0.95880  0.96780  1.0000 -0.7275111787
