# DDEC6 charges by PACMAN v1.1 (https://github.com/mtap-research/PACMAN-charge/)
data_2023[Zn][srs]3[ASR]1
_chemical_formula_sum              "Zn4 H32 C48 N20"
_cell_length_a       9.151
_cell_length_b       14.175
_cell_length_c       22.583
_cell_angle_alpha    90
_cell_angle_beta     90
_cell_angle_gamma    90

_symmetry_space_group_name_H-M    "P 1"
_symmetry_Int_Tables_number       1

loop_
  _symmetry_equiv_pos_as_xyz
  'x, y, z'

loop_
  _atom_site_type_symbol
  _atom_site_label
  _atom_site_symmetry_multiplicity
  _atom_site_fract_x
  _atom_site_fract_y
  _atom_site_fract_z
  _atom_site_occupancy
  _atom_site_charge
Zn  Zn1       1.0  0.17004  0.35958  0.38332  1.0000 0.4701077166
Zn  Zn2       1.0  0.32996  0.64042  0.88332  1.0000 0.4701077166
Zn  Zn3       1.0  0.82996  0.85958  0.11668  1.0000 0.4701077166
Zn  Zn4       1.0  0.67004  0.14042  0.61668  1.0000 0.4701077166
H   H1        1.0  0.30765  0.27625  0.47065  1.0000 0.1082038591
H   H2        1.0  0.19235  0.72375  0.97065  1.0000 0.1082038591
H   H3        1.0  0.69235  0.77625  0.02935  1.0000 0.1082038591
H   H4        1.0  0.80765  0.22375  0.52935  1.0000 0.1082038591
H   H5        1.0  0.44047  0.01196  0.43213  1.0000 0.1352900389
H   H6        1.0  0.05953  0.98804  0.93213  1.0000 0.1352900389
H   H7        1.0  0.55953  0.51196  0.06787  1.0000 0.1352900389
H   H8        1.0  0.94047  0.48804  0.56787  1.0000 0.1352900389
H   H9        1.0  0.46172  0.27526  0.55334  1.0000 0.1082038591
H   H10       1.0  0.03828  0.72474  0.05334  1.0000 0.1082038591
H   H11       1.0  0.53828  0.77526  0.94666  1.0000 0.1082038591
H   H12       1.0  0.96172  0.22474  0.44666  1.0000 0.1082038591
H   H13       1.0  0.84950  0.05202  0.15817  1.0000 0.0925909757
H   H14       1.0  0.65050  0.94798  0.65817  1.0000 0.0925909757
H   H15       1.0  0.15050  0.55202  0.34183  1.0000 0.0925909757
H   H16       1.0  0.34950  0.44798  0.84183  1.0000 0.0925909757
H   H17       1.0  0.15169  0.91371  0.29544  1.0000 0.1311824071
H   H18       1.0  0.34831  0.08629  0.79544  1.0000 0.1311824071
H   H19       1.0  0.84831  0.41371  0.20456  1.0000 0.1311824071
H   H20       1.0  0.65169  0.58629  0.70456  1.0000 0.1311824071
H   H21       1.0  0.58383  0.01298  0.51628  1.0000 0.0951919333
H   H22       1.0  0.91617  0.98702  0.01628  1.0000 0.0951919333
H   H23       1.0  0.41617  0.51298  0.98372  1.0000 0.0951919333
H   H24       1.0  0.08383  0.48702  0.48372  1.0000 0.0951919333
H   H25       1.0  0.04215  0.82444  0.21962  1.0000 0.0951919333
H   H26       1.0  0.45785  0.17556  0.71962  1.0000 0.0951919333
H   H27       1.0  0.95785  0.32444  0.28038  1.0000 0.0951919333
H   H28       1.0  0.54215  0.67556  0.78038  1.0000 0.0951919333
H   H29       1.0  0.96528  0.14955  0.22548  1.0000 0.1311824071
H   H30       1.0  0.53472  0.85045  0.72548  1.0000 0.1311824071
H   H31       1.0  0.03472  0.64955  0.27452  1.0000 0.1311824071
H   H32       1.0  0.46528  0.35045  0.77452  1.0000 0.1311824071
C   C1        1.0  0.25980  0.14640  0.39010  1.0000 0.243833338
C   C2        1.0  0.24020  0.85360  0.89010  1.0000 0.243833338
C   C3        1.0  0.74020  0.64640  0.10990  1.0000 0.243833338
C   C4        1.0  0.75980  0.35360  0.60990  1.0000 0.243833338
C   C5        1.0  0.36380  0.22160  0.47940  1.0000 -0.1987035152
C   C6        1.0  0.13620  0.77840  0.97940  1.0000 -0.1987035152
C   C7        1.0  0.63620  0.72160  0.02060  1.0000 -0.1987035152
C   C8        1.0  0.86380  0.27840  0.52060  1.0000 -0.1987035152
C   C9        1.0  0.13780  0.09700  0.31630  1.0000 0.243833338
C   C10       1.0  0.36220  0.90300  0.81630  1.0000 0.243833338
C   C11       1.0  0.86220  0.59700  0.18370  1.0000 0.243833338
C   C12       1.0  0.63780  0.40300  0.68370  1.0000 0.243833338
C   C13       1.0  0.44100  0.06600  0.45700  1.0000 -0.187519404
C   C14       1.0  0.05900  0.93400  0.95700  1.0000 -0.187519404
C   C15       1.0  0.55900  0.56600  0.04300  1.0000 -0.187519404
C   C16       1.0  0.94100  0.43400  0.54300  1.0000 -0.187519404
C   C17       1.0  0.35580  0.14410  0.44270  1.0000 0.0779616787
C   C18       1.0  0.14420  0.85590  0.94270  1.0000 0.0779616787
C   C19       1.0  0.64420  0.64410  0.05730  1.0000 0.0779616787
C   C20       1.0  0.85580  0.35590  0.55730  1.0000 0.0779616787
C   C21       1.0  0.45350  0.22050  0.52930  1.0000 0.018916194
C   C22       1.0  0.04650  0.77950  0.02930  1.0000 0.018916194
C   C23       1.0  0.54650  0.72050  0.97070  1.0000 0.018916194
C   C24       1.0  0.95350  0.27950  0.47070  1.0000 0.018916194
C   C25       1.0  0.91450  0.02410  0.18590  1.0000 0.0582613983
C   C26       1.0  0.58550  0.97590  0.68590  1.0000 0.0582613983
C   C27       1.0  0.08550  0.52410  0.31410  1.0000 0.0582613983
C   C28       1.0  0.41450  0.47590  0.81410  1.0000 0.0582613983
C   C29       1.0  0.07090  0.03980  0.27020  1.0000 0.070737063
C   C30       1.0  0.42910  0.96020  0.77020  1.0000 0.070737063
C   C31       1.0  0.92910  0.53980  0.22980  1.0000 0.070737063
C   C32       1.0  0.57090  0.46020  0.72980  1.0000 0.070737063
C   C33       1.0  0.09150  0.94420  0.26700  1.0000 -0.1801563528
C   C34       1.0  0.40850  0.05580  0.76700  1.0000 -0.1801563528
C   C35       1.0  0.90850  0.44420  0.23300  1.0000 -0.1801563528
C   C36       1.0  0.59150  0.55580  0.73300  1.0000 -0.1801563528
C   C37       1.0  0.52640  0.06710  0.50760  1.0000 0.070737063
C   C38       1.0  0.97360  0.93290  0.00760  1.0000 0.070737063
C   C39       1.0  0.47360  0.56710  0.99240  1.0000 0.070737063
C   C40       1.0  0.02640  0.43290  0.49240  1.0000 0.070737063
C   C41       1.0  0.02420  0.89030  0.22200  1.0000 0.0582613983
C   C42       1.0  0.47580  0.10970  0.72200  1.0000 0.0582613983
C   C43       1.0  0.97580  0.39030  0.27800  1.0000 0.0582613983
C   C44       1.0  0.52420  0.60970  0.77800  1.0000 0.0582613983
C   C45       1.0  0.97990  0.08320  0.22650  1.0000 -0.1987035152
C   C46       1.0  0.52010  0.91680  0.72650  1.0000 -0.1987035152
C   C47       1.0  0.02010  0.58320  0.27350  1.0000 -0.1987035152
C   C48       1.0  0.47990  0.41680  0.77350  1.0000 -0.1987035152
N   N1        1.0  0.19130  0.21900  0.36790  1.0000 -0.2463604835
N   N2        1.0  0.30870  0.78100  0.86790  1.0000 -0.2463604835
N   N3        1.0  0.80870  0.71900  0.13210  1.0000 -0.2463604835
N   N4        1.0  0.69130  0.28100  0.63210  1.0000 -0.2463604835
N   N5        1.0  0.11000  0.18880  0.32160  1.0000 -0.2921437648
N   N6        1.0  0.39000  0.81120  0.82160  1.0000 -0.2921437648
N   N7        1.0  0.89000  0.68880  0.17840  1.0000 -0.2921437648
N   N8        1.0  0.61000  0.31120  0.67840  1.0000 -0.2921437648
N   N9        1.0  0.23130  0.06550  0.35770  1.0000 -0.463194224
N   N10       1.0  0.26870  0.93450  0.85770  1.0000 -0.463194224
N   N11       1.0  0.76870  0.56550  0.14230  1.0000 -0.463194224
N   N12       1.0  0.73130  0.43450  0.64230  1.0000 -0.463194224
N   N13       1.0  0.53210  0.13830  0.54400  1.0000 -0.2300207344
N   N14       1.0  0.96790  0.86170  0.04400  1.0000 -0.2300207344
N   N15       1.0  0.46790  0.63830  0.95600  1.0000 -0.2300207344
N   N16       1.0  0.03210  0.36170  0.45600  1.0000 -0.2300207344
N   N17       1.0  0.93460  0.93180  0.18220  1.0000 -0.2128846076
N   N18       1.0  0.56540  0.06820  0.68220  1.0000 -0.2128846076
N   N19       1.0  0.06540  0.43180  0.31780  1.0000 -0.2128846076
N   N20       1.0  0.43460  0.56820  0.81780  1.0000 -0.2128846076
