# DDEC6 charges by PACMAN v1.1 (https://github.com/mtap-research/PACMAN-charge/)
data_2023[Cd][nuc]3[ASR]1
_chemical_formula_sum              "Cd4 H144 C192 N48"
_cell_length_a       15.7893
_cell_length_b       15.7893
_cell_length_c       21.3344
_cell_angle_alpha    90
_cell_angle_beta     90
_cell_angle_gamma    90

_symmetry_space_group_name_H-M    "P 1"
_symmetry_Int_Tables_number       1

loop_
  _symmetry_equiv_pos_as_xyz
  'x, y, z'

loop_
  _atom_site_type_symbol
  _atom_site_label
  _atom_site_symmetry_multiplicity
  _atom_site_fract_x
  _atom_site_fract_y
  _atom_site_fract_z
  _atom_site_occupancy
  _atom_site_charge
Cd  Cd1       1.0  0.43957  0.43957  0.50000  1.0000 0.6441051463
Cd  Cd2       1.0  0.56043  0.56043  0.00000  1.0000 0.6441051463
Cd  Cd3       1.0  0.06043  0.93957  0.75000  1.0000 0.6441051463
Cd  Cd4       1.0  0.93957  0.06043  0.25000  1.0000 0.6441051463
H   H1        1.0  0.95520  0.10940  0.40290  1.0000 0.0983240149
H   H2        1.0  0.04480  0.89060  0.90290  1.0000 0.0983240149
H   H3        1.0  0.39060  0.45520  0.65290  1.0000 0.0983240149
H   H4        1.0  0.60940  0.54480  0.15290  1.0000 0.0983240149
H   H5        1.0  0.54480  0.60940  0.84710  1.0000 0.0983240149
H   H6        1.0  0.45520  0.39060  0.34710  1.0000 0.0983240149
H   H7        1.0  0.10940  0.95520  0.59710  1.0000 0.0983240149
H   H8        1.0  0.89060  0.04480  0.09710  1.0000 0.0983240149
H   H9        1.0  0.90730  0.21530  0.46830  1.0000 0.1225095975
H   H10       1.0  0.09270  0.78470  0.96830  1.0000 0.1225095975
H   H11       1.0  0.28470  0.40730  0.71830  1.0000 0.1225095975
H   H12       1.0  0.71530  0.59270  0.21830  1.0000 0.1225095975
H   H13       1.0  0.59270  0.71530  0.78170  1.0000 0.1225095975
H   H14       1.0  0.40730  0.28470  0.28170  1.0000 0.1225095975
H   H15       1.0  0.21530  0.90730  0.53170  1.0000 0.1225095975
H   H16       1.0  0.78470  0.09270  0.03170  1.0000 0.1225095975
H   H17       1.0  0.70900  0.24200  0.35380  1.0000 0.1284103046
H   H18       1.0  0.29100  0.75800  0.85380  1.0000 0.1284103046
H   H19       1.0  0.25800  0.20900  0.60380  1.0000 0.1284103046
H   H20       1.0  0.74200  0.79100  0.10380  1.0000 0.1284103046
H   H21       1.0  0.79100  0.74200  0.89620  1.0000 0.1284103046
H   H22       1.0  0.20900  0.25800  0.39620  1.0000 0.1284103046
H   H23       1.0  0.24200  0.70900  0.64620  1.0000 0.1284103046
H   H24       1.0  0.75800  0.29100  0.14620  1.0000 0.1284103046
H   H25       1.0  0.76730  0.13970  0.29060  1.0000 0.0983240149
H   H26       1.0  0.23270  0.86030  0.79060  1.0000 0.0983240149
H   H27       1.0  0.36030  0.26730  0.54060  1.0000 0.0983240149
H   H28       1.0  0.63970  0.73270  0.04060  1.0000 0.0983240149
H   H29       1.0  0.73270  0.63970  0.95940  1.0000 0.0983240149
H   H30       1.0  0.26730  0.36030  0.45940  1.0000 0.0983240149
H   H31       1.0  0.13970  0.76730  0.70940  1.0000 0.0983240149
H   H32       1.0  0.86030  0.23270  0.20940  1.0000 0.0983240149
H   H33       1.0  0.84750  0.30540  0.53060  1.0000 0.0983240149
H   H34       1.0  0.15250  0.69460  0.03060  1.0000 0.0983240149
H   H35       1.0  0.19460  0.34750  0.78060  1.0000 0.0983240149
H   H36       1.0  0.80540  0.65250  0.28060  1.0000 0.0983240149
H   H37       1.0  0.65250  0.80540  0.71940  1.0000 0.0983240149
H   H38       1.0  0.34750  0.19460  0.21940  1.0000 0.0983240149
H   H39       1.0  0.30540  0.84750  0.46940  1.0000 0.0983240149
H   H40       1.0  0.69460  0.15250  0.96940  1.0000 0.0983240149
H   H41       1.0  0.80110  0.42120  0.58510  1.0000 0.1113977561
H   H42       1.0  0.19890  0.57880  0.08510  1.0000 0.1113977561
H   H43       1.0  0.07880  0.30110  0.83510  1.0000 0.1113977561
H   H44       1.0  0.92120  0.69890  0.33510  1.0000 0.1113977561
H   H45       1.0  0.69890  0.92120  0.66490  1.0000 0.1113977561
H   H46       1.0  0.30110  0.07880  0.16490  1.0000 0.1113977561
H   H47       1.0  0.42120  0.80110  0.41490  1.0000 0.1113977561
H   H48       1.0  0.57880  0.19890  0.91490  1.0000 0.1113977561
H   H49       1.0  0.70120  0.51380  0.54080  1.0000 0.1113977561
H   H50       1.0  0.29880  0.48620  0.04080  1.0000 0.1113977561
H   H51       1.0  0.98620  0.20120  0.79080  1.0000 0.1113977561
H   H52       1.0  0.01380  0.79880  0.29080  1.0000 0.1113977561
H   H53       1.0  0.79880  0.01380  0.70920  1.0000 0.1113977561
H   H54       1.0  0.20120  0.98620  0.20920  1.0000 0.1113977561
H   H55       1.0  0.51380  0.70120  0.45920  1.0000 0.1113977561
H   H56       1.0  0.48620  0.29880  0.95920  1.0000 0.1113977561
H   H57       1.0  0.69000  0.36160  0.38940  1.0000 0.1113977561
H   H58       1.0  0.31000  0.63840  0.88940  1.0000 0.1113977561
H   H59       1.0  0.13840  0.19000  0.63940  1.0000 0.1113977561
H   H60       1.0  0.86160  0.81000  0.13940  1.0000 0.1113977561
H   H61       1.0  0.81000  0.86160  0.86060  1.0000 0.1113977561
H   H62       1.0  0.19000  0.13840  0.36060  1.0000 0.1113977561
H   H63       1.0  0.36160  0.69000  0.61060  1.0000 0.1113977561
H   H64       1.0  0.63840  0.31000  0.11060  1.0000 0.1113977561
H   H65       1.0  0.44600  0.62750  0.29010  1.0000 0.1113977561
H   H66       1.0  0.55400  0.37250  0.79010  1.0000 0.1113977561
H   H67       1.0  0.87250  0.94600  0.54010  1.0000 0.1113977561
H   H68       1.0  0.12750  0.05400  0.04010  1.0000 0.1113977561
H   H69       1.0  0.05400  0.12750  0.95990  1.0000 0.1113977561
H   H70       1.0  0.94600  0.87250  0.45990  1.0000 0.1113977561
H   H71       1.0  0.62750  0.44600  0.70990  1.0000 0.1113977561
H   H72       1.0  0.37250  0.55400  0.20990  1.0000 0.1113977561
H   H73       1.0  0.42660  0.73890  0.22130  1.0000 0.1113977561
H   H74       1.0  0.57340  0.26110  0.72130  1.0000 0.1113977561
H   H75       1.0  0.76110  0.92660  0.47130  1.0000 0.1113977561
H   H76       1.0  0.23890  0.07340  0.97130  1.0000 0.1113977561
H   H77       1.0  0.07340  0.23890  0.02870  1.0000 0.1113977561
H   H78       1.0  0.92660  0.76110  0.52870  1.0000 0.1113977561
H   H79       1.0  0.73890  0.42660  0.77870  1.0000 0.1113977561
H   H80       1.0  0.26110  0.57340  0.27870  1.0000 0.1113977561
H   H81       1.0  0.52740  0.84310  0.21110  1.0000 0.1113977561
H   H82       1.0  0.47260  0.15690  0.71110  1.0000 0.1113977561
H   H83       1.0  0.65690  0.02740  0.46110  1.0000 0.1113977561
H   H84       1.0  0.34310  0.97260  0.96110  1.0000 0.1113977561
H   H85       1.0  0.97260  0.34310  0.03890  1.0000 0.1113977561
H   H86       1.0  0.02740  0.65690  0.53890  1.0000 0.1113977561
H   H87       1.0  0.84310  0.52740  0.78890  1.0000 0.1113977561
H   H88       1.0  0.15690  0.47260  0.28890  1.0000 0.1113977561
H   H89       1.0  0.66810  0.72740  0.34150  1.0000 0.1113977561
H   H90       1.0  0.33190  0.27260  0.84150  1.0000 0.1113977561
H   H91       1.0  0.77260  0.16810  0.59150  1.0000 0.1113977561
H   H92       1.0  0.22740  0.83190  0.09150  1.0000 0.1113977561
H   H93       1.0  0.83190  0.22740  0.90850  1.0000 0.1113977561
H   H94       1.0  0.16810  0.77260  0.40850  1.0000 0.1113977561
H   H95       1.0  0.72740  0.66810  0.65850  1.0000 0.1113977561
H   H96       1.0  0.27260  0.33190  0.15850  1.0000 0.1113977561
H   H97       1.0  0.73060  0.84720  0.35570  1.0000 0.1284103046
H   H98       1.0  0.26940  0.15280  0.85570  1.0000 0.1284103046
H   H99       1.0  0.65280  0.23060  0.60570  1.0000 0.1284103046
H   H100      1.0  0.34720  0.76940  0.10570  1.0000 0.1284103046
H   H101      1.0  0.76940  0.34720  0.89430  1.0000 0.1284103046
H   H102      1.0  0.23060  0.65280  0.39430  1.0000 0.1284103046
H   H103      1.0  0.84720  0.73060  0.64430  1.0000 0.1284103046
H   H104      1.0  0.15280  0.26940  0.14430  1.0000 0.1284103046
H   H105      1.0  0.83940  0.94070  0.34120  1.0000 0.0983240149
H   H106      1.0  0.16060  0.05930  0.84120  1.0000 0.0983240149
H   H107      1.0  0.55930  0.33940  0.59120  1.0000 0.0983240149
H   H108      1.0  0.44070  0.66060  0.09120  1.0000 0.0983240149
H   H109      1.0  0.66060  0.44070  0.90880  1.0000 0.0983240149
H   H110      1.0  0.33940  0.55930  0.40880  1.0000 0.0983240149
H   H111      1.0  0.94070  0.83940  0.65880  1.0000 0.0983240149
H   H112      1.0  0.05930  0.16060  0.15880  1.0000 0.0983240149
H   H113      1.0  0.76030  0.99470  0.17270  1.0000 0.0935518841
H   H114      1.0  0.23970  0.00530  0.67270  1.0000 0.0935518841
H   H115      1.0  0.50530  0.26030  0.42270  1.0000 0.0935518841
H   H116      1.0  0.49470  0.73970  0.92270  1.0000 0.0935518841
H   H117      1.0  0.73970  0.49470  0.07730  1.0000 0.0935518841
H   H118      1.0  0.26030  0.50530  0.57730  1.0000 0.0935518841
H   H119      1.0  0.99470  0.76030  0.82730  1.0000 0.0935518841
H   H120      1.0  0.00530  0.23970  0.32730  1.0000 0.0935518841
H   H121      1.0  0.64720  0.90400  0.18350  1.0000 0.1284103046
H   H122      1.0  0.35280  0.09600  0.68350  1.0000 0.1284103046
H   H123      1.0  0.59600  0.14720  0.43350  1.0000 0.1284103046
H   H124      1.0  0.40400  0.85280  0.93350  1.0000 0.1284103046
H   H125      1.0  0.85280  0.40400  0.06650  1.0000 0.1284103046
H   H126      1.0  0.14720  0.59600  0.56650  1.0000 0.1284103046
H   H127      1.0  0.90400  0.64720  0.81650  1.0000 0.1284103046
H   H128      1.0  0.09600  0.35280  0.31650  1.0000 0.1284103046
H   H129      1.0  0.76300  0.55880  0.39390  1.0000 0.2550303439
H   H130      1.0  0.23700  0.44120  0.89390  1.0000 0.2550303439
H   H131      1.0  0.94120  0.26300  0.64390  1.0000 0.2544540266
H   H132      1.0  0.05880  0.73700  0.14390  1.0000 0.2550303439
H   H133      1.0  0.73700  0.05880  0.85610  1.0000 0.2550303439
H   H134      1.0  0.26300  0.94120  0.35610  1.0000 0.2544540266
H   H135      1.0  0.55880  0.76300  0.60610  1.0000 0.2550303439
H   H136      1.0  0.44120  0.23700  0.10610  1.0000 0.2550303439
H   H137      1.0  0.73480  0.55790  0.32910  1.0000 0.2426631624
H   H138      1.0  0.26520  0.44210  0.82910  1.0000 0.2426631624
H   H139      1.0  0.94210  0.23480  0.57910  1.0000 0.2426631624
H   H140      1.0  0.05790  0.76520  0.07910  1.0000 0.2426631624
H   H141      1.0  0.76520  0.05790  0.92090  1.0000 0.2426631624
H   H142      1.0  0.23480  0.94210  0.42090  1.0000 0.2426631624
H   H143      1.0  0.55790  0.73480  0.67090  1.0000 0.2426631624
H   H144      1.0  0.44210  0.26520  0.17090  1.0000 0.2426631624
C   C1        1.0  0.90710  0.13960  0.39130  1.0000 0.0773511563
C   C2        1.0  0.09290  0.86040  0.89130  1.0000 0.0773511563
C   C3        1.0  0.36040  0.40710  0.64130  1.0000 0.0773511563
C   C4        1.0  0.63960  0.59290  0.14130  1.0000 0.0773511563
C   C5        1.0  0.59290  0.63960  0.85870  1.0000 0.0773511563
C   C6        1.0  0.40710  0.36040  0.35870  1.0000 0.0773511563
C   C7        1.0  0.13960  0.90710  0.60870  1.0000 0.0773511563
C   C8        1.0  0.86040  0.09290  0.10870  1.0000 0.0773511563
C   C9        1.0  0.87780  0.20300  0.43170  1.0000 -0.2299063609
C   C10       1.0  0.12220  0.79700  0.93170  1.0000 -0.2299063609
C   C11       1.0  0.29700  0.37780  0.68170  1.0000 -0.2299063609
C   C12       1.0  0.70300  0.62220  0.18170  1.0000 -0.2299063609
C   C13       1.0  0.62220  0.70300  0.81830  1.0000 -0.2299063609
C   C14       1.0  0.37780  0.29700  0.31830  1.0000 -0.2299063609
C   C15       1.0  0.20300  0.87780  0.56830  1.0000 -0.2299063609
C   C16       1.0  0.79700  0.12220  0.06830  1.0000 -0.2299063609
C   C17       1.0  0.80510  0.24720  0.41710  1.0000 0.1113977561
C   C18       1.0  0.19490  0.75280  0.91710  1.0000 0.1113977561
C   C19       1.0  0.25280  0.30510  0.66710  1.0000 0.1113977561
C   C20       1.0  0.74720  0.69490  0.16710  1.0000 0.1113977561
C   C21       1.0  0.69490  0.74720  0.83290  1.0000 0.1113977561
C   C22       1.0  0.30510  0.25280  0.33290  1.0000 0.1113977561
C   C23       1.0  0.24720  0.80510  0.58290  1.0000 0.1113977561
C   C24       1.0  0.75280  0.19490  0.08290  1.0000 0.1113977561
C   C25       1.0  0.76150  0.21900  0.36380  1.0000 -0.2138074817
C   C26       1.0  0.23850  0.78100  0.86380  1.0000 -0.2138074817
C   C27       1.0  0.28100  0.26150  0.61380  1.0000 -0.2138074817
C   C28       1.0  0.71900  0.73850  0.11380  1.0000 -0.2138074817
C   C29       1.0  0.73850  0.71900  0.88620  1.0000 -0.2138074817
C   C30       1.0  0.26150  0.28100  0.38620  1.0000 -0.2138074817
C   C31       1.0  0.21900  0.76150  0.63620  1.0000 -0.2138074817
C   C32       1.0  0.78100  0.23850  0.13620  1.0000 -0.2138074817
C   C33       1.0  0.79670  0.15680  0.32610  1.0000 0.0306905635
C   C34       1.0  0.20330  0.84320  0.82610  1.0000 0.0306905635
C   C35       1.0  0.34320  0.29670  0.57610  1.0000 0.0306905635
C   C36       1.0  0.65680  0.70330  0.07610  1.0000 0.0306905635
C   C37       1.0  0.70330  0.65680  0.92390  1.0000 0.0306905635
C   C38       1.0  0.29670  0.34320  0.42390  1.0000 0.0306905635
C   C39       1.0  0.15680  0.79670  0.67390  1.0000 0.0306905635
C   C40       1.0  0.84320  0.20330  0.17390  1.0000 0.0306905635
C   C41       1.0  0.77360  0.32000  0.45450  1.0000 0.066315903
C   C42       1.0  0.22640  0.68000  0.95450  1.0000 0.066315903
C   C43       1.0  0.18000  0.27360  0.70450  1.0000 0.066315903
C   C44       1.0  0.82000  0.72640  0.20450  1.0000 0.066315903
C   C45       1.0  0.72640  0.82000  0.79550  1.0000 0.066315903
C   C46       1.0  0.27360  0.18000  0.29550  1.0000 0.066315903
C   C47       1.0  0.32000  0.77360  0.54550  1.0000 0.066315903
C   C48       1.0  0.68000  0.22640  0.04550  1.0000 0.066315903
C   C49       1.0  0.80630  0.34010  0.51300  1.0000 -0.1727442623
C   C50       1.0  0.19370  0.65990  0.01300  1.0000 -0.1727442623
C   C51       1.0  0.15990  0.30630  0.76300  1.0000 -0.1727442623
C   C52       1.0  0.84010  0.69370  0.26300  1.0000 -0.1727442623
C   C53       1.0  0.69370  0.84010  0.73700  1.0000 -0.1727442623
C   C54       1.0  0.30630  0.15990  0.23700  1.0000 -0.1727442623
C   C55       1.0  0.34010  0.80630  0.48700  1.0000 -0.1727442623
C   C56       1.0  0.65990  0.19370  0.98700  1.0000 -0.1727442623
C   C57       1.0  0.77920  0.41010  0.54550  1.0000 -0.1047267219
C   C58       1.0  0.22080  0.58990  0.04550  1.0000 -0.1047267219
C   C59       1.0  0.08990  0.27920  0.79550  1.0000 -0.1047267219
C   C60       1.0  0.91010  0.72080  0.29550  1.0000 -0.1047267219
C   C61       1.0  0.72080  0.91010  0.70450  1.0000 -0.1047267219
C   C62       1.0  0.27920  0.08990  0.20450  1.0000 -0.1047267219
C   C63       1.0  0.41010  0.77920  0.45450  1.0000 -0.1047267219
C   C64       1.0  0.58990  0.22080  0.95450  1.0000 -0.1047267219
C   C65       1.0  0.71860  0.46560  0.51940  1.0000 -0.1727442623
C   C66       1.0  0.28140  0.53440  0.01940  1.0000 -0.1727442623
C   C67       1.0  0.03440  0.21860  0.76940  1.0000 -0.1727442623
C   C68       1.0  0.96560  0.78140  0.26940  1.0000 -0.1727442623
C   C69       1.0  0.78140  0.96560  0.73060  1.0000 -0.1727442623
C   C70       1.0  0.21860  0.03440  0.23060  1.0000 -0.1727442623
C   C71       1.0  0.46560  0.71860  0.48060  1.0000 -0.1727442623
C   C72       1.0  0.53440  0.28140  0.98060  1.0000 -0.1727442623
C   C73       1.0  0.68550  0.44600  0.46050  1.0000 0.0147091156
C   C74       1.0  0.31450  0.55400  0.96050  1.0000 0.0147091156
C   C75       1.0  0.05400  0.18550  0.71050  1.0000 0.0147091156
C   C76       1.0  0.94600  0.81450  0.21050  1.0000 0.0147091156
C   C77       1.0  0.81450  0.94600  0.78950  1.0000 0.0147091156
C   C78       1.0  0.18550  0.05400  0.28950  1.0000 0.0147091156
C   C79       1.0  0.44600  0.68550  0.53950  1.0000 0.0147091156
C   C80       1.0  0.55400  0.31450  0.03950  1.0000 0.0147091156
C   C81       1.0  0.71270  0.37400  0.42850  1.0000 -0.2017951844
C   C82       1.0  0.28730  0.62600  0.92850  1.0000 -0.2017951844
C   C83       1.0  0.12600  0.21270  0.67850  1.0000 -0.2017951844
C   C84       1.0  0.87400  0.78730  0.17850  1.0000 -0.2017951844
C   C85       1.0  0.78730  0.87400  0.82150  1.0000 -0.2017951844
C   C86       1.0  0.21270  0.12600  0.32150  1.0000 -0.2017951844
C   C87       1.0  0.37400  0.71270  0.57150  1.0000 -0.2017951844
C   C88       1.0  0.62600  0.28730  0.07150  1.0000 -0.2017951844
C   C89       1.0  0.62240  0.49860  0.42900  1.0000 0.1721431526
C   C90       1.0  0.37760  0.50140  0.92900  1.0000 0.1721431526
C   C91       1.0  0.00140  0.12240  0.67900  1.0000 0.1721431526
C   C92       1.0  0.99860  0.87760  0.17900  1.0000 0.1721431526
C   C93       1.0  0.87760  0.99860  0.82100  1.0000 0.1721431526
C   C94       1.0  0.12240  0.00140  0.32100  1.0000 0.1721431526
C   C95       1.0  0.49860  0.62240  0.57100  1.0000 0.1721431526
C   C96       1.0  0.50140  0.37760  0.07100  1.0000 0.1721431526
C   C97       1.0  0.57040  0.59460  0.36570  1.0000 0.1721431526
C   C98       1.0  0.42960  0.40540  0.86570  1.0000 0.1721431526
C   C99       1.0  0.90540  0.07040  0.61570  1.0000 0.1721431526
C   C100      1.0  0.09460  0.92960  0.11570  1.0000 0.1721431526
C   C101      1.0  0.92960  0.09460  0.88430  1.0000 0.1721431526
C   C102      1.0  0.07040  0.90540  0.38430  1.0000 0.1721431526
C   C103      1.0  0.59460  0.57040  0.63430  1.0000 0.1721431526
C   C104      1.0  0.40540  0.42960  0.13430  1.0000 0.1721431526
C   C105      1.0  0.56080  0.66540  0.32160  1.0000 0.0306905635
C   C106      1.0  0.43920  0.33460  0.82160  1.0000 0.0306905635
C   C107      1.0  0.83460  0.06080  0.57160  1.0000 0.0306905635
C   C108      1.0  0.16540  0.93920  0.07160  1.0000 0.0306905635
C   C109      1.0  0.93920  0.16540  0.92840  1.0000 0.0306905635
C   C110      1.0  0.06080  0.83460  0.42840  1.0000 0.0306905635
C   C111      1.0  0.66540  0.56080  0.67840  1.0000 0.0306905635
C   C112      1.0  0.33460  0.43920  0.17840  1.0000 0.0306905635
C   C113      1.0  0.48720  0.66930  0.28630  1.0000 -0.1625152019
C   C114      1.0  0.51280  0.33070  0.78630  1.0000 -0.1625152019
C   C115      1.0  0.83070  0.98720  0.53630  1.0000 -0.1625152019
C   C116      1.0  0.16930  0.01280  0.03630  1.0000 -0.1625152019
C   C117      1.0  0.01280  0.16930  0.96370  1.0000 -0.1625152019
C   C118      1.0  0.98720  0.83070  0.46370  1.0000 -0.1625152019
C   C119      1.0  0.66930  0.48720  0.71370  1.0000 -0.1625152019
C   C120      1.0  0.33070  0.51280  0.21370  1.0000 -0.1625152019
C   C121      1.0  0.47570  0.73630  0.24530  1.0000 -0.1144768906
C   C122      1.0  0.52430  0.26370  0.74530  1.0000 -0.1144768906
C   C123      1.0  0.76370  0.97570  0.49530  1.0000 -0.1144768906
C   C124      1.0  0.23630  0.02430  0.99530  1.0000 -0.1144768906
C   C125      1.0  0.02430  0.23630  0.00470  1.0000 -0.1144768906
C   C126      1.0  0.97570  0.76370  0.50470  1.0000 -0.1144768906
C   C127      1.0  0.73630  0.47570  0.75470  1.0000 -0.1144768906
C   C128      1.0  0.26370  0.52430  0.25470  1.0000 -0.1144768906
C   C129      1.0  0.53580  0.79910  0.23940  1.0000 -0.1625152019
C   C130      1.0  0.46420  0.20090  0.73940  1.0000 -0.1625152019
C   C131      1.0  0.70090  0.03580  0.48940  1.0000 -0.1625152019
C   C132      1.0  0.29910  0.96420  0.98940  1.0000 -0.1625152019
C   C133      1.0  0.96420  0.29910  0.01060  1.0000 -0.1625152019
C   C134      1.0  0.03580  0.70090  0.51060  1.0000 -0.1625152019
C   C135      1.0  0.79910  0.53580  0.76060  1.0000 -0.1625152019
C   C136      1.0  0.20090  0.46420  0.26060  1.0000 -0.1625152019
C   C137      1.0  0.61030  0.79700  0.27640  1.0000 0.066315903
C   C138      1.0  0.38970  0.20300  0.77640  1.0000 0.066315903
C   C139      1.0  0.70300  0.11030  0.52640  1.0000 0.066315903
C   C140      1.0  0.29700  0.88970  0.02640  1.0000 0.066315903
C   C141      1.0  0.88970  0.29700  0.97360  1.0000 0.066315903
C   C142      1.0  0.11030  0.70300  0.47360  1.0000 0.066315903
C   C143      1.0  0.79700  0.61030  0.72360  1.0000 0.066315903
C   C144      1.0  0.20300  0.38970  0.22360  1.0000 0.066315903
C   C145      1.0  0.61980  0.72980  0.31660  1.0000 -0.2017951844
C   C146      1.0  0.38020  0.27020  0.81660  1.0000 -0.2017951844
C   C147      1.0  0.77020  0.11980  0.56660  1.0000 -0.2017951844
C   C148      1.0  0.22980  0.88020  0.06660  1.0000 -0.2017951844
C   C149      1.0  0.88020  0.22980  0.93340  1.0000 -0.2017951844
C   C150      1.0  0.11980  0.77020  0.43340  1.0000 -0.2017951844
C   C151      1.0  0.72980  0.61980  0.68340  1.0000 -0.2017951844
C   C152      1.0  0.27020  0.38020  0.18340  1.0000 -0.2017951844
C   C153      1.0  0.67710  0.86160  0.26970  1.0000 0.1113977561
C   C154      1.0  0.32290  0.13840  0.76970  1.0000 0.1113977561
C   C155      1.0  0.63840  0.17710  0.51970  1.0000 0.1113977561
C   C156      1.0  0.36160  0.82290  0.01970  1.0000 0.1113977561
C   C157      1.0  0.82290  0.36160  0.98030  1.0000 0.1113977561
C   C158      1.0  0.17710  0.63840  0.48030  1.0000 0.1113977561
C   C159      1.0  0.86160  0.67710  0.73030  1.0000 0.1113977561
C   C160      1.0  0.13840  0.32290  0.23030  1.0000 0.1113977561
C   C161      1.0  0.73570  0.87590  0.31780  1.0000 -0.2017951844
C   C162      1.0  0.26430  0.12410  0.81780  1.0000 -0.2017951844
C   C163      1.0  0.62410  0.23570  0.56780  1.0000 -0.2017951844
C   C164      1.0  0.37590  0.76430  0.06780  1.0000 -0.2017951844
C   C165      1.0  0.76430  0.37590  0.93220  1.0000 -0.2017951844
C   C166      1.0  0.23570  0.62410  0.43220  1.0000 -0.2017951844
C   C167      1.0  0.87590  0.73570  0.68220  1.0000 -0.2017951844
C   C168      1.0  0.12410  0.26430  0.18220  1.0000 -0.2017951844
C   C169      1.0  0.80100  0.93250  0.30870  1.0000 0.066315903
C   C170      1.0  0.19900  0.06750  0.80870  1.0000 0.066315903
C   C171      1.0  0.56750  0.30100  0.55870  1.0000 0.066315903
C   C172      1.0  0.43250  0.69900  0.05870  1.0000 0.066315903
C   C173      1.0  0.69900  0.43250  0.94130  1.0000 0.066315903
C   C174      1.0  0.30100  0.56750  0.44130  1.0000 0.066315903
C   C175      1.0  0.93250  0.80100  0.69130  1.0000 0.066315903
C   C176      1.0  0.06750  0.19900  0.19130  1.0000 0.066315903
C   C177      1.0  0.75440  0.96450  0.20990  1.0000 0.0587326154
C   C178      1.0  0.24560  0.03550  0.70990  1.0000 0.0587326154
C   C179      1.0  0.53550  0.25440  0.45990  1.0000 0.0587326154
C   C180      1.0  0.46450  0.74560  0.95990  1.0000 0.0587326154
C   C181      1.0  0.74560  0.46450  0.04010  1.0000 0.0587326154
C   C182      1.0  0.25440  0.53550  0.54010  1.0000 0.0587326154
C   C183      1.0  0.96450  0.75440  0.79010  1.0000 0.0587326154
C   C184      1.0  0.03550  0.24560  0.29010  1.0000 0.0587326154
C   C185      1.0  0.68640  0.90910  0.21580  1.0000 -0.2017951844
C   C186      1.0  0.31360  0.09090  0.71580  1.0000 -0.2017951844
C   C187      1.0  0.59090  0.18640  0.46580  1.0000 -0.2017951844
C   C188      1.0  0.40910  0.81360  0.96580  1.0000 -0.2017951844
C   C189      1.0  0.81360  0.40910  0.03420  1.0000 -0.2017951844
C   C190      1.0  0.18640  0.59090  0.53420  1.0000 -0.2017951844
C   C191      1.0  0.90910  0.68640  0.78420  1.0000 -0.2017951844
C   C192      1.0  0.09090  0.31360  0.28420  1.0000 -0.2017951844
N   N1        1.0  0.87110  0.12070  0.33870  1.0000 -0.2228727689
N   N2        1.0  0.12890  0.87930  0.83870  1.0000 -0.2228727689
N   N3        1.0  0.37930  0.37110  0.58870  1.0000 -0.2228727689
N   N4        1.0  0.62070  0.62890  0.08870  1.0000 -0.2228727689
N   N5        1.0  0.62890  0.62070  0.91130  1.0000 -0.2228727689
N   N6        1.0  0.37110  0.37930  0.41130  1.0000 -0.2228727689
N   N7        1.0  0.12070  0.87110  0.66130  1.0000 -0.2228727689
N   N8        1.0  0.87930  0.12890  0.16130  1.0000 -0.2228727689
N   N9        1.0  0.53990  0.49530  0.43200  1.0000 -0.2299063609
N   N10       1.0  0.46010  0.50470  0.93200  1.0000 -0.2299063609
N   N11       1.0  0.00470  0.03990  0.68200  1.0000 -0.2299063609
N   N12       1.0  0.99530  0.96010  0.18200  1.0000 -0.2299063609
N   N13       1.0  0.96010  0.99530  0.81800  1.0000 -0.2299063609
N   N14       1.0  0.03990  0.00470  0.31800  1.0000 -0.2299063609
N   N15       1.0  0.49530  0.53990  0.56800  1.0000 -0.2299063609
N   N16       1.0  0.50470  0.46010  0.06800  1.0000 -0.2299063609
N   N17       1.0  0.50640  0.55580  0.39200  1.0000 -0.2773997573
N   N18       1.0  0.49360  0.44420  0.89200  1.0000 -0.2773997573
N   N19       1.0  0.94420  0.00640  0.64200  1.0000 -0.2773997573
N   N20       1.0  0.05580  0.99360  0.14200  1.0000 -0.2773997573
N   N21       1.0  0.99360  0.05580  0.85800  1.0000 -0.2773997573
N   N22       1.0  0.00640  0.94420  0.35800  1.0000 -0.2773997573
N   N23       1.0  0.55580  0.50640  0.60800  1.0000 -0.2773997573
N   N24       1.0  0.44420  0.49360  0.10800  1.0000 -0.2773997573
N   N25       1.0  0.64360  0.55950  0.38730  1.0000 0.0587326154
N   N26       1.0  0.35640  0.44050  0.88730  1.0000 0.0587326154
N   N27       1.0  0.94050  0.14360  0.63730  1.0000 0.0587326154
N   N28       1.0  0.05950  0.85640  0.13730  1.0000 0.0587326154
N   N29       1.0  0.85640  0.05950  0.86270  1.0000 0.0587326154
N   N30       1.0  0.14360  0.94050  0.36270  1.0000 0.0587326154
N   N31       1.0  0.55950  0.64360  0.61270  1.0000 0.0587326154
N   N32       1.0  0.44050  0.35640  0.11270  1.0000 0.0587326154
N   N33       1.0  0.72570  0.58000  0.36690  1.0000 -0.5110146304
N   N34       1.0  0.27430  0.42000  0.86690  1.0000 -0.5110146304
N   N35       1.0  0.92000  0.22570  0.61690  1.0000 -0.5110146304
N   N36       1.0  0.08000  0.77430  0.11690  1.0000 -0.5110146304
N   N37       1.0  0.77430  0.08000  0.88310  1.0000 -0.5110146304
N   N38       1.0  0.22570  0.92000  0.38310  1.0000 -0.5110146304
N   N39       1.0  0.58000  0.72570  0.63310  1.0000 -0.5110146304
N   N40       1.0  0.42000  0.27430  0.13310  1.0000 -0.5110146304
N   N41       1.0  0.81220  0.97640  0.25540  1.0000 -0.2491002654
N   N42       1.0  0.18780  0.02360  0.75540  1.0000 -0.2491002654
N   N43       1.0  0.52360  0.31220  0.50540  1.0000 -0.2491002654
N   N44       1.0  0.47640  0.68780  0.00540  1.0000 -0.2491002654
N   N45       1.0  0.68780  0.47640  0.99460  1.0000 -0.2491002654
N   N46       1.0  0.31220  0.52360  0.49460  1.0000 -0.2491002654
N   N47       1.0  0.97640  0.81220  0.74460  1.0000 -0.2491002654
N   N48       1.0  0.02360  0.18780  0.24460  1.0000 -0.2491002654
