# DDEC6 charges by PACMAN v1.1 (https://github.com/mtap-research/PACMAN-charge/)
data_2023[In][nht]3[ASR]1
_chemical_formula_sum              "In18 H120 C240 N24 O78"
_cell_length_a       23.001
_cell_length_b       23.001
_cell_length_c       23.001
_cell_angle_alpha    77.4661
_cell_angle_beta     77.4661
_cell_angle_gamma    77.4661

_symmetry_space_group_name_H-M    "P 1"
_symmetry_Int_Tables_number       1

loop_
  _symmetry_equiv_pos_as_xyz
  'x, y, z'

loop_
  _atom_site_type_symbol
  _atom_site_label
  _atom_site_symmetry_multiplicity
  _atom_site_fract_x
  _atom_site_fract_y
  _atom_site_fract_z
  _atom_site_occupancy
  _atom_site_charge
In  In1       1.0  0.34631  0.72610  0.72610  1.0000 1.4491640719
In  In2       1.0  0.72610  0.34631  0.72610  1.0000 1.4593427809
In  In3       1.0  0.72610  0.72610  0.34631  1.0000 1.4491640719
In  In4       1.0  0.36706  0.74542  0.86867  1.0000 1.4971949887
In  In5       1.0  0.86867  0.36706  0.74542  1.0000 1.4923386937
In  In6       1.0  0.74542  0.86867  0.36706  1.0000 1.4923386937
In  In7       1.0  0.36706  0.86867  0.74542  1.0000 1.4923386937
In  In8       1.0  0.86867  0.74542  0.36706  1.0000 1.4923386937
In  In9       1.0  0.74542  0.36706  0.86867  1.0000 1.4971949887
In  In10      1.0  0.65369  0.27390  0.27390  1.0000 1.4491640719
In  In11      1.0  0.27390  0.27390  0.65369  1.0000 1.4491640719
In  In12      1.0  0.27390  0.65369  0.27390  1.0000 1.4491640719
In  In13      1.0  0.63294  0.13133  0.25458  1.0000 1.4923386937
In  In14      1.0  0.13133  0.25458  0.63294  1.0000 1.4923386937
In  In15      1.0  0.25458  0.63294  0.13133  1.0000 1.4971949887
In  In16      1.0  0.63294  0.25458  0.13133  1.0000 1.4923386937
In  In17      1.0  0.13133  0.63294  0.25458  1.0000 1.4923386937
In  In18      1.0  0.25458  0.13133  0.63294  1.0000 1.4923386937
H   H1        1.0  0.23097  0.98898  0.84914  1.0000 0.1182936066
H   H2        1.0  0.84914  0.23097  0.98898  1.0000 0.1182936066
H   H3        1.0  0.98898  0.84914  0.23097  1.0000 0.1182936066
H   H4        1.0  0.23097  0.84914  0.98898  1.0000 0.1182936066
H   H5        1.0  0.84914  0.98898  0.23097  1.0000 0.1182936066
H   H6        1.0  0.98898  0.23097  0.84914  1.0000 0.1182936066
H   H7        1.0  0.53607  0.85889  0.99526  1.0000 0.1125712439
H   H8        1.0  0.99526  0.53607  0.85889  1.0000 0.1125712439
H   H9        1.0  0.85889  0.99526  0.53607  1.0000 0.1125712439
H   H10       1.0  0.53607  0.99526  0.85889  1.0000 0.1125712439
H   H11       1.0  0.99526  0.85889  0.53607  1.0000 0.1125712439
H   H12       1.0  0.85889  0.53607  0.99526  1.0000 0.1125712439
H   H13       1.0  0.64149  0.00955  0.12283  1.0000 0.1125712439
H   H14       1.0  0.12283  0.64149  0.00955  1.0000 0.1125712439
H   H15       1.0  0.00955  0.12283  0.64149  1.0000 0.1125712439
H   H16       1.0  0.64149  0.12283  0.00955  1.0000 0.1125712439
H   H17       1.0  0.12283  0.00955  0.64149  1.0000 0.1125712439
H   H18       1.0  0.00955  0.64149  0.12283  1.0000 0.1125712439
H   H19       1.0  0.67424  0.96400  0.20983  1.0000 0.1182936066
H   H20       1.0  0.20983  0.67424  0.96400  1.0000 0.1182936066
H   H21       1.0  0.96400  0.20983  0.67424  1.0000 0.1182936066
H   H22       1.0  0.67424  0.20983  0.96400  1.0000 0.1182936066
H   H23       1.0  0.20983  0.96400  0.67424  1.0000 0.1182936066
H   H24       1.0  0.96400  0.67424  0.20983  1.0000 0.1182936066
H   H25       1.0  0.59985  0.85802  0.10353  1.0000 0.1182936066
H   H26       1.0  0.10353  0.59985  0.85802  1.0000 0.1182936066
H   H27       1.0  0.85802  0.10353  0.59985  1.0000 0.1182936066
H   H28       1.0  0.59985  0.10353  0.85802  1.0000 0.1182936066
H   H29       1.0  0.10353  0.85802  0.59985  1.0000 0.1182936066
H   H30       1.0  0.85802  0.59985  0.10353  1.0000 0.1182936066
H   H31       1.0  0.49210  0.80269  0.94628  1.0000 0.1182936066
H   H32       1.0  0.94628  0.49210  0.80269  1.0000 0.1182936066
H   H33       1.0  0.80269  0.94628  0.49210  1.0000 0.1182936066
H   H34       1.0  0.49210  0.94628  0.80269  1.0000 0.1182936066
H   H35       1.0  0.94628  0.80269  0.49210  1.0000 0.1182936066
H   H36       1.0  0.80269  0.49210  0.94628  1.0000 0.1182936066
H   H37       1.0  0.48278  0.56456  0.72209  1.0000 0.1182936066
H   H38       1.0  0.72209  0.48278  0.56456  1.0000 0.1182936066
H   H39       1.0  0.56456  0.72209  0.48278  1.0000 0.1182936066
H   H40       1.0  0.48278  0.72209  0.56456  1.0000 0.1182936066
H   H41       1.0  0.72209  0.56456  0.48278  1.0000 0.1182936066
H   H42       1.0  0.56456  0.48278  0.72209  1.0000 0.1182936066
H   H43       1.0  0.51673  0.59725  0.87752  1.0000 0.1182936066
H   H44       1.0  0.87752  0.51673  0.59725  1.0000 0.1182936066
H   H45       1.0  0.59725  0.87752  0.51673  1.0000 0.1182936066
H   H46       1.0  0.51673  0.87752  0.59725  1.0000 0.1182936066
H   H47       1.0  0.87752  0.59725  0.51673  1.0000 0.1182936066
H   H48       1.0  0.59725  0.51673  0.87752  1.0000 0.1182936066
H   H49       1.0  0.63836  0.80465  0.18946  1.0000 0.1182936066
H   H50       1.0  0.18946  0.63836  0.80465  1.0000 0.1182936066
H   H51       1.0  0.80465  0.18946  0.63836  1.0000 0.1182936066
H   H52       1.0  0.63836  0.18946  0.80465  1.0000 0.1182936066
H   H53       1.0  0.18946  0.80465  0.63836  1.0000 0.1182936066
H   H54       1.0  0.80465  0.63836  0.18946  1.0000 0.1182936066
H   H55       1.0  0.15382  0.04118  0.90819  1.0000 0.1182936066
H   H56       1.0  0.90819  0.15382  0.04118  1.0000 0.1182936066
H   H57       1.0  0.04118  0.90819  0.15382  1.0000 0.1182936066
H   H58       1.0  0.15382  0.90819  0.04118  1.0000 0.1182936066
H   H59       1.0  0.90819  0.04118  0.15382  1.0000 0.1182936066
H   H60       1.0  0.04118  0.15382  0.90819  1.0000 0.1182936066
H   H61       1.0  0.76903  0.15086  0.01102  1.0000 0.1182936066
H   H62       1.0  0.15086  0.01102  0.76903  1.0000 0.1182936066
H   H63       1.0  0.01102  0.76903  0.15086  1.0000 0.1182936066
H   H64       1.0  0.76903  0.01102  0.15086  1.0000 0.1182936066
H   H65       1.0  0.15086  0.76903  0.01102  1.0000 0.1182936066
H   H66       1.0  0.01102  0.15086  0.76903  1.0000 0.1182936066
H   H67       1.0  0.46393  0.00474  0.14111  1.0000 0.1125712439
H   H68       1.0  0.00474  0.14111  0.46393  1.0000 0.1125712439
H   H69       1.0  0.14111  0.46393  0.00474  1.0000 0.1125712439
H   H70       1.0  0.46393  0.14111  0.00474  1.0000 0.1125712439
H   H71       1.0  0.00474  0.46393  0.14111  1.0000 0.1125712439
H   H72       1.0  0.14111  0.00474  0.46393  1.0000 0.1125712439
H   H73       1.0  0.35851  0.87717  0.99045  1.0000 0.1125712439
H   H74       1.0  0.87717  0.99045  0.35851  1.0000 0.1125712439
H   H75       1.0  0.99045  0.35851  0.87717  1.0000 0.1125712439
H   H76       1.0  0.35851  0.99045  0.87717  1.0000 0.1125712439
H   H77       1.0  0.87717  0.35851  0.99045  1.0000 0.1125712439
H   H78       1.0  0.99045  0.87717  0.35851  1.0000 0.1125712439
H   H79       1.0  0.32576  0.79017  0.03600  1.0000 0.1182936066
H   H80       1.0  0.79017  0.03600  0.32576  1.0000 0.1182936066
H   H81       1.0  0.03600  0.32576  0.79017  1.0000 0.1182936066
H   H82       1.0  0.32576  0.03600  0.79017  1.0000 0.1182936066
H   H83       1.0  0.79017  0.32576  0.03600  1.0000 0.1182936066
H   H84       1.0  0.03600  0.79017  0.32576  1.0000 0.1182936066
H   H85       1.0  0.40015  0.89647  0.14198  1.0000 0.1182936066
H   H86       1.0  0.89647  0.14198  0.40015  1.0000 0.1182936066
H   H87       1.0  0.14198  0.40015  0.89647  1.0000 0.1182936066
H   H88       1.0  0.40015  0.14198  0.89647  1.0000 0.1182936066
H   H89       1.0  0.89647  0.40015  0.14198  1.0000 0.1182936066
H   H90       1.0  0.14198  0.89647  0.40015  1.0000 0.1182936066
H   H91       1.0  0.50790  0.05372  0.19731  1.0000 0.1182936066
H   H92       1.0  0.05372  0.19731  0.50790  1.0000 0.1182936066
H   H93       1.0  0.19731  0.50790  0.05372  1.0000 0.1182936066
H   H94       1.0  0.50790  0.19731  0.05372  1.0000 0.1182936066
H   H95       1.0  0.05372  0.50790  0.19731  1.0000 0.1182936066
H   H96       1.0  0.19731  0.05372  0.50790  1.0000 0.1182936066
H   H97       1.0  0.51722  0.27791  0.43544  1.0000 0.1182936066
H   H98       1.0  0.27791  0.43544  0.51722  1.0000 0.1182936066
H   H99       1.0  0.43544  0.51722  0.27791  1.0000 0.1182936066
H   H100      1.0  0.51722  0.43544  0.27791  1.0000 0.1182936066
H   H101      1.0  0.27791  0.51722  0.43544  1.0000 0.1182936066
H   H102      1.0  0.43544  0.27791  0.51722  1.0000 0.1182936066
H   H103      1.0  0.48327  0.12248  0.40275  1.0000 0.1182936066
H   H104      1.0  0.12248  0.40275  0.48327  1.0000 0.1182936066
H   H105      1.0  0.40275  0.48327  0.12248  1.0000 0.1182936066
H   H106      1.0  0.48327  0.40275  0.12248  1.0000 0.1182936066
H   H107      1.0  0.12248  0.48327  0.40275  1.0000 0.1182936066
H   H108      1.0  0.40275  0.12248  0.48327  1.0000 0.1182936066
H   H109      1.0  0.36164  0.81054  0.19535  1.0000 0.1182936066
H   H110      1.0  0.81054  0.19535  0.36164  1.0000 0.1182936066
H   H111      1.0  0.19535  0.36164  0.81054  1.0000 0.1182936066
H   H112      1.0  0.36164  0.19535  0.81054  1.0000 0.1182936066
H   H113      1.0  0.81054  0.36164  0.19535  1.0000 0.1182936066
H   H114      1.0  0.19535  0.81054  0.36164  1.0000 0.1182936066
H   H115      1.0  0.84618  0.09181  0.95882  1.0000 0.1182936066
H   H116      1.0  0.09181  0.95882  0.84618  1.0000 0.1182936066
H   H117      1.0  0.95882  0.84618  0.09181  1.0000 0.1182936066
H   H118      1.0  0.84618  0.95882  0.09181  1.0000 0.1182936066
H   H119      1.0  0.09181  0.84618  0.95882  1.0000 0.1182936066
H   H120      1.0  0.95882  0.09181  0.84618  1.0000 0.1182936066
C   C1        1.0  0.24220  0.91230  0.91230  1.0000 -0.0651481641
C   C2        1.0  0.91230  0.24220  0.91230  1.0000 -0.0651481641
C   C3        1.0  0.91230  0.91230  0.24220  1.0000 -0.0651481641
C   C4        1.0  0.44090  0.64010  0.79980  1.0000 0.5999290826
C   C5        1.0  0.79980  0.44090  0.64010  1.0000 0.5999290826
C   C6        1.0  0.64010  0.79980  0.44090  1.0000 0.5999290826
C   C7        1.0  0.44090  0.79980  0.64010  1.0000 0.5999290826
C   C8        1.0  0.79980  0.64010  0.44090  1.0000 0.5999290826
C   C9        1.0  0.64010  0.44090  0.79980  1.0000 0.5999290826
C   C10       1.0  0.45490  0.83910  0.83910  1.0000 0.6069712472
C   C11       1.0  0.83910  0.45490  0.83910  1.0000 0.6069712472
C   C12       1.0  0.83910  0.83910  0.45490  1.0000 0.6069712472
C   C13       1.0  0.49100  0.58860  0.80240  1.0000 -0.0642896561
C   C14       1.0  0.80240  0.49100  0.58860  1.0000 -0.0642896561
C   C15       1.0  0.58860  0.80240  0.49100  1.0000 -0.0642896561
C   C16       1.0  0.49100  0.80240  0.58860  1.0000 -0.0642896561
C   C17       1.0  0.80240  0.58860  0.49100  1.0000 -0.0642896561
C   C18       1.0  0.58860  0.49100  0.80240  1.0000 -0.0642896561
C   C19       1.0  0.68280  0.84830  0.26620  1.0000 0.5999290826
C   C20       1.0  0.26620  0.68280  0.84830  1.0000 0.5999290826
C   C21       1.0  0.84830  0.26620  0.68280  1.0000 0.5999290826
C   C22       1.0  0.68280  0.26620  0.84830  1.0000 0.5999290826
C   C23       1.0  0.26620  0.84830  0.68280  1.0000 0.5999290826
C   C24       1.0  0.84830  0.68280  0.26620  1.0000 0.5999290826
C   C25       1.0  0.08750  0.01080  0.01080  1.0000 0.3510678211
C   C26       1.0  0.01080  0.08750  0.01080  1.0000 0.3510678211
C   C27       1.0  0.01080  0.01080  0.08750  1.0000 0.3510678211
C   C28       1.0  0.28840  0.87540  0.87540  1.0000 0.5864078434
C   C29       1.0  0.87540  0.28840  0.87540  1.0000 0.5864078434
C   C30       1.0  0.87540  0.87540  0.28840  1.0000 0.5864078434
C   C31       1.0  0.62370  0.93470  0.10150  1.0000 0.0278498035
C   C32       1.0  0.10150  0.62370  0.93470  1.0000 0.0278498035
C   C33       1.0  0.93470  0.10150  0.62370  1.0000 0.0278498035
C   C34       1.0  0.62370  0.10150  0.93470  1.0000 0.0278498035
C   C35       1.0  0.10150  0.93470  0.62370  1.0000 0.0278498035
C   C36       1.0  0.93470  0.62370  0.10150  1.0000 0.0278498035
C   C37       1.0  0.60560  0.96570  0.04270  1.0000 0.3510678211
C   C38       1.0  0.04270  0.60560  0.96570  1.0000 0.3510678211
C   C39       1.0  0.96570  0.04270  0.60560  1.0000 0.3510678211
C   C40       1.0  0.60560  0.04270  0.96570  1.0000 0.3510678211
C   C41       1.0  0.04270  0.96570  0.60560  1.0000 0.3510678211
C   C42       1.0  0.96570  0.60560  0.04270  1.0000 0.3510678211
C   C43       1.0  0.48800  0.87070  0.87070  1.0000 -0.0191447582
C   C44       1.0  0.87070  0.48800  0.87070  1.0000 -0.0191447582
C   C45       1.0  0.87070  0.87070  0.48800  1.0000 -0.0191447582
C   C46       1.0  0.54010  0.92880  0.92880  1.0000 0.0247041168
C   C47       1.0  0.92880  0.54010  0.92880  1.0000 0.0247041168
C   C48       1.0  0.92880  0.92880  0.54010  1.0000 0.0247041168
C   C49       1.0  0.56780  0.96040  0.96040  1.0000 0.3578085435
C   C50       1.0  0.96040  0.56780  0.96040  1.0000 0.3578085435
C   C51       1.0  0.96040  0.96040  0.56780  1.0000 0.3578085435
C   C52       1.0  0.21610  0.97050  0.88920  1.0000 -0.1091235441
C   C53       1.0  0.88920  0.21610  0.97050  1.0000 -0.1091235441
C   C54       1.0  0.97050  0.88920  0.21610  1.0000 -0.1091235441
C   C55       1.0  0.21610  0.88920  0.97050  1.0000 -0.1091235441
C   C56       1.0  0.88920  0.97050  0.21610  1.0000 -0.1091235441
C   C57       1.0  0.97050  0.21610  0.88920  1.0000 -0.1091235441
C   C58       1.0  0.14600  0.97660  0.97660  1.0000 0.0385678368
C   C59       1.0  0.97660  0.14600  0.97660  1.0000 0.0385678368
C   C60       1.0  0.97660  0.97660  0.14600  1.0000 0.0385678368
C   C61       1.0  0.52730  0.87520  0.95590  1.0000 -0.1091235441
C   C62       1.0  0.95590  0.52730  0.87520  1.0000 -0.1091235441
C   C63       1.0  0.87520  0.95590  0.52730  1.0000 -0.1091235441
C   C64       1.0  0.52730  0.95590  0.87520  1.0000 -0.1091235441
C   C65       1.0  0.95590  0.87520  0.52730  1.0000 -0.1091235441
C   C66       1.0  0.87520  0.52730  0.95590  1.0000 -0.1091235441
C   C67       1.0  0.65970  0.87860  0.20950  1.0000 -0.0360066611
C   C68       1.0  0.20950  0.65970  0.87860  1.0000 -0.0360066611
C   C69       1.0  0.87860  0.20950  0.65970  1.0000 -0.0360066611
C   C70       1.0  0.65970  0.20950  0.87860  1.0000 -0.0360066611
C   C71       1.0  0.20950  0.87860  0.65970  1.0000 -0.0360066611
C   C72       1.0  0.87860  0.65970  0.20950  1.0000 -0.0360066611
C   C73       1.0  0.64220  0.96740  0.13640  1.0000 -0.117520537
C   C74       1.0  0.13640  0.64220  0.96740  1.0000 -0.1256472418
C   C75       1.0  0.96740  0.13640  0.64220  1.0000 -0.1256472418
C   C76       1.0  0.64220  0.13640  0.96740  1.0000 -0.1256472418
C   C77       1.0  0.13640  0.96740  0.64220  1.0000 -0.1256472418
C   C78       1.0  0.96740  0.64220  0.13640  1.0000 -0.1256472418
C   C79       1.0  0.66050  0.94120  0.18750  1.0000 -0.0904192759
C   C80       1.0  0.18750  0.66050  0.94120  1.0000 -0.0904192759
C   C81       1.0  0.94120  0.18750  0.66050  1.0000 -0.0904192759
C   C82       1.0  0.66050  0.18750  0.94120  1.0000 -0.0904192759
C   C83       1.0  0.18750  0.94120  0.66050  1.0000 -0.0904192759
C   C84       1.0  0.94120  0.66050  0.18750  1.0000 -0.0904192759
C   C85       1.0  0.61860  0.87840  0.12420  1.0000 -0.117520537
C   C86       1.0  0.12420  0.61860  0.87840  1.0000 -0.117520537
C   C87       1.0  0.87840  0.12420  0.61860  1.0000 -0.117520537
C   C88       1.0  0.61860  0.12420  0.87840  1.0000 -0.117520537
C   C89       1.0  0.12420  0.87840  0.61860  1.0000 -0.117520537
C   C90       1.0  0.87840  0.61860  0.12420  1.0000 -0.117520537
C   C91       1.0  0.50070  0.84180  0.92800  1.0000 -0.117520537
C   C92       1.0  0.92800  0.50070  0.84180  1.0000 -0.117520537
C   C93       1.0  0.84180  0.92800  0.50070  1.0000 -0.117520537
C   C94       1.0  0.50070  0.92800  0.84180  1.0000 -0.117520537
C   C95       1.0  0.92800  0.84180  0.50070  1.0000 -0.117520537
C   C96       1.0  0.84180  0.50070  0.92800  1.0000 -0.117520537
C   C97       1.0  0.50580  0.55420  0.75360  1.0000 -0.1091235441
C   C98       1.0  0.75360  0.50580  0.55420  1.0000 -0.1091235441
C   C99       1.0  0.55420  0.75360  0.50580  1.0000 -0.1091235441
C   C100      1.0  0.50580  0.75360  0.55420  1.0000 -0.1091235441
C   C101      1.0  0.75360  0.55420  0.50580  1.0000 -0.1091235441
C   C102      1.0  0.55420  0.50580  0.75360  1.0000 -0.1091235441
C   C103      1.0  0.52580  0.57390  0.84620  1.0000 -0.0904192759
C   C104      1.0  0.84620  0.52580  0.57390  1.0000 -0.0904192759
C   C105      1.0  0.57390  0.84620  0.52580  1.0000 -0.0904192759
C   C106      1.0  0.52580  0.84620  0.57390  1.0000 -0.0904192759
C   C107      1.0  0.84620  0.57390  0.52580  1.0000 -0.0904192759
C   C108      1.0  0.57390  0.52580  0.84620  1.0000 -0.0904192759
C   C109      1.0  0.63890  0.84670  0.17670  1.0000 -0.097912897
C   C110      1.0  0.17670  0.63890  0.84670  1.0000 -0.097912897
C   C111      1.0  0.84670  0.17670  0.63890  1.0000 -0.097912897
C   C112      1.0  0.63890  0.17670  0.84670  1.0000 -0.097912897
C   C113      1.0  0.17670  0.84670  0.63890  1.0000 -0.097912897
C   C114      1.0  0.84670  0.63890  0.17670  1.0000 -0.097912897
C   C115      1.0  0.16970  0.00040  0.92370  1.0000 -0.117520537
C   C116      1.0  0.92370  0.16970  0.00040  1.0000 -0.117520537
C   C117      1.0  0.00040  0.92370  0.16970  1.0000 -0.117520537
C   C118      1.0  0.16970  0.92370  0.00040  1.0000 -0.117520537
C   C119      1.0  0.92370  0.00040  0.16970  1.0000 -0.117520537
C   C120      1.0  0.00040  0.16970  0.92370  1.0000 -0.117520537
C   C121      1.0  0.75780  0.08770  0.08770  1.0000 -0.0651481641
C   C122      1.0  0.08770  0.08770  0.75780  1.0000 -0.0651481641
C   C123      1.0  0.08770  0.75780  0.08770  1.0000 -0.0642896561
C   C124      1.0  0.55910  0.20020  0.35990  1.0000 0.5999290826
C   C125      1.0  0.20020  0.35990  0.55910  1.0000 0.5999290826
C   C126      1.0  0.35990  0.55910  0.20020  1.0000 0.5999290826
C   C127      1.0  0.55910  0.35990  0.20020  1.0000 0.5999290826
C   C128      1.0  0.20020  0.55910  0.35990  1.0000 0.5999290826
C   C129      1.0  0.35990  0.20020  0.55910  1.0000 0.5999290826
C   C130      1.0  0.54510  0.16090  0.16090  1.0000 0.6069712472
C   C131      1.0  0.16090  0.16090  0.54510  1.0000 0.6069712472
C   C132      1.0  0.16090  0.54510  0.16090  1.0000 0.6069712472
C   C133      1.0  0.50900  0.19760  0.41140  1.0000 -0.0642896561
C   C134      1.0  0.19760  0.41140  0.50900  1.0000 -0.0642896561
C   C135      1.0  0.41140  0.50900  0.19760  1.0000 -0.0642896561
C   C136      1.0  0.50900  0.41140  0.19760  1.0000 -0.0642896561
C   C137      1.0  0.19760  0.50900  0.41140  1.0000 -0.0651481641
C   C138      1.0  0.41140  0.19760  0.50900  1.0000 -0.0642896561
C   C139      1.0  0.31720  0.73380  0.15170  1.0000 0.5999290826
C   C140      1.0  0.73380  0.15170  0.31720  1.0000 0.5999290826
C   C141      1.0  0.15170  0.31720  0.73380  1.0000 0.5999290826
C   C142      1.0  0.31720  0.15170  0.73380  1.0000 0.5999290826
C   C143      1.0  0.73380  0.31720  0.15170  1.0000 0.5999290826
C   C144      1.0  0.15170  0.73380  0.31720  1.0000 0.5999290826
C   C145      1.0  0.91250  0.98920  0.98920  1.0000 0.3510678211
C   C146      1.0  0.98920  0.98920  0.91250  1.0000 0.3510678211
C   C147      1.0  0.98920  0.91250  0.98920  1.0000 0.3510678211
C   C148      1.0  0.71160  0.12460  0.12460  1.0000 0.5864078434
C   C149      1.0  0.12460  0.12460  0.71160  1.0000 0.5864078434
C   C150      1.0  0.12460  0.71160  0.12460  1.0000 0.5864078434
C   C151      1.0  0.37630  0.89850  0.06530  1.0000 0.0278498035
C   C152      1.0  0.89850  0.06530  0.37630  1.0000 0.0278498035
C   C153      1.0  0.06530  0.37630  0.89850  1.0000 0.0278498035
C   C154      1.0  0.37630  0.06530  0.89850  1.0000 0.0278498035
C   C155      1.0  0.89850  0.37630  0.06530  1.0000 0.0278498035
C   C156      1.0  0.06530  0.89850  0.37630  1.0000 0.0278498035
C   C157      1.0  0.39440  0.95730  0.03430  1.0000 0.3510678211
C   C158      1.0  0.95730  0.03430  0.39440  1.0000 0.3510678211
C   C159      1.0  0.03430  0.39440  0.95730  1.0000 0.3510678211
C   C160      1.0  0.39440  0.03430  0.95730  1.0000 0.3510678211
C   C161      1.0  0.95730  0.39440  0.03430  1.0000 0.3510678211
C   C162      1.0  0.03430  0.95730  0.39440  1.0000 0.3510678211
C   C163      1.0  0.51200  0.12930  0.12930  1.0000 -0.0191447582
C   C164      1.0  0.12930  0.12930  0.51200  1.0000 -0.0191447582
C   C165      1.0  0.12930  0.51200  0.12930  1.0000 -0.0191447582
C   C166      1.0  0.45990  0.07120  0.07120  1.0000 0.0247041168
C   C167      1.0  0.07120  0.07120  0.45990  1.0000 0.0247041168
C   C168      1.0  0.07120  0.45990  0.07120  1.0000 0.0247041168
C   C169      1.0  0.43220  0.03960  0.03960  1.0000 0.3578085435
C   C170      1.0  0.03960  0.03960  0.43220  1.0000 0.3578085435
C   C171      1.0  0.03960  0.43220  0.03960  1.0000 0.3578085435
C   C172      1.0  0.78390  0.11080  0.02950  1.0000 -0.1091235441
C   C173      1.0  0.11080  0.02950  0.78390  1.0000 -0.1091235441
C   C174      1.0  0.02950  0.78390  0.11080  1.0000 -0.1091235441
C   C175      1.0  0.78390  0.02950  0.11080  1.0000 -0.1091235441
C   C176      1.0  0.11080  0.78390  0.02950  1.0000 -0.1091235441
C   C177      1.0  0.02950  0.11080  0.78390  1.0000 -0.1091235441
C   C178      1.0  0.85400  0.02340  0.02340  1.0000 0.0385678368
C   C179      1.0  0.02340  0.02340  0.85400  1.0000 0.0385678368
C   C180      1.0  0.02340  0.85400  0.02340  1.0000 0.0385678368
C   C181      1.0  0.47270  0.04410  0.12480  1.0000 -0.1091235441
C   C182      1.0  0.04410  0.12480  0.47270  1.0000 -0.1091235441
C   C183      1.0  0.12480  0.47270  0.04410  1.0000 -0.1091235441
C   C184      1.0  0.47270  0.12480  0.04410  1.0000 -0.1091235441
C   C185      1.0  0.04410  0.47270  0.12480  1.0000 -0.1091235441
C   C186      1.0  0.12480  0.04410  0.47270  1.0000 -0.1091235441
C   C187      1.0  0.34030  0.79050  0.12140  1.0000 -0.0360066611
C   C188      1.0  0.79050  0.12140  0.34030  1.0000 -0.0360066611
C   C189      1.0  0.12140  0.34030  0.79050  1.0000 -0.0360066611
C   C190      1.0  0.34030  0.12140  0.79050  1.0000 -0.0360066611
C   C191      1.0  0.79050  0.34030  0.12140  1.0000 -0.0360066611
C   C192      1.0  0.12140  0.79050  0.34030  1.0000 -0.0360066611
C   C193      1.0  0.35780  0.86360  0.03260  1.0000 -0.117520537
C   C194      1.0  0.86360  0.03260  0.35780  1.0000 -0.1256472418
C   C195      1.0  0.03260  0.35780  0.86360  1.0000 -0.1256472418
C   C196      1.0  0.35780  0.03260  0.86360  1.0000 -0.1256472418
C   C197      1.0  0.86360  0.35780  0.03260  1.0000 -0.117520537
C   C198      1.0  0.03260  0.86360  0.35780  1.0000 -0.117520537
C   C199      1.0  0.33950  0.81250  0.05880  1.0000 -0.0904192759
C   C200      1.0  0.81250  0.05880  0.33950  1.0000 -0.0904192759
C   C201      1.0  0.05880  0.33950  0.81250  1.0000 -0.0904192759
C   C202      1.0  0.33950  0.05880  0.81250  1.0000 -0.0904192759
C   C203      1.0  0.81250  0.33950  0.05880  1.0000 -0.0904192759
C   C204      1.0  0.05880  0.81250  0.33950  1.0000 -0.0904192759
C   C205      1.0  0.38140  0.87580  0.12160  1.0000 -0.117520537
C   C206      1.0  0.87580  0.12160  0.38140  1.0000 -0.117520537
C   C207      1.0  0.12160  0.38140  0.87580  1.0000 -0.117520537
C   C208      1.0  0.38140  0.12160  0.87580  1.0000 -0.117520537
C   C209      1.0  0.87580  0.38140  0.12160  1.0000 -0.117520537
C   C210      1.0  0.12160  0.87580  0.38140  1.0000 -0.117520537
C   C211      1.0  0.49930  0.07200  0.15820  1.0000 -0.117520537
C   C212      1.0  0.07200  0.15820  0.49930  1.0000 -0.117520537
C   C213      1.0  0.15820  0.49930  0.07200  1.0000 -0.117520537
C   C214      1.0  0.49930  0.15820  0.07200  1.0000 -0.117520537
C   C215      1.0  0.07200  0.49930  0.15820  1.0000 -0.117520537
C   C216      1.0  0.15820  0.07200  0.49930  1.0000 -0.117520537
C   C217      1.0  0.49420  0.24640  0.44580  1.0000 -0.1091235441
C   C218      1.0  0.24640  0.44580  0.49420  1.0000 -0.1091235441
C   C219      1.0  0.44580  0.49420  0.24640  1.0000 -0.1091235441
C   C220      1.0  0.49420  0.44580  0.24640  1.0000 -0.1091235441
C   C221      1.0  0.24640  0.49420  0.44580  1.0000 -0.1091235441
C   C222      1.0  0.44580  0.24640  0.49420  1.0000 -0.1091235441
C   C223      1.0  0.47420  0.15380  0.42610  1.0000 -0.0904192759
C   C224      1.0  0.15380  0.42610  0.47420  1.0000 -0.0904192759
C   C225      1.0  0.42610  0.47420  0.15380  1.0000 -0.0904192759
C   C226      1.0  0.47420  0.42610  0.15380  1.0000 -0.0904192759
C   C227      1.0  0.15380  0.47420  0.42610  1.0000 -0.0904192759
C   C228      1.0  0.42610  0.15380  0.47420  1.0000 -0.0904192759
C   C229      1.0  0.36110  0.82330  0.15330  1.0000 -0.097912897
C   C230      1.0  0.82330  0.15330  0.36110  1.0000 -0.097912897
C   C231      1.0  0.15330  0.36110  0.82330  1.0000 -0.097912897
C   C232      1.0  0.36110  0.15330  0.82330  1.0000 -0.097912897
C   C233      1.0  0.82330  0.36110  0.15330  1.0000 -0.097912897
C   C234      1.0  0.15330  0.82330  0.36110  1.0000 -0.097912897
C   C235      1.0  0.83030  0.07630  0.99960  1.0000 -0.117520537
C   C236      1.0  0.07630  0.99960  0.83030  1.0000 -0.117520537
C   C237      1.0  0.99960  0.83030  0.07630  1.0000 -0.117520537
C   C238      1.0  0.83030  0.99960  0.07630  1.0000 -0.117520537
C   C239      1.0  0.07630  0.83030  0.99960  1.0000 -0.117520537
C   C240      1.0  0.99960  0.07630  0.83030  1.0000 -0.117520537
N   N1        1.0  0.06490  0.98410  0.06490  1.0000 -0.4005358783
N   N2        1.0  0.06490  0.06490  0.98410  1.0000 -0.4005358783
N   N3        1.0  0.98410  0.06490  0.06490  1.0000 -0.4005358783
N   N4        1.0  0.58020  0.93340  0.01460  1.0000 -0.4196310483
N   N5        1.0  0.01460  0.58020  0.93340  1.0000 -0.4196310483
N   N6        1.0  0.93340  0.01460  0.58020  1.0000 -0.4196310483
N   N7        1.0  0.58020  0.01460  0.93340  1.0000 -0.4196310483
N   N8        1.0  0.01460  0.93340  0.58020  1.0000 -0.4196310483
N   N9        1.0  0.93340  0.58020  0.01460  1.0000 -0.4196310483
N   N10       1.0  0.61830  0.01960  0.01960  1.0000 -0.3826614885
N   N11       1.0  0.01960  0.61830  0.01960  1.0000 -0.3826614885
N   N12       1.0  0.01960  0.01960  0.61830  1.0000 -0.3826614885
N   N13       1.0  0.93510  0.93510  0.01590  1.0000 -0.4005358783
N   N14       1.0  0.93510  0.01590  0.93510  1.0000 -0.4005358783
N   N15       1.0  0.01590  0.93510  0.93510  1.0000 -0.4005358783
N   N16       1.0  0.41980  0.98540  0.06660  1.0000 -0.4196310483
N   N17       1.0  0.98540  0.06660  0.41980  1.0000 -0.4196310483
N   N18       1.0  0.06660  0.41980  0.98540  1.0000 -0.4196310483
N   N19       1.0  0.41980  0.06660  0.98540  1.0000 -0.4196310483
N   N20       1.0  0.98540  0.41980  0.06660  1.0000 -0.4196310483
N   N21       1.0  0.06660  0.98540  0.41980  1.0000 -0.4196310483
N   N22       1.0  0.38170  0.98040  0.98040  1.0000 -0.3826614885
N   N23       1.0  0.98040  0.98040  0.38170  1.0000 -0.3826614885
N   N24       1.0  0.98040  0.38170  0.98040  1.0000 -0.3826614885
O   O1        1.0  0.35973  0.78077  0.78077  1.0000 -1.0790038673
O   O2        1.0  0.78077  0.35973  0.78077  1.0000 -1.0790038673
O   O3        1.0  0.78077  0.78077  0.35973  1.0000 -1.0790038673
O   O4        1.0  0.68553  0.79333  0.27863  1.0000 -0.5403987113
O   O5        1.0  0.27863  0.68553  0.79333  1.0000 -0.5403987113
O   O6        1.0  0.79333  0.27863  0.68553  1.0000 -0.5403987113
O   O7        1.0  0.68553  0.27863  0.79333  1.0000 -0.5403987113
O   O8        1.0  0.27863  0.79333  0.68553  1.0000 -0.5403987113
O   O9        1.0  0.79333  0.68553  0.27863  1.0000 -0.5403987113
O   O10       1.0  0.41414  0.65164  0.75604  1.0000 -0.5580798952
O   O11       1.0  0.75604  0.41414  0.65164  1.0000 -0.5580798952
O   O12       1.0  0.65164  0.75604  0.41414  1.0000 -0.5580798952
O   O13       1.0  0.41414  0.75604  0.65164  1.0000 -0.5580798952
O   O14       1.0  0.75604  0.65164  0.41414  1.0000 -0.5580798952
O   O15       1.0  0.65164  0.41414  0.75604  1.0000 -0.5580798952
O   O16       1.0  0.43140  0.66760  0.84420  1.0000 -0.5838039269
O   O17       1.0  0.84420  0.43140  0.66760  1.0000 -0.5838039269
O   O18       1.0  0.66760  0.84420  0.43140  1.0000 -0.5838039269
O   O19       1.0  0.43140  0.84420  0.66760  1.0000 -0.5838039269
O   O20       1.0  0.84420  0.66760  0.43140  1.0000 -0.5838039269
O   O21       1.0  0.66760  0.43140  0.84420  1.0000 -0.5851061312
O   O22       1.0  0.69980  0.88140  0.29260  1.0000 -0.5705151824
O   O23       1.0  0.29260  0.69980  0.88140  1.0000 -0.5705151824
O   O24       1.0  0.88140  0.29260  0.69980  1.0000 -0.5705151824
O   O25       1.0  0.69980  0.29260  0.88140  1.0000 -0.5705151824
O   O26       1.0  0.29260  0.88140  0.69980  1.0000 -0.5705151824
O   O27       1.0  0.88140  0.69980  0.29260  1.0000 -0.5705151824
O   O28       1.0  0.43838  0.79088  0.86928  1.0000 -0.5838039269
O   O29       1.0  0.86928  0.43838  0.79088  1.0000 -0.5838039269
O   O30       1.0  0.79088  0.86928  0.43838  1.0000 -0.5838039269
O   O31       1.0  0.43838  0.86928  0.79088  1.0000 -0.5838039269
O   O32       1.0  0.86928  0.79088  0.43838  1.0000 -0.5838039269
O   O33       1.0  0.79088  0.43838  0.86928  1.0000 -0.5838039269
O   O34       1.0  0.30750  0.82350  0.89860  1.0000 -0.5403987113
O   O35       1.0  0.89860  0.30750  0.82350  1.0000 -0.5403987113
O   O36       1.0  0.82350  0.89860  0.30750  1.0000 -0.5403987113
O   O37       1.0  0.30750  0.89860  0.82350  1.0000 -0.5403987113
O   O38       1.0  0.89860  0.82350  0.30750  1.0000 -0.5403987113
O   O39       1.0  0.82350  0.30750  0.89860  1.0000 -0.5403987113
O   O40       1.0  0.64027  0.21923  0.21923  1.0000 -1.0790038673
O   O41       1.0  0.21923  0.21923  0.64027  1.0000 -1.0790038673
O   O42       1.0  0.21923  0.64027  0.21923  1.0000 -1.0790038673
O   O43       1.0  0.31447  0.72137  0.20667  1.0000 -0.5403987113
O   O44       1.0  0.72137  0.20667  0.31447  1.0000 -0.5403987113
O   O45       1.0  0.20667  0.31447  0.72137  1.0000 -0.5403987113
O   O46       1.0  0.31447  0.20667  0.72137  1.0000 -0.5403987113
O   O47       1.0  0.72137  0.31447  0.20667  1.0000 -0.5403987113
O   O48       1.0  0.20667  0.72137  0.31447  1.0000 -0.5403987113
O   O49       1.0  0.58586  0.24396  0.34836  1.0000 -0.5580798952
O   O50       1.0  0.24396  0.34836  0.58586  1.0000 -0.5580798952
O   O51       1.0  0.34836  0.58586  0.24396  1.0000 -0.5580798952
O   O52       1.0  0.58586  0.34836  0.24396  1.0000 -0.5580798952
O   O53       1.0  0.24396  0.58586  0.34836  1.0000 -0.5580798952
O   O54       1.0  0.34836  0.24396  0.58586  1.0000 -0.5580798952
O   O55       1.0  0.56860  0.15580  0.33240  1.0000 -0.5838039269
O   O56       1.0  0.15580  0.33240  0.56860  1.0000 -0.5838039269
O   O57       1.0  0.33240  0.56860  0.15580  1.0000 -0.5851061312
O   O58       1.0  0.56860  0.33240  0.15580  1.0000 -0.5838039269
O   O59       1.0  0.15580  0.56860  0.33240  1.0000 -0.5838039269
O   O60       1.0  0.33240  0.15580  0.56860  1.0000 -0.5838039269
O   O61       1.0  0.30020  0.70740  0.11860  1.0000 -0.5705151824
O   O62       1.0  0.70740  0.11860  0.30020  1.0000 -0.5705151824
O   O63       1.0  0.11860  0.30020  0.70740  1.0000 -0.5705151824
O   O64       1.0  0.30020  0.11860  0.70740  1.0000 -0.5705151824
O   O65       1.0  0.70740  0.30020  0.11860  1.0000 -0.5705151824
O   O66       1.0  0.11860  0.70740  0.30020  1.0000 -0.5705151824
O   O67       1.0  0.56162  0.13072  0.20912  1.0000 -0.5838039269
O   O68       1.0  0.13072  0.20912  0.56162  1.0000 -0.5838039269
O   O69       1.0  0.20912  0.56162  0.13072  1.0000 -0.5838039269
O   O70       1.0  0.56162  0.20912  0.13072  1.0000 -0.5838039269
O   O71       1.0  0.13072  0.56162  0.20912  1.0000 -0.5838039269
O   O72       1.0  0.20912  0.13072  0.56162  1.0000 -0.5838039269
O   O73       1.0  0.69250  0.10140  0.17650  1.0000 -0.5403987113
O   O74       1.0  0.10140  0.17650  0.69250  1.0000 -0.5403987113
O   O75       1.0  0.17650  0.69250  0.10140  1.0000 -0.5403987113
O   O76       1.0  0.69250  0.17650  0.10140  1.0000 -0.5403987113
O   O77       1.0  0.10140  0.69250  0.17650  1.0000 -0.5403987113
O   O78       1.0  0.17650  0.10140  0.69250  1.0000 -0.5403987113
