# DDEC6 charges by PACMAN v1.1 (https://github.com/mtap-research/PACMAN-charge/)
data_2023[ZnTi][nan]3[ASR]3
_chemical_formula_sum              "Ti8 Zn6 H246 C384 N30 O72"
_cell_length_a       20.7707
_cell_length_b       20.7707
_cell_length_c       30.7463
_cell_angle_alpha    90
_cell_angle_beta     90
_cell_angle_gamma    120

_symmetry_space_group_name_H-M    "P 1"
_symmetry_Int_Tables_number       1

loop_
  _symmetry_equiv_pos_as_xyz
  'x, y, z'

loop_
  _atom_site_type_symbol
  _atom_site_label
  _atom_site_symmetry_multiplicity
  _atom_site_fract_x
  _atom_site_fract_y
  _atom_site_fract_z
  _atom_site_occupancy
  _atom_site_charge
Ti  Ti1       1.0  0.94751  0.43338  0.55374  1.0000 1.9057162798
Ti  Ti2       1.0  0.56662  0.51413  0.55374  1.0000 1.9057162798
Ti  Ti3       1.0  0.48587  0.05249  0.55374  1.0000 1.9057162798
Ti  Ti4       1.0  0.05249  0.56662  0.05374  1.0000 1.9057162798
Ti  Ti5       1.0  0.43338  0.48587  0.05374  1.0000 1.9057162798
Ti  Ti6       1.0  0.51413  0.94751  0.05374  1.0000 1.9057162798
Ti  Ti7       1.0  0.66667  0.33333  0.79421  1.0000 1.8990853227
Ti  Ti8       1.0  0.33333  0.66667  0.29421  1.0000 1.8990853227
Zn  Zn1       1.0  0.57180  0.73370  0.54227  1.0000 0.7378030217
Zn  Zn2       1.0  0.26630  0.83810  0.54227  1.0000 0.7378030217
Zn  Zn3       1.0  0.16190  0.42820  0.54227  1.0000 0.7378030217
Zn  Zn4       1.0  0.42820  0.26630  0.04227  1.0000 0.7378030217
Zn  Zn5       1.0  0.73370  0.16190  0.04227  1.0000 0.7378030217
Zn  Zn6       1.0  0.83810  0.57180  0.04227  1.0000 0.7378030217
H   H1        1.0  0.81146  0.40871  0.70000  1.0000 0.1374188993
H   H2        1.0  0.59129  0.40275  0.70000  1.0000 0.1374188993
H   H3        1.0  0.59725  0.18854  0.70000  1.0000 0.1374188993
H   H4        1.0  0.18854  0.59129  0.20000  1.0000 0.1374188993
H   H5        1.0  0.40871  0.59725  0.20000  1.0000 0.1374188993
H   H6        1.0  0.40275  0.81146  0.20000  1.0000 0.1374188993
H   H7        1.0  0.82702  0.36939  0.66127  1.0000 0.1304019733
H   H8        1.0  0.63061  0.45763  0.66127  1.0000 0.1304019733
H   H9        1.0  0.54237  0.17298  0.66127  1.0000 0.1304019733
H   H10       1.0  0.17298  0.63061  0.16127  1.0000 0.1304019733
H   H11       1.0  0.36939  0.54237  0.16127  1.0000 0.1304019733
H   H12       1.0  0.45763  0.82702  0.16127  1.0000 0.1304019733
H   H13       1.0  0.48961  0.60450  0.52612  1.0000 0.3080354652
H   H14       1.0  0.39550  0.88511  0.52612  1.0000 0.3080354652
H   H15       1.0  0.11489  0.51039  0.52612  1.0000 0.3080354652
H   H16       1.0  0.51039  0.39550  0.02612  1.0000 0.3080354652
H   H17       1.0  0.60450  0.11489  0.02612  1.0000 0.3080354652
H   H18       1.0  0.88511  0.48961  0.02612  1.0000 0.3080354652
H   H19       1.0  0.44531  0.64082  0.52612  1.0000 0.3080354652
H   H20       1.0  0.35918  0.80449  0.52612  1.0000 0.3080354652
H   H21       1.0  0.19551  0.55469  0.52612  1.0000 0.3080354652
H   H22       1.0  0.55469  0.35918  0.02612  1.0000 0.3080354652
H   H23       1.0  0.64082  0.19551  0.02612  1.0000 0.3080354652
H   H24       1.0  0.80449  0.44531  0.02612  1.0000 0.3080354652
H   H25       1.0  0.49039  0.64716  0.48849  1.0000 0.3164825237
H   H26       1.0  0.35284  0.84323  0.48849  1.0000 0.3164825237
H   H27       1.0  0.15677  0.50961  0.48849  1.0000 0.3164825237
H   H28       1.0  0.50961  0.35284  0.98849  1.0000 0.3164825237
H   H29       1.0  0.64716  0.15677  0.98849  1.0000 0.3164825237
H   H30       1.0  0.84323  0.49039  0.98849  1.0000 0.3164825237
H   H31       1.0  0.73841  0.48757  0.53406  1.0000 0.1304019733
H   H32       1.0  0.51243  0.25084  0.53406  1.0000 0.1304019733
H   H33       1.0  0.74916  0.26159  0.53406  1.0000 0.1304019733
H   H34       1.0  0.26159  0.51243  0.03406  1.0000 0.1304019733
H   H35       1.0  0.48757  0.74916  0.03406  1.0000 0.1304019733
H   H36       1.0  0.25084  0.73841  0.03406  1.0000 0.1374188993
H   H37       1.0  0.81597  0.51853  0.55643  1.0000 0.1304019733
H   H38       1.0  0.48147  0.29744  0.55643  1.0000 0.1304019733
H   H39       1.0  0.70256  0.18403  0.55643  1.0000 0.1304019733
H   H40       1.0  0.18403  0.48147  0.05643  1.0000 0.1304019733
H   H41       1.0  0.51853  0.70256  0.05643  1.0000 0.1304019733
H   H42       1.0  0.29744  0.81597  0.05643  1.0000 0.1304019733
H   H43       1.0  0.90720  0.48282  0.39000  1.0000 0.1186483383
H   H44       1.0  0.51718  0.42438  0.39000  1.0000 0.1186483383
H   H45       1.0  0.57562  0.09280  0.39000  1.0000 0.1186483383
H   H46       1.0  0.09280  0.51718  0.89000  1.0000 0.1186483383
H   H47       1.0  0.48282  0.57562  0.89000  1.0000 0.1186483383
H   H48       1.0  0.42438  0.90720  0.89000  1.0000 0.1186483383
H   H49       1.0  0.64423  0.83053  0.45693  1.0000 0.1304019733
H   H50       1.0  0.16947  0.81370  0.45693  1.0000 0.1304019733
H   H51       1.0  0.18630  0.35577  0.45693  1.0000 0.1304019733
H   H52       1.0  0.35577  0.16947  0.95693  1.0000 0.1304019733
H   H53       1.0  0.83053  0.18630  0.95693  1.0000 0.1304019733
H   H54       1.0  0.81370  0.64423  0.95693  1.0000 0.1304019733
H   H55       1.0  0.53781  0.93791  0.48203  1.0000 0.1491623062
H   H56       1.0  0.06209  0.59990  0.48203  1.0000 0.1491623062
H   H57       1.0  0.40010  0.46219  0.48203  1.0000 0.1491623062
H   H58       1.0  0.46219  0.06209  0.98203  1.0000 0.1491623062
H   H59       1.0  0.93791  0.40010  0.98203  1.0000 0.1491623062
H   H60       1.0  0.59990  0.53781  0.98203  1.0000 0.1491623062
H   H61       1.0  0.73913  0.98768  0.42809  1.0000 0.1304019733
H   H62       1.0  0.01232  0.75145  0.42809  1.0000 0.1304019733
H   H63       1.0  0.24855  0.26087  0.42809  1.0000 0.1304019733
H   H64       1.0  0.26087  0.01232  0.92809  1.0000 0.1304019733
H   H65       1.0  0.98768  0.24855  0.92809  1.0000 0.1304019733
H   H66       1.0  0.75145  0.73913  0.92809  1.0000 0.1304019733
H   H67       1.0  0.77901  0.05207  0.36292  1.0000 0.1131142047
H   H68       1.0  0.94793  0.72694  0.36292  1.0000 0.1131142047
H   H69       1.0  0.27306  0.22099  0.36292  1.0000 0.1131142047
H   H70       1.0  0.22099  0.94793  0.86292  1.0000 0.1131142047
H   H71       1.0  0.05207  0.27306  0.86292  1.0000 0.1131142047
H   H72       1.0  0.72694  0.77901  0.86292  1.0000 0.1131142047
H   H73       1.0  0.56662  0.96726  0.32509  1.0000 0.1186483383
H   H74       1.0  0.03274  0.59936  0.32509  1.0000 0.1186483383
H   H75       1.0  0.40064  0.43338  0.32509  1.0000 0.1186483383
H   H76       1.0  0.43338  0.03274  0.82509  1.0000 0.1186483383
H   H77       1.0  0.96726  0.40064  0.82509  1.0000 0.1186483383
H   H78       1.0  0.59936  0.56662  0.82509  1.0000 0.1186483383
H   H79       1.0  0.52673  0.90287  0.39026  1.0000 0.1491623062
H   H80       1.0  0.09713  0.62386  0.39026  1.0000 0.1491623062
H   H81       1.0  0.37614  0.47327  0.39026  1.0000 0.1491623062
H   H82       1.0  0.47327  0.09713  0.89026  1.0000 0.1491623062
H   H83       1.0  0.90287  0.37614  0.89026  1.0000 0.1491623062
H   H84       1.0  0.62386  0.52673  0.89026  1.0000 0.1491623062
H   H85       1.0  0.87461  0.44895  0.76995  1.0000 0.1304019733
H   H86       1.0  0.55105  0.42566  0.76995  1.0000 0.1304019733
H   H87       1.0  0.57434  0.12539  0.76995  1.0000 0.1304019733
H   H88       1.0  0.12539  0.55105  0.26995  1.0000 0.1304019733
H   H89       1.0  0.44895  0.57434  0.26995  1.0000 0.1304019733
H   H90       1.0  0.42566  0.87461  0.26995  1.0000 0.1304019733
H   H91       1.0  0.68538  0.09503  0.13518  1.0000 0.1304019733
H   H92       1.0  0.90497  0.59035  0.13518  1.0000 0.1304019733
H   H93       1.0  0.40965  0.31462  0.13518  1.0000 0.1304019733
H   H94       1.0  0.31462  0.90497  0.63518  1.0000 0.1304019733
H   H95       1.0  0.09503  0.40965  0.63518  1.0000 0.1304019733
H   H96       1.0  0.59035  0.68538  0.63518  1.0000 0.1304019733
H   H97       1.0  0.12320  0.60309  0.68093  1.0000 0.1131142047
H   H98       1.0  0.39691  0.52011  0.68093  1.0000 0.1131142047
H   H99       1.0  0.47989  0.87680  0.68093  1.0000 0.1131142047
H   H100      1.0  0.87680  0.39691  0.18093  1.0000 0.1131142047
H   H101      1.0  0.60309  0.47989  0.18093  1.0000 0.1131142047
H   H102      1.0  0.52011  0.12320  0.18093  1.0000 0.1131142047
H   H103      1.0  0.51068  0.84871  0.53994  1.0000 0.1374188993
H   H104      1.0  0.15129  0.66197  0.53994  1.0000 0.1374188993
H   H105      1.0  0.33803  0.48932  0.53994  1.0000 0.1374188993
H   H106      1.0  0.48932  0.15129  0.03994  1.0000 0.1374188993
H   H107      1.0  0.84871  0.33803  0.03994  1.0000 0.1374188993
H   H108      1.0  0.66197  0.51068  0.03994  1.0000 0.1374188993
H   H109      1.0  0.81367  0.18406  0.80241  1.0000 0.1186483383
H   H110      1.0  0.81594  0.62961  0.80241  1.0000 0.1186483383
H   H111      1.0  0.37039  0.18633  0.80241  1.0000 0.1186483383
H   H112      1.0  0.18633  0.81594  0.30241  1.0000 0.1186483383
H   H113      1.0  0.18406  0.37039  0.30241  1.0000 0.1186483383
H   H114      1.0  0.62961  0.81367  0.30241  1.0000 0.1186483383
H   H115      1.0  0.71326  0.53753  0.46719  1.0000 0.1186483383
H   H116      1.0  0.46247  0.17573  0.46719  1.0000 0.1186483383
H   H117      1.0  0.82427  0.28674  0.46719  1.0000 0.1186483383
H   H118      1.0  0.28674  0.46247  0.96719  1.0000 0.1186483383
H   H119      1.0  0.53753  0.82427  0.96719  1.0000 0.1186483383
H   H120      1.0  0.17573  0.71326  0.96719  1.0000 0.1186483383
H   H121      1.0  0.91421  0.32495  0.65369  1.0000 0.1304019733
H   H122      1.0  0.67505  0.58926  0.65369  1.0000 0.1304019733
H   H123      1.0  0.41074  0.08579  0.65369  1.0000 0.1304019733
H   H124      1.0  0.08579  0.67505  0.15369  1.0000 0.1304019733
H   H125      1.0  0.32495  0.41074  0.15369  1.0000 0.1304019733
H   H126      1.0  0.58926  0.91421  0.15369  1.0000 0.1304019733
H   H127      1.0  0.96885  0.25546  0.64403  1.0000 0.1131142047
H   H128      1.0  0.74454  0.71339  0.64403  1.0000 0.1131142047
H   H129      1.0  0.28661  0.03115  0.64403  1.0000 0.1131142047
H   H130      1.0  0.03115  0.74454  0.14403  1.0000 0.1131142047
H   H131      1.0  0.25546  0.28661  0.14403  1.0000 0.1131142047
H   H132      1.0  0.71339  0.96885  0.14403  1.0000 0.1131142047
H   H133      1.0  0.80418  0.78490  0.53375  1.0000 0.1186483383
H   H134      1.0  0.21510  0.01928  0.53375  1.0000 0.1186483383
H   H135      1.0  0.98072  0.19582  0.53375  1.0000 0.1186483383
H   H136      1.0  0.19582  0.21510  0.03375  1.0000 0.1186483383
H   H137      1.0  0.78490  0.98072  0.03375  1.0000 0.1186483383
H   H138      1.0  0.01928  0.80418  0.03375  1.0000 0.1186483383
H   H139      1.0  0.93863  0.51914  0.82911  1.0000 0.1304019733
H   H140      1.0  0.48086  0.41949  0.82911  1.0000 0.1304019733
H   H141      1.0  0.58051  0.06137  0.82911  1.0000 0.1304019733
H   H142      1.0  0.06137  0.48086  0.32911  1.0000 0.1304019733
H   H143      1.0  0.51914  0.58051  0.32911  1.0000 0.1304019733
H   H144      1.0  0.41949  0.93863  0.32911  1.0000 0.1304019733
H   H145      1.0  0.93525  0.62113  0.53495  1.0000 0.1186483383
H   H146      1.0  0.37887  0.31412  0.53495  1.0000 0.1186483383
H   H147      1.0  0.68588  0.06475  0.53495  1.0000 0.1186483383
H   H148      1.0  0.06475  0.37887  0.03495  1.0000 0.1186483383
H   H149      1.0  0.62113  0.68588  0.03495  1.0000 0.1186483383
H   H150      1.0  0.31412  0.93525  0.03495  1.0000 0.1186483383
H   H151      1.0  0.04499  0.73077  0.53440  1.0000 0.100907775
H   H152      1.0  0.26923  0.31422  0.53440  1.0000 0.100907775
H   H153      1.0  0.68578  0.95501  0.53440  1.0000 0.100907775
H   H154      1.0  0.95501  0.26923  0.03440  1.0000 0.100907775
H   H155      1.0  0.73077  0.68578  0.03440  1.0000 0.100907775
H   H156      1.0  0.31422  0.04499  0.03440  1.0000 0.100907775
H   H157      1.0  0.67589  0.55025  0.39894  1.0000 0.1186483383
H   H158      1.0  0.44975  0.12564  0.39894  1.0000 0.1186483383
H   H159      1.0  0.87436  0.32411  0.39894  1.0000 0.1186483383
H   H160      1.0  0.32411  0.44975  0.89894  1.0000 0.1186483383
H   H161      1.0  0.55025  0.87436  0.89894  1.0000 0.1186483383
H   H162      1.0  0.12564  0.67589  0.89894  1.0000 0.1186483383
H   H163      1.0  0.82765  0.51065  0.34392  1.0000 0.1186483383
H   H164      1.0  0.48935  0.31700  0.34392  1.0000 0.1186483383
H   H165      1.0  0.68300  0.17235  0.34392  1.0000 0.1186483383
H   H166      1.0  0.17235  0.48935  0.84392  1.0000 0.1186483383
H   H167      1.0  0.51065  0.68300  0.84392  1.0000 0.1186483383
H   H168      1.0  0.31700  0.82765  0.84392  1.0000 0.1186483383
H   H169      1.0  0.06300  0.60645  0.82474  1.0000 0.1186483383
H   H170      1.0  0.39355  0.45655  0.82474  1.0000 0.1186483383
H   H171      1.0  0.54345  0.93700  0.82474  1.0000 0.1186483383
H   H172      1.0  0.93700  0.39355  0.32474  1.0000 0.1186483383
H   H173      1.0  0.60645  0.54345  0.32474  1.0000 0.1186483383
H   H174      1.0  0.45655  0.06300  0.32474  1.0000 0.1186483383
H   H175      1.0  0.87904  0.25296  0.18130  1.0000 0.1374188993
H   H176      1.0  0.74704  0.62608  0.18130  1.0000 0.1374188993
H   H177      1.0  0.37392  0.12096  0.18130  1.0000 0.1374188993
H   H178      1.0  0.12096  0.74704  0.68130  1.0000 0.1374188993
H   H179      1.0  0.25296  0.37392  0.68130  1.0000 0.1374188993
H   H180      1.0  0.62608  0.87904  0.68130  1.0000 0.1374188993
H   H181      1.0  0.12363  0.62580  0.76020  1.0000 0.1186483383
H   H182      1.0  0.37420  0.49783  0.76020  1.0000 0.1186483383
H   H183      1.0  0.50217  0.87637  0.76020  1.0000 0.1186483383
H   H184      1.0  0.87637  0.37420  0.26020  1.0000 0.1186483383
H   H185      1.0  0.62580  0.50217  0.26020  1.0000 0.1186483383
H   H186      1.0  0.49783  0.12363  0.26020  1.0000 0.1186483383
H   H187      1.0  0.85241  0.16230  0.23881  1.0000 0.1304019733
H   H188      1.0  0.83770  0.69011  0.23881  1.0000 0.1304019733
H   H189      1.0  0.30989  0.14759  0.23881  1.0000 0.1304019733
H   H190      1.0  0.14759  0.83770  0.73881  1.0000 0.1304019733
H   H191      1.0  0.16230  0.30989  0.73881  1.0000 0.1304019733
H   H192      1.0  0.69011  0.85241  0.73881  1.0000 0.1304019733
H   H193      1.0  0.94226  0.85116  0.53119  1.0000 0.1186483383
H   H194      1.0  0.14884  0.09110  0.53119  1.0000 0.1186483383
H   H195      1.0  0.90890  0.05774  0.53119  1.0000 0.1131142047
H   H196      1.0  0.05774  0.14884  0.03119  1.0000 0.1186483383
H   H197      1.0  0.85116  0.90890  0.03119  1.0000 0.1186483383
H   H198      1.0  0.09110  0.94226  0.03119  1.0000 0.1186483383
H   H199      1.0  0.73054  0.53330  0.33700  1.0000 0.1131142047
H   H200      1.0  0.46670  0.19724  0.33700  1.0000 0.1131142047
H   H201      1.0  0.80276  0.26946  0.33700  1.0000 0.1131142047
H   H202      1.0  0.26946  0.46670  0.83700  1.0000 0.1131142047
H   H203      1.0  0.53330  0.80276  0.83700  1.0000 0.1131142047
H   H204      1.0  0.19724  0.73054  0.83700  1.0000 0.1131142047
H   H205      1.0  0.96361  0.17313  0.69681  1.0000 0.1131142047
H   H206      1.0  0.82687  0.79048  0.69681  1.0000 0.1131142047
H   H207      1.0  0.20952  0.03639  0.69681  1.0000 0.1131142047
H   H208      1.0  0.03639  0.82687  0.19681  1.0000 0.1131142047
H   H209      1.0  0.17313  0.20952  0.19681  1.0000 0.1131142047
H   H210      1.0  0.79048  0.96361  0.19681  1.0000 0.1131142047
H   H211      1.0  0.89696  0.15776  0.75922  1.0000 0.1186483383
H   H212      1.0  0.84224  0.73920  0.75922  1.0000 0.1186483383
H   H213      1.0  0.26080  0.10304  0.75922  1.0000 0.1186483383
H   H214      1.0  0.10304  0.84224  0.25922  1.0000 0.1186483383
H   H215      1.0  0.15776  0.26080  0.25922  1.0000 0.1186483383
H   H216      1.0  0.73920  0.89696  0.25922  1.0000 0.1186483383
H   H217      1.0  0.81015  0.11317  0.30780  1.0000 0.1186483383
H   H218      1.0  0.88683  0.69698  0.30780  1.0000 0.1186483383
H   H219      1.0  0.30302  0.18985  0.30780  1.0000 0.1186483383
H   H220      1.0  0.18985  0.88683  0.80780  1.0000 0.1186483383
H   H221      1.0  0.11317  0.30302  0.80780  1.0000 0.1186483383
H   H222      1.0  0.69698  0.81015  0.80780  1.0000 0.1186483383
H   H223      1.0  0.87062  0.27729  0.10484  1.0000 0.1304019733
H   H224      1.0  0.72271  0.59333  0.10484  1.0000 0.1304019733
H   H225      1.0  0.40667  0.12938  0.10484  1.0000 0.1304019733
H   H226      1.0  0.12938  0.72271  0.60484  1.0000 0.1304019733
H   H227      1.0  0.27729  0.40667  0.60484  1.0000 0.1304019733
H   H228      1.0  0.59333  0.87062  0.60484  1.0000 0.1304019733
H   H229      1.0  0.64058  0.07205  0.20336  1.0000 0.1304019733
H   H230      1.0  0.92795  0.56853  0.20336  1.0000 0.1304019733
H   H231      1.0  0.43147  0.35942  0.20336  1.0000 0.1304019733
H   H232      1.0  0.35942  0.92795  0.70336  1.0000 0.1304019733
H   H233      1.0  0.07205  0.43147  0.70336  1.0000 0.1304019733
H   H234      1.0  0.56853  0.64058  0.70336  1.0000 0.1304019733
H   H235      1.0  0.04972  0.84597  0.52795  1.0000 0.1186483383
H   H236      1.0  0.15403  0.20375  0.52795  1.0000 0.1186483383
H   H237      1.0  0.79625  0.95028  0.52795  1.0000 0.1186483383
H   H238      1.0  0.95028  0.15403  0.02795  1.0000 0.1186483383
H   H239      1.0  0.84597  0.79625  0.02795  1.0000 0.1186483383
H   H240      1.0  0.20375  0.04972  0.02795  1.0000 0.1186483383
H   H241      1.0  0.60569  0.01294  0.26693  1.0000 0.1186483383
H   H242      1.0  0.98706  0.59275  0.26693  1.0000 0.1186483383
H   H243      1.0  0.40725  0.39431  0.26693  1.0000 0.1186483383
H   H244      1.0  0.39431  0.98706  0.76693  1.0000 0.1186483383
H   H245      1.0  0.01294  0.40725  0.76693  1.0000 0.1186483383
H   H246      1.0  0.59275  0.60569  0.76693  1.0000 0.1186483383
C   C1        1.0  0.96590  0.45570  0.45604  1.0000 0.5899775919
C   C2        1.0  0.54430  0.51020  0.45604  1.0000 0.5899775919
C   C3        1.0  0.48980  0.03410  0.45604  1.0000 0.5899775919
C   C4        1.0  0.03410  0.54430  0.95604  1.0000 0.5899775919
C   C5        1.0  0.45570  0.48980  0.95604  1.0000 0.5899775919
C   C6        1.0  0.51020  0.96590  0.95604  1.0000 0.5899775919
C   C7        1.0  0.83180  0.32650  0.72056  1.0000 -0.0279919759
C   C8        1.0  0.67350  0.50530  0.72056  1.0000 -0.0279919759
C   C9        1.0  0.49470  0.16820  0.72056  1.0000 -0.0279919759
C   C10       1.0  0.16820  0.67350  0.22056  1.0000 -0.0279919759
C   C11       1.0  0.32650  0.49470  0.22056  1.0000 -0.0279919759
C   C12       1.0  0.50530  0.83180  0.22056  1.0000 -0.0279919759
C   C13       1.0  0.84290  0.38930  0.69031  1.0000 -0.241228844
C   C14       1.0  0.61070  0.45360  0.69031  1.0000 -0.241228844
C   C15       1.0  0.54640  0.15710  0.69031  1.0000 -0.241228844
C   C16       1.0  0.15710  0.61070  0.19031  1.0000 -0.241228844
C   C17       1.0  0.38930  0.54640  0.19031  1.0000 -0.241228844
C   C18       1.0  0.45360  0.84290  0.19031  1.0000 -0.241228844
C   C19       1.0  0.78540  0.31000  0.75624  1.0000 0.2397542344
C   C20       1.0  0.69000  0.47540  0.75624  1.0000 0.2397542344
C   C21       1.0  0.52460  0.21460  0.75624  1.0000 0.2397542344
C   C22       1.0  0.21460  0.69000  0.25624  1.0000 0.2397542344
C   C23       1.0  0.31000  0.52460  0.25624  1.0000 0.2397542344
C   C24       1.0  0.47540  0.78540  0.25624  1.0000 0.2397542344
C   C25       1.0  0.07780  0.55000  0.60383  1.0000 0.5899775919
C   C26       1.0  0.45000  0.52780  0.60383  1.0000 0.5899775919
C   C27       1.0  0.47220  0.92220  0.60383  1.0000 0.5899775919
C   C28       1.0  0.92220  0.45000  0.10383  1.0000 0.5899775919
C   C29       1.0  0.55000  0.47220  0.10383  1.0000 0.5899775919
C   C30       1.0  0.52780  0.07780  0.10383  1.0000 0.5899775919
C   C31       1.0  0.73300  0.60500  0.54034  1.0000 0.2515838888
C   C32       1.0  0.39500  0.12800  0.54034  1.0000 0.2515838888
C   C33       1.0  0.87200  0.26700  0.54034  1.0000 0.2515838888
C   C34       1.0  0.26700  0.39500  0.04034  1.0000 0.2515838888
C   C35       1.0  0.60500  0.87200  0.04034  1.0000 0.2515838888
C   C36       1.0  0.12800  0.73300  0.04034  1.0000 0.2515838888
C   C37       1.0  0.66840  0.68050  0.54580  1.0000 0.6151715911
C   C38       1.0  0.31950  0.98790  0.54580  1.0000 0.6151715911
C   C39       1.0  0.01210  0.33160  0.54580  1.0000 0.6151715911
C   C40       1.0  0.33160  0.31950  0.04580  1.0000 0.6151715911
C   C41       1.0  0.68050  0.01210  0.04580  1.0000 0.6151715911
C   C42       1.0  0.98790  0.66840  0.04580  1.0000 0.6151715911
C   C43       1.0  0.03650  0.52850  0.64540  1.0000 -0.1705891915
C   C44       1.0  0.47150  0.50800  0.64540  1.0000 -0.1705891915
C   C45       1.0  0.49200  0.96350  0.64540  1.0000 -0.1705891915
C   C46       1.0  0.96350  0.47150  0.14540  1.0000 -0.1705891915
C   C47       1.0  0.52850  0.49200  0.14540  1.0000 -0.1705891915
C   C48       1.0  0.50800  0.03650  0.14540  1.0000 -0.1705891915
C   C49       1.0  0.90540  0.47570  0.45482  1.0000 -0.1498739164
C   C50       1.0  0.52430  0.42970  0.45482  1.0000 -0.1498739164
C   C51       1.0  0.57030  0.09460  0.45482  1.0000 -0.1498739164
C   C52       1.0  0.09460  0.52430  0.95482  1.0000 -0.1498739164
C   C53       1.0  0.47570  0.57030  0.95482  1.0000 -0.1498739164
C   C54       1.0  0.42970  0.90540  0.95482  1.0000 -0.1498739164
C   C55       1.0  0.79720  0.60060  0.53549  1.0000 -0.0279919759
C   C56       1.0  0.39940  0.19660  0.53549  1.0000 -0.0279919759
C   C57       1.0  0.80340  0.20280  0.53549  1.0000 -0.0211342563
C   C58       1.0  0.20280  0.39940  0.03549  1.0000 -0.0211342563
C   C59       1.0  0.60060  0.80340  0.03549  1.0000 -0.0279919759
C   C60       1.0  0.19660  0.79720  0.03549  1.0000 -0.0211342563
C   C61       1.0  0.79510  0.51670  0.44840  1.0000 0.0497491037
C   C62       1.0  0.48330  0.27840  0.44840  1.0000 0.0497491037
C   C63       1.0  0.72160  0.20490  0.44840  1.0000 0.0497491037
C   C64       1.0  0.20490  0.48330  0.94840  1.0000 0.0497491037
C   C65       1.0  0.51670  0.72160  0.94840  1.0000 0.0497491037
C   C66       1.0  0.27840  0.79510  0.94840  1.0000 0.0497491037
C   C67       1.0  0.82180  0.51110  0.49008  1.0000 -0.0211342563
C   C68       1.0  0.48890  0.31070  0.49008  1.0000 -0.0211342563
C   C69       1.0  0.68930  0.17820  0.49008  1.0000 -0.0211342563
C   C70       1.0  0.17820  0.48890  0.99008  1.0000 -0.0211342563
C   C71       1.0  0.51110  0.68930  0.99008  1.0000 -0.0211342563
C   C72       1.0  0.31070  0.82180  0.99008  1.0000 -0.0211342563
C   C73       1.0  0.79060  0.52510  0.53184  1.0000 -0.2471725248
C   C74       1.0  0.47490  0.26550  0.53184  1.0000 -0.2471725248
C   C75       1.0  0.73450  0.20940  0.53184  1.0000 -0.2471725248
C   C76       1.0  0.20940  0.47490  0.03184  1.0000 -0.2471725248
C   C77       1.0  0.52510  0.73450  0.03184  1.0000 -0.2471725248
C   C78       1.0  0.26550  0.79060  0.03184  1.0000 -0.2471725248
C   C79       1.0  0.87340  0.48730  0.49295  1.0000 0.2397542344
C   C80       1.0  0.51270  0.38610  0.49295  1.0000 0.2397542344
C   C81       1.0  0.61390  0.12660  0.49295  1.0000 0.2397542344
C   C82       1.0  0.12660  0.51270  0.99295  1.0000 0.2397542344
C   C83       1.0  0.48730  0.61390  0.99295  1.0000 0.2397542344
C   C84       1.0  0.38610  0.87340  0.99295  1.0000 0.2397542344
C   C85       1.0  0.73610  0.67480  0.54020  1.0000 -0.1498739164
C   C86       1.0  0.32520  0.06130  0.54020  1.0000 -0.1577106698
C   C87       1.0  0.93870  0.26390  0.54020  1.0000 -0.1577106698
C   C88       1.0  0.26390  0.32520  0.04020  1.0000 -0.1577106698
C   C89       1.0  0.67480  0.93870  0.04020  1.0000 -0.1577106698
C   C90       1.0  0.06130  0.73610  0.04020  1.0000 -0.1498739164
C   C91       1.0  0.96050  0.47050  0.64843  1.0000 0.2515838888
C   C92       1.0  0.52950  0.49000  0.64843  1.0000 0.2515838888
C   C93       1.0  0.51000  0.03950  0.64843  1.0000 0.2515838888
C   C94       1.0  0.03950  0.52950  0.14843  1.0000 0.2515838888
C   C95       1.0  0.47050  0.51000  0.14843  1.0000 0.2515838888
C   C96       1.0  0.49000  0.96050  0.14843  1.0000 0.2515838888
C   C97       1.0  0.88430  0.48770  0.41477  1.0000 -0.1498739164
C   C98       1.0  0.51230  0.39660  0.41477  1.0000 -0.1498739164
C   C99       1.0  0.60340  0.11570  0.41477  1.0000 -0.1498739164
C   C100      1.0  0.11570  0.51230  0.91477  1.0000 -0.1498739164
C   C101      1.0  0.48770  0.60340  0.91477  1.0000 -0.1498739164
C   C102      1.0  0.39660  0.88430  0.91477  1.0000 -0.1498739164
C   C103      1.0  0.82870  0.50730  0.41020  1.0000 0.059969436
C   C104      1.0  0.49270  0.32140  0.41020  1.0000 0.059969436
C   C105      1.0  0.67860  0.17130  0.41020  1.0000 0.059969436
C   C106      1.0  0.17130  0.49270  0.91020  1.0000 0.059969436
C   C107      1.0  0.50730  0.67860  0.91020  1.0000 0.059969436
C   C108      1.0  0.32140  0.82870  0.91020  1.0000 0.059969436
C   C109      1.0  0.61440  0.84600  0.47062  1.0000 0.1131142047
C   C110      1.0  0.15400  0.76840  0.47062  1.0000 0.1131142047
C   C111      1.0  0.23160  0.38560  0.47062  1.0000 0.1131142047
C   C112      1.0  0.38560  0.15400  0.97062  1.0000 0.1131142047
C   C113      1.0  0.84600  0.23160  0.97062  1.0000 0.1131142047
C   C114      1.0  0.76840  0.61440  0.97062  1.0000 0.1131142047
C   C115      1.0  0.77810  0.25690  0.78850  1.0000 -0.1498739164
C   C116      1.0  0.74310  0.52120  0.78850  1.0000 -0.1498739164
C   C117      1.0  0.47880  0.22190  0.78850  1.0000 -0.1498739164
C   C118      1.0  0.22190  0.74310  0.28850  1.0000 -0.1498739164
C   C119      1.0  0.25690  0.47880  0.28850  1.0000 -0.1498739164
C   C120      1.0  0.52120  0.77810  0.28850  1.0000 -0.1498739164
C   C121      1.0  0.86820  0.28510  0.71300  1.0000 0.0497491037
C   C122      1.0  0.71490  0.58310  0.71300  1.0000 0.0497491037
C   C123      1.0  0.41690  0.13180  0.71300  1.0000 0.0497491037
C   C124      1.0  0.13180  0.71490  0.21300  1.0000 0.0497491037
C   C125      1.0  0.28510  0.41690  0.21300  1.0000 0.0497491037
C   C126      1.0  0.58310  0.86820  0.21300  1.0000 0.0497491037
C   C127      1.0  0.55600  0.90520  0.48410  1.0000 -0.0742225476
C   C128      1.0  0.09480  0.65080  0.48410  1.0000 -0.0742225476
C   C129      1.0  0.34920  0.44400  0.48410  1.0000 -0.0742225476
C   C130      1.0  0.44400  0.09480  0.98410  1.0000 -0.0742225476
C   C131      1.0  0.90520  0.34920  0.98410  1.0000 -0.0742225476
C   C132      1.0  0.65080  0.55600  0.98410  1.0000 -0.0742225476
C   C133      1.0  0.73480  0.24280  0.82900  1.0000 0.6017053124
C   C134      1.0  0.75720  0.49200  0.82900  1.0000 0.6017053124
C   C135      1.0  0.50800  0.26520  0.82900  1.0000 0.6017053124
C   C136      1.0  0.26520  0.75720  0.32900  1.0000 0.6017053124
C   C137      1.0  0.24280  0.50800  0.32900  1.0000 0.6017053124
C   C138      1.0  0.49200  0.73480  0.32900  1.0000 0.6017053124
C   C139      1.0  0.62900  0.93890  0.41564  1.0000 0.1585813559
C   C140      1.0  0.06110  0.69010  0.41564  1.0000 0.1585813559
C   C141      1.0  0.30990  0.37100  0.41564  1.0000 0.1585813559
C   C142      1.0  0.37100  0.06110  0.91564  1.0000 0.1585813559
C   C143      1.0  0.93890  0.30990  0.91564  1.0000 0.1585813559
C   C144      1.0  0.69010  0.62900  0.91564  1.0000 0.1585813559
C   C145      1.0  0.70450  0.98360  0.40740  1.0000 -0.1705891915
C   C146      1.0  0.01640  0.72090  0.40740  1.0000 -0.1705891915
C   C147      1.0  0.27910  0.29550  0.40740  1.0000 -0.1705891915
C   C148      1.0  0.29550  0.01640  0.90740  1.0000 -0.1705891915
C   C149      1.0  0.98360  0.27910  0.90740  1.0000 -0.1705891915
C   C150      1.0  0.72090  0.70450  0.90740  1.0000 -0.1705891915
C   C151      1.0  0.72840  0.02220  0.36840  1.0000 -0.1192559887
C   C152      1.0  0.97780  0.70620  0.36840  1.0000 -0.1192559887
C   C153      1.0  0.29380  0.27160  0.36840  1.0000 -0.1192559887
C   C154      1.0  0.27160  0.97780  0.86840  1.0000 -0.1192559887
C   C155      1.0  0.02220  0.29380  0.86840  1.0000 -0.1192559887
C   C156      1.0  0.70620  0.72840  0.86840  1.0000 -0.1192559887
C   C157      1.0  0.67680  0.01600  0.33755  1.0000 0.06698663
C   C158      1.0  0.98400  0.66080  0.33755  1.0000 0.06698663
C   C159      1.0  0.33920  0.32320  0.33755  1.0000 0.06698663
C   C160      1.0  0.32320  0.98400  0.83755  1.0000 0.06698663
C   C161      1.0  0.01600  0.33920  0.83755  1.0000 0.06698663
C   C162      1.0  0.66080  0.67680  0.83755  1.0000 0.06698663
C   C163      1.0  0.60120  0.97140  0.34574  1.0000 -0.1192559887
C   C164      1.0  0.02860  0.62980  0.34574  1.0000 -0.1192559887
C   C165      1.0  0.37020  0.39880  0.34574  1.0000 -0.1192559887
C   C166      1.0  0.39880  0.02860  0.84574  1.0000 -0.1192559887
C   C167      1.0  0.97140  0.37020  0.84574  1.0000 -0.1192559887
C   C168      1.0  0.62980  0.60120  0.84574  1.0000 -0.1192559887
C   C169      1.0  0.57730  0.93280  0.38478  1.0000 -0.1403073095
C   C170      1.0  0.06720  0.64450  0.38478  1.0000 -0.1403073095
C   C171      1.0  0.35550  0.42270  0.38478  1.0000 -0.1403073095
C   C172      1.0  0.42270  0.06720  0.88478  1.0000 -0.1403073095
C   C173      1.0  0.93280  0.35550  0.88478  1.0000 -0.1403073095
C   C174      1.0  0.64450  0.57730  0.88478  1.0000 -0.1403073095
C   C175      1.0  0.92460  0.48460  0.76710  1.0000 -0.1192559887
C   C176      1.0  0.51540  0.44000  0.76710  1.0000 -0.1192559887
C   C177      1.0  0.56000  0.07540  0.76710  1.0000 -0.1192559887
C   C178      1.0  0.07540  0.51540  0.26710  1.0000 -0.1192559887
C   C179      1.0  0.48460  0.56000  0.26710  1.0000 -0.1192559887
C   C180      1.0  0.44000  0.92460  0.26710  1.0000 -0.1192559887
C   C181      1.0  0.73050  0.13920  0.13740  1.0000 0.1186483383
C   C182      1.0  0.86080  0.59130  0.13740  1.0000 0.1186483383
C   C183      1.0  0.40870  0.26950  0.13740  1.0000 0.1186483383
C   C184      1.0  0.26950  0.86080  0.63740  1.0000 0.1186483383
C   C185      1.0  0.13920  0.40870  0.63740  1.0000 0.1186483383
C   C186      1.0  0.59130  0.73050  0.63740  1.0000 0.1186483383
C   C187      1.0  0.07340  0.56660  0.68280  1.0000 -0.1705891915
C   C188      1.0  0.43340  0.50680  0.68280  1.0000 -0.1705891915
C   C189      1.0  0.49320  0.92660  0.68280  1.0000 -0.1705891915
C   C190      1.0  0.92660  0.43340  0.18280  1.0000 -0.1705891915
C   C191      1.0  0.56660  0.49320  0.18280  1.0000 -0.1705891915
C   C192      1.0  0.50680  0.07340  0.18280  1.0000 -0.1705891915
C   C193      1.0  0.54120  0.85620  0.51608  1.0000 -0.0503084265
C   C194      1.0  0.14380  0.68500  0.51608  1.0000 -0.0503084265
C   C195      1.0  0.31500  0.45880  0.51608  1.0000 -0.0503084265
C   C196      1.0  0.45880  0.14380  0.01608  1.0000 -0.0503084265
C   C197      1.0  0.85620  0.31500  0.01608  1.0000 -0.0503084265
C   C198      1.0  0.68500  0.54120  0.01608  1.0000 -0.0503084265
C   C199      1.0  0.92330  0.45300  0.68830  1.0000 -0.0279919759
C   C200      1.0  0.54700  0.47030  0.68830  1.0000 -0.0279919759
C   C201      1.0  0.52970  0.07670  0.68830  1.0000 -0.0279919759
C   C202      1.0  0.07670  0.54700  0.18830  1.0000 -0.0279919759
C   C203      1.0  0.45300  0.52970  0.18830  1.0000 -0.0279919759
C   C204      1.0  0.47030  0.92330  0.18830  1.0000 -0.0279919759
C   C205      1.0  0.03710  0.55140  0.72370  1.0000 0.0497491037
C   C206      1.0  0.44860  0.48570  0.72370  1.0000 0.0497491037
C   C207      1.0  0.51430  0.96290  0.72370  1.0000 0.0497491037
C   C208      1.0  0.96290  0.44860  0.22370  1.0000 0.0497491037
C   C209      1.0  0.55140  0.51430  0.22370  1.0000 0.0497491037
C   C210      1.0  0.48570  0.03710  0.22370  1.0000 0.0497491037
C   C211      1.0  0.96060  0.49550  0.72570  1.0000 0.040260779
C   C212      1.0  0.50450  0.46510  0.72570  1.0000 0.040260779
C   C213      1.0  0.53490  0.03940  0.72570  1.0000 0.040260779
C   C214      1.0  0.03940  0.50450  0.22570  1.0000 0.040260779
C   C215      1.0  0.49550  0.53490  0.22570  1.0000 0.040260779
C   C216      1.0  0.46510  0.96060  0.22570  1.0000 0.040260779
C   C217      1.0  0.86690  0.66710  0.53450  1.0000 0.0497491037
C   C218      1.0  0.33290  0.19980  0.53450  1.0000 0.0497491037
C   C219      1.0  0.80020  0.13310  0.53450  1.0000 0.0497491037
C   C220      1.0  0.13310  0.33290  0.03450  1.0000 0.0497491037
C   C221      1.0  0.66710  0.80020  0.03450  1.0000 0.0497491037
C   C222      1.0  0.19980  0.86690  0.03450  1.0000 0.0497491037
C   C223      1.0  0.81740  0.21850  0.78180  1.0000 -0.1498739164
C   C224      1.0  0.78150  0.59890  0.78180  1.0000 -0.1498739164
C   C225      1.0  0.40110  0.18260  0.78180  1.0000 -0.1498739164
C   C226      1.0  0.18260  0.78150  0.28180  1.0000 -0.1577106698
C   C227      1.0  0.21850  0.40110  0.28180  1.0000 -0.1577106698
C   C228      1.0  0.59890  0.81740  0.28180  1.0000 -0.1577106698
C   C229      1.0  0.70230  0.05540  0.29550  1.0000 0.06698663
C   C230      1.0  0.94460  0.64690  0.29550  1.0000 0.06698663
C   C231      1.0  0.35310  0.29770  0.29550  1.0000 0.06698663
C   C232      1.0  0.29770  0.94460  0.79550  1.0000 0.06698663
C   C233      1.0  0.05540  0.35310  0.79550  1.0000 0.06698663
C   C234      1.0  0.64690  0.70230  0.79550  1.0000 0.06698663
C   C235      1.0  0.86150  0.23080  0.74520  1.0000 0.059969436
C   C236      1.0  0.76920  0.63070  0.74520  1.0000 0.059969436
C   C237      1.0  0.36930  0.13850  0.74520  1.0000 0.059969436
C   C238      1.0  0.13850  0.76920  0.24520  1.0000 0.059969436
C   C239      1.0  0.23080  0.36930  0.24520  1.0000 0.059969436
C   C240      1.0  0.63070  0.86150  0.24520  1.0000 0.059969436
C   C241      1.0  0.73670  0.53210  0.44290  1.0000 -0.1192559887
C   C242      1.0  0.46790  0.20460  0.44290  1.0000 -0.1192559887
C   C243      1.0  0.79540  0.26330  0.44290  1.0000 -0.1192559887
C   C244      1.0  0.26330  0.46790  0.94290  1.0000 -0.1192559887
C   C245      1.0  0.53210  0.79540  0.94290  1.0000 -0.1192559887
C   C246      1.0  0.20460  0.73670  0.94290  1.0000 -0.1192559887
C   C247      1.0  0.74690  0.12950  0.21520  1.0000 0.1491623062
C   C248      1.0  0.87050  0.61740  0.21520  1.0000 0.1491623062
C   C249      1.0  0.38260  0.25310  0.21520  1.0000 0.1491623062
C   C250      1.0  0.25310  0.87050  0.71520  1.0000 0.1491623062
C   C251      1.0  0.12950  0.38260  0.71520  1.0000 0.1491623062
C   C252      1.0  0.61740  0.74690  0.71520  1.0000 0.1491623062
C   C253      1.0  0.90960  0.29150  0.67530  1.0000 -0.1299283334
C   C254      1.0  0.70850  0.61810  0.67530  1.0000 -0.1299283334
C   C255      1.0  0.38190  0.09040  0.67530  1.0000 -0.1299283334
C   C256      1.0  0.09040  0.70850  0.17530  1.0000 -0.1299283334
C   C257      1.0  0.29150  0.38190  0.17530  1.0000 -0.1299283334
C   C258      1.0  0.61810  0.90960  0.17530  1.0000 -0.1299283334
C   C259      1.0  0.94280  0.25020  0.66960  1.0000 -0.0993258832
C   C260      1.0  0.74980  0.69260  0.66960  1.0000 -0.0993258832
C   C261      1.0  0.30740  0.05720  0.66960  1.0000 -0.0993258832
C   C262      1.0  0.05720  0.74980  0.16960  1.0000 -0.0993258832
C   C263      1.0  0.25020  0.30740  0.16960  1.0000 -0.0993258832
C   C264      1.0  0.69260  0.94280  0.16960  1.0000 -0.0993258832
C   C265      1.0  0.80300  0.73970  0.53570  1.0000 -0.1498739164
C   C266      1.0  0.26030  0.06330  0.53570  1.0000 -0.1498739164
C   C267      1.0  0.93670  0.19700  0.53570  1.0000 -0.1498739164
C   C268      1.0  0.19700  0.26030  0.03570  1.0000 -0.1498739164
C   C269      1.0  0.73970  0.93670  0.03570  1.0000 -0.1498739164
C   C270      1.0  0.06330  0.80300  0.03570  1.0000 -0.1498739164
C   C271      1.0  0.96340  0.52660  0.80280  1.0000 -0.0758320395
C   C272      1.0  0.47340  0.43680  0.80280  1.0000 -0.0758320395
C   C273      1.0  0.56320  0.03660  0.80280  1.0000 -0.0758320395
C   C274      1.0  0.03660  0.47340  0.30280  1.0000 -0.0758320395
C   C275      1.0  0.52660  0.56320  0.30280  1.0000 -0.0758320395
C   C276      1.0  0.43680  0.96340  0.30280  1.0000 -0.0758320395
C   C277      1.0  0.93550  0.66600  0.53430  1.0000 -0.1299283334
C   C278      1.0  0.33400  0.26950  0.53430  1.0000 -0.1299283334
C   C279      1.0  0.73050  0.06450  0.53430  1.0000 -0.1299283334
C   C280      1.0  0.06450  0.33400  0.03430  1.0000 -0.1299283334
C   C281      1.0  0.66600  0.73050  0.03430  1.0000 -0.1299283334
C   C282      1.0  0.26950  0.93550  0.03430  1.0000 -0.1299283334
C   C283      1.0  0.00070  0.73170  0.53330  1.0000 -0.0993258832
C   C284      1.0  0.26830  0.26900  0.53330  1.0000 -0.0993258832
C   C285      1.0  0.73100  0.99930  0.53330  1.0000 -0.0993258832
C   C286      1.0  0.99930  0.26830  0.03330  1.0000 -0.0993258832
C   C287      1.0  0.73170  0.73100  0.03330  1.0000 -0.0993258832
C   C288      1.0  0.26900  0.00070  0.03330  1.0000 -0.0993258832
C   C289      1.0  0.71380  0.53910  0.40190  1.0000 -0.0874898599
C   C290      1.0  0.46090  0.17470  0.40190  1.0000 -0.0874898599
C   C291      1.0  0.82530  0.28620  0.40190  1.0000 -0.0874898599
C   C292      1.0  0.28620  0.46090  0.90190  1.0000 -0.0874898599
C   C293      1.0  0.53910  0.82530  0.90190  1.0000 -0.0874898599
C   C294      1.0  0.17470  0.71380  0.90190  1.0000 -0.0874898599
C   C295      1.0  0.86970  0.73770  0.53390  1.0000 0.059969436
C   C296      1.0  0.26230  0.13200  0.53390  1.0000 0.059969436
C   C297      1.0  0.86800  0.13030  0.53390  1.0000 0.059969436
C   C298      1.0  0.13030  0.26230  0.03390  1.0000 0.059969436
C   C299      1.0  0.73770  0.86800  0.03390  1.0000 0.059969436
C   C300      1.0  0.13200  0.86970  0.03390  1.0000 0.059969436
C   C301      1.0  0.80450  0.51530  0.36870  1.0000 -0.1403073095
C   C302      1.0  0.48470  0.28920  0.36870  1.0000 -0.1403073095
C   C303      1.0  0.71080  0.19550  0.36870  1.0000 -0.1403073095
C   C304      1.0  0.19550  0.48470  0.86870  1.0000 -0.1403073095
C   C305      1.0  0.51530  0.71080  0.86870  1.0000 -0.1403073095
C   C306      1.0  0.28920  0.80450  0.86870  1.0000 -0.1403073095
C   C307      1.0  0.03760  0.57920  0.80030  1.0000 -0.0874898599
C   C308      1.0  0.42080  0.45840  0.80030  1.0000 -0.0874898599
C   C309      1.0  0.54160  0.96240  0.80030  1.0000 -0.0874898599
C   C310      1.0  0.96240  0.42080  0.30030  1.0000 -0.0874898599
C   C311      1.0  0.57920  0.54160  0.30030  1.0000 -0.0874898599
C   C312      1.0  0.45840  0.03760  0.30030  1.0000 -0.0874898599
C   C313      1.0  0.83850  0.22610  0.16310  1.0000 -0.1192559887
C   C314      1.0  0.77390  0.61240  0.16310  1.0000 -0.1082487543
C   C315      1.0  0.38760  0.16150  0.16310  1.0000 -0.1192559887
C   C316      1.0  0.16150  0.77390  0.66310  1.0000 -0.1192559887
C   C317      1.0  0.22610  0.38760  0.66310  1.0000 -0.1192559887
C   C318      1.0  0.61240  0.83850  0.66310  1.0000 -0.1192559887
C   C319      1.0  0.07330  0.59060  0.76160  1.0000 -0.1577106698
C   C320      1.0  0.40940  0.48270  0.76160  1.0000 -0.1577106698
C   C321      1.0  0.51730  0.92670  0.76160  1.0000 -0.1577106698
C   C322      1.0  0.92670  0.40940  0.26160  1.0000 -0.1577106698
C   C323      1.0  0.59060  0.51730  0.26160  1.0000 -0.1577106698
C   C324      1.0  0.48270  0.07330  0.26160  1.0000 -0.1577106698
C   C325      1.0  0.80200  0.13670  0.24550  1.0000 -0.1705891915
C   C326      1.0  0.86330  0.66530  0.24550  1.0000 -0.1705891915
C   C327      1.0  0.33470  0.19800  0.24550  1.0000 -0.1705891915
C   C328      1.0  0.19800  0.86330  0.74550  1.0000 -0.1705891915
C   C329      1.0  0.13670  0.33470  0.74550  1.0000 -0.1705891915
C   C330      1.0  0.66530  0.80200  0.74550  1.0000 -0.1705891915
C   C331      1.0  0.94040  0.80550  0.53170  1.0000 -0.1403073095
C   C332      1.0  0.19450  0.13490  0.53170  1.0000 -0.1403073095
C   C333      1.0  0.86510  0.05960  0.53170  1.0000 -0.1403073095
C   C334      1.0  0.05960  0.19450  0.03170  1.0000 -0.1403073095
C   C335      1.0  0.80550  0.86510  0.03170  1.0000 -0.1403073095
C   C336      1.0  0.13490  0.94040  0.03170  1.0000 -0.1403073095
C   C337      1.0  0.74720  0.52970  0.36450  1.0000 -0.1082487543
C   C338      1.0  0.47030  0.21750  0.36450  1.0000 -0.1082487543
C   C339      1.0  0.78250  0.25280  0.36450  1.0000 -0.1082487543
C   C340      1.0  0.25280  0.47030  0.86450  1.0000 -0.1082487543
C   C341      1.0  0.52970  0.78250  0.86450  1.0000 -0.1082487543
C   C342      1.0  0.21750  0.74720  0.86450  1.0000 -0.1082487543
C   C343      1.0  0.93930  0.20000  0.70100  1.0000 -0.0993258832
C   C344      1.0  0.80000  0.73930  0.70100  1.0000 -0.0993258832
C   C345      1.0  0.26070  0.06070  0.70100  1.0000 -0.0993258832
C   C346      1.0  0.06070  0.80000  0.20100  1.0000 -0.0993258832
C   C347      1.0  0.20000  0.26070  0.20100  1.0000 -0.0993258832
C   C348      1.0  0.73930  0.93930  0.20100  1.0000 -0.0993258832
C   C349      1.0  0.89930  0.19090  0.73810  1.0000 -0.1403073095
C   C350      1.0  0.80910  0.70840  0.73810  1.0000 -0.1403073095
C   C351      1.0  0.29160  0.10070  0.73810  1.0000 -0.1403073095
C   C352      1.0  0.10070  0.80910  0.23810  1.0000 -0.1403073095
C   C353      1.0  0.19090  0.29160  0.23810  1.0000 -0.1403073095
C   C354      1.0  0.70840  0.89930  0.23810  1.0000 -0.1403073095
C   C355      1.0  0.77550  0.10270  0.28590  1.0000 -0.1498739164
C   C356      1.0  0.89730  0.67280  0.28590  1.0000 -0.1498739164
C   C357      1.0  0.32720  0.22450  0.28590  1.0000 -0.1498739164
C   C358      1.0  0.22450  0.89730  0.78590  1.0000 -0.1498739164
C   C359      1.0  0.10270  0.32720  0.78590  1.0000 -0.1498739164
C   C360      1.0  0.67280  0.77550  0.78590  1.0000 -0.1498739164
C   C361      1.0  0.83330  0.23880  0.12100  1.0000 -0.0211342563
C   C362      1.0  0.76120  0.59450  0.12100  1.0000 -0.0211342563
C   C363      1.0  0.40550  0.16670  0.12100  1.0000 -0.0211342563
C   C364      1.0  0.16670  0.76120  0.62100  1.0000 -0.0211342563
C   C365      1.0  0.23880  0.40550  0.62100  1.0000 -0.0211342563
C   C366      1.0  0.59450  0.83330  0.62100  1.0000 -0.0211342563
C   C367      1.0  0.67670  0.08160  0.22420  1.0000 -0.1403073095
C   C368      1.0  0.91840  0.59510  0.22420  1.0000 -0.1403073095
C   C369      1.0  0.40490  0.32330  0.22420  1.0000 -0.1403073095
C   C370      1.0  0.32330  0.91840  0.72420  1.0000 -0.1403073095
C   C371      1.0  0.08160  0.40490  0.72420  1.0000 -0.1403073095
C   C372      1.0  0.59510  0.67670  0.72420  1.0000 -0.1403073095
C   C373      1.0  0.00410  0.80250  0.53050  1.0000 -0.1082487543
C   C374      1.0  0.19750  0.20160  0.53050  1.0000 -0.1082487543
C   C375      1.0  0.79840  0.99590  0.53050  1.0000 -0.1082487543
C   C376      1.0  0.99590  0.19750  0.03050  1.0000 -0.1082487543
C   C377      1.0  0.80250  0.79840  0.03050  1.0000 -0.1082487543
C   C378      1.0  0.20160  0.00410  0.03050  1.0000 -0.1082487543
C   C379      1.0  0.65600  0.04630  0.26270  1.0000 -0.1299283334
C   C380      1.0  0.95370  0.60970  0.26270  1.0000 -0.1299283334
C   C381      1.0  0.39030  0.34400  0.26270  1.0000 -0.1299283334
C   C382      1.0  0.34400  0.95370  0.76270  1.0000 -0.1299283334
C   C383      1.0  0.04630  0.39030  0.76270  1.0000 -0.1299283334
C   C384      1.0  0.60970  0.65600  0.76270  1.0000 -0.1299283334
N   N1        1.0  0.57930  0.81830  0.50752  1.0000 -0.2904268705
N   N2        1.0  0.18170  0.76100  0.50752  1.0000 -0.2904268705
N   N3        1.0  0.23900  0.42070  0.50752  1.0000 -0.2904268705
N   N4        1.0  0.42070  0.18170  0.00752  1.0000 -0.2904268705
N   N5        1.0  0.81830  0.23900  0.00752  1.0000 -0.2904268705
N   N6        1.0  0.76100  0.57930  0.00752  1.0000 -0.2904268705
N   N7        1.0  0.60220  0.89910  0.45507  1.0000 0.0124953541
N   N8        1.0  0.10090  0.70310  0.45507  1.0000 0.0124953541
N   N9        1.0  0.29690  0.39780  0.45507  1.0000 0.0124953541
N   N10       1.0  0.39780  0.10090  0.95507  1.0000 0.0124953541
N   N11       1.0  0.89910  0.29690  0.95507  1.0000 0.0124953541
N   N12       1.0  0.70310  0.60220  0.95507  1.0000 0.0124953541
N   N13       1.0  0.76370  0.18580  0.10450  1.0000 -0.2813374304
N   N14       1.0  0.81420  0.57790  0.10450  1.0000 -0.2813374304
N   N15       1.0  0.42210  0.23630  0.10450  1.0000 -0.2813374304
N   N16       1.0  0.23630  0.81420  0.60450  1.0000 -0.2813374304
N   N17       1.0  0.18580  0.42210  0.60450  1.0000 -0.2813374304
N   N18       1.0  0.57790  0.76370  0.60450  1.0000 -0.2813374304
N   N19       1.0  0.48780  0.64440  0.51736  1.0000 -0.7572711808
N   N20       1.0  0.35560  0.84340  0.51736  1.0000 -0.7572711808
N   N21       1.0  0.15660  0.51220  0.51736  1.0000 -0.7572711808
N   N22       1.0  0.51220  0.35560  0.01736  1.0000 -0.7572711808
N   N23       1.0  0.64440  0.15660  0.01736  1.0000 -0.7572711808
N   N24       1.0  0.84340  0.48780  0.01736  1.0000 -0.7572711808
N   N25       1.0  0.77010  0.16400  0.17420  1.0000 0.0124953541
N   N26       1.0  0.83600  0.60610  0.17420  1.0000 0.0124953541
N   N27       1.0  0.39390  0.22990  0.17420  1.0000 0.0124953541
N   N28       1.0  0.22990  0.83600  0.67420  1.0000 0.0124953541
N   N29       1.0  0.16400  0.39390  0.67420  1.0000 0.0124953541
N   N30       1.0  0.60610  0.77010  0.67420  1.0000 0.0124953541
O   O1        1.0  0.04030  0.52700  0.56784  1.0000 -0.6396269404
O   O2        1.0  0.47300  0.51330  0.56784  1.0000 -0.6396269404
O   O3        1.0  0.48670  0.95970  0.56784  1.0000 -0.6396269404
O   O4        1.0  0.95970  0.47300  0.06784  1.0000 -0.6396269404
O   O5        1.0  0.52700  0.48670  0.06784  1.0000 -0.6396269404
O   O6        1.0  0.51330  0.04030  0.06784  1.0000 -0.6396269404
O   O7        1.0  0.74870  0.34770  0.76170  1.0000 -0.5999451383
O   O8        1.0  0.65230  0.40100  0.76170  1.0000 -0.5999451383
O   O9        1.0  0.59900  0.25130  0.76170  1.0000 -0.5999451383
O   O10       1.0  0.25130  0.65230  0.26170  1.0000 -0.5999451383
O   O11       1.0  0.34770  0.59900  0.26170  1.0000 -0.5999451383
O   O12       1.0  0.40100  0.74870  0.26170  1.0000 -0.5999451383
O   O13       1.0  0.61084  0.62747  0.56389  1.0000 -0.6191481951
O   O14       1.0  0.37253  0.98337  0.56389  1.0000 -0.6191481951
O   O15       1.0  0.01663  0.38916  0.56389  1.0000 -0.6191481951
O   O16       1.0  0.38916  0.37253  0.06389  1.0000 -0.6191481951
O   O17       1.0  0.62747  0.01663  0.06389  1.0000 -0.6191481951
O   O18       1.0  0.98337  0.61084  0.06389  1.0000 -0.6191481951
O   O19       1.0  0.92500  0.43260  0.61257  1.0000 -0.6191481951
O   O20       1.0  0.56740  0.49240  0.61257  1.0000 -0.6191481951
O   O21       1.0  0.50760  0.07500  0.61257  1.0000 -0.6191481951
O   O22       1.0  0.07500  0.56740  0.11257  1.0000 -0.6191481951
O   O23       1.0  0.43260  0.50760  0.11257  1.0000 -0.6191481951
O   O24       1.0  0.49240  0.92500  0.11257  1.0000 -0.6191481951
O   O25       1.0  0.98930  0.44860  0.49311  1.0000 -0.6271161838
O   O26       1.0  0.55140  0.54070  0.49311  1.0000 -0.6271161838
O   O27       1.0  0.45930  0.01070  0.49311  1.0000 -0.6271161838
O   O28       1.0  0.01070  0.55140  0.99311  1.0000 -0.6271161838
O   O29       1.0  0.44860  0.45930  0.99311  1.0000 -0.6271161838
O   O30       1.0  0.54070  0.98930  0.99311  1.0000 -0.6271161838
O   O31       1.0  0.66620  0.54199  0.54308  1.0000 -0.6271161838
O   O32       1.0  0.45801  0.12421  0.54308  1.0000 -0.6271161838
O   O33       1.0  0.87579  0.33380  0.54308  1.0000 -0.6271161838
O   O34       1.0  0.33380  0.45801  0.04308  1.0000 -0.6271161838
O   O35       1.0  0.54199  0.87579  0.04308  1.0000 -0.6271161838
O   O36       1.0  0.12421  0.66620  0.04308  1.0000 -0.6271161838
O   O37       1.0  0.89230  0.47490  0.53247  1.0000 -0.6101793501
O   O38       1.0  0.52510  0.41740  0.53247  1.0000 -0.6101793501
O   O39       1.0  0.58260  0.10770  0.53247  1.0000 -0.6101793501
O   O40       1.0  0.10770  0.52510  0.03247  1.0000 -0.6101793501
O   O41       1.0  0.47490  0.58260  0.03247  1.0000 -0.6101793501
O   O42       1.0  0.41740  0.89230  0.03247  1.0000 -0.6101793501
O   O43       1.0  0.69450  0.27400  0.83422  1.0000 -0.6101793501
O   O44       1.0  0.72600  0.42050  0.83422  1.0000 -0.6101793501
O   O45       1.0  0.57950  0.30550  0.83422  1.0000 -0.6101793501
O   O46       1.0  0.30550  0.72600  0.33422  1.0000 -0.6101793501
O   O47       1.0  0.27400  0.57950  0.33422  1.0000 -0.6101793501
O   O48       1.0  0.42050  0.69450  0.33422  1.0000 -0.6101793501
O   O49       1.0  0.99250  0.45030  0.42124  1.0000 -0.5161519757
O   O50       1.0  0.54970  0.54220  0.42124  1.0000 -0.5161519757
O   O51       1.0  0.45780  0.00750  0.42124  1.0000 -0.5161519757
O   O52       1.0  0.00750  0.54970  0.92124  1.0000 -0.5161519757
O   O53       1.0  0.45030  0.45780  0.92124  1.0000 -0.5161519757
O   O54       1.0  0.54220  0.99250  0.92124  1.0000 -0.5161519757
O   O55       1.0  0.66980  0.73930  0.53406  1.0000 -0.5144440246
O   O56       1.0  0.26070  0.93050  0.53406  1.0000 -0.5144440246
O   O57       1.0  0.06950  0.33020  0.53406  1.0000 -0.5144440246
O   O58       1.0  0.33020  0.26070  0.03406  1.0000 -0.5144440246
O   O59       1.0  0.73930  0.06950  0.03406  1.0000 -0.5144440246
O   O60       1.0  0.93050  0.66980  0.03406  1.0000 -0.5144440246
O   O61       1.0  0.14600  0.59110  0.60326  1.0000 -0.5144440246
O   O62       1.0  0.40890  0.55490  0.60326  1.0000 -0.5144440246
O   O63       1.0  0.44510  0.85400  0.60326  1.0000 -0.5144440246
O   O64       1.0  0.85400  0.40890  0.10326  1.0000 -0.5144440246
O   O65       1.0  0.59110  0.44510  0.10326  1.0000 -0.5161519757
O   O66       1.0  0.55490  0.14600  0.10326  1.0000 -0.5144440246
O   O67       1.0  0.73770  0.20320  0.85770  1.0000 -0.5161519757
O   O68       1.0  0.79680  0.53450  0.85770  1.0000 -0.5161519757
O   O69       1.0  0.46550  0.26230  0.85770  1.0000 -0.5161519757
O   O70       1.0  0.26230  0.79680  0.35770  1.0000 -0.5161519757
O   O71       1.0  0.20320  0.46550  0.35770  1.0000 -0.5161519757
O   O72       1.0  0.53450  0.73770  0.35770  1.0000 -0.5161519757
