# DDEC6 charges by PACMAN v1.1 (https://github.com/mtap-research/PACMAN-charge/)
data_2023[Zn][lvt]3[ASR]1
_chemical_formula_sum              "Zn4 H36 C68 O16"
_cell_length_a       19.4105
_cell_length_b       19.4105
_cell_length_c       19.4105
_cell_angle_alpha    152.471
_cell_angle_beta     111.869
_cell_angle_gamma    74.9731

_symmetry_space_group_name_H-M    "P 1"
_symmetry_Int_Tables_number       1

loop_
  _symmetry_equiv_pos_as_xyz
  'x, y, z'

loop_
  _atom_site_type_symbol
  _atom_site_label
  _atom_site_symmetry_multiplicity
  _atom_site_fract_x
  _atom_site_fract_y
  _atom_site_fract_z
  _atom_site_occupancy
  _atom_site_charge
Zn  Zn1       1.0  0.48587  0.63925  0.15338  1.0000 0.9485949542
Zn  Zn2       1.0  0.51413  0.36075  0.84662  1.0000 0.9485949542
Zn  Zn3       1.0  0.98587  0.83249  0.84662  1.0000 0.9485949542
Zn  Zn4       1.0  0.01413  0.16751  0.15338  1.0000 0.9485949542
H   H1        1.0  0.90953  0.87029  0.27982  1.0000 0.1174262535
H   H2        1.0  0.40953  0.12971  0.03924  1.0000 0.1174262535
H   H3        1.0  0.09047  0.12971  0.72018  1.0000 0.1174262535
H   H4        1.0  0.59047  0.87029  0.96076  1.0000 0.1174262535
H   H5        1.0  0.83415  0.01227  0.56386  1.0000 0.114474471
H   H6        1.0  0.55159  0.98773  0.82188  1.0000 0.114474471
H   H7        1.0  0.94841  0.77029  0.43614  1.0000 0.114474471
H   H8        1.0  0.66585  0.22971  0.17812  1.0000 0.1174262535
H   H9        1.0  0.16585  0.98773  0.43614  1.0000 0.114474471
H   H10       1.0  0.44841  0.01227  0.17812  1.0000 0.114474471
H   H11       1.0  0.05159  0.22971  0.56386  1.0000 0.114474471
H   H12       1.0  0.33415  0.77029  0.82188  1.0000 0.114474471
H   H13       1.0  0.71347  0.89586  0.44673  1.0000 0.1272729145
H   H14       1.0  0.55087  0.10414  0.81761  1.0000 0.1272729145
H   H15       1.0  0.94913  0.76674  0.55327  1.0000 0.1272729145
H   H16       1.0  0.78653  0.23326  0.18239  1.0000 0.1272729145
H   H17       1.0  0.28653  0.10414  0.55327  1.0000 0.1272729145
H   H18       1.0  0.44913  0.89586  0.18239  1.0000 0.1272729145
H   H19       1.0  0.05087  0.23326  0.44673  1.0000 0.1272729145
H   H20       1.0  0.21347  0.76674  0.81761  1.0000 0.1272729145
H   H21       1.0  0.73997  0.52833  0.01876  1.0000 0.1272729145
H   H22       1.0  0.49043  0.47167  0.21164  1.0000 0.1272729145
H   H23       1.0  0.00957  0.22121  0.98124  1.0000 0.1272729145
H   H24       1.0  0.76003  0.77879  0.78836  1.0000 0.1272729145
H   H25       1.0  0.26003  0.47167  0.98124  1.0000 0.1272729145
H   H26       1.0  0.50957  0.52833  0.78836  1.0000 0.1272729145
H   H27       1.0  0.99043  0.77879  0.01876  1.0000 0.1272729145
H   H28       1.0  0.23997  0.22121  0.21164  1.0000 0.1272729145
H   H29       1.0  0.86006  0.64853  0.13835  1.0000 0.114474471
H   H30       1.0  0.48982  0.35147  0.21153  1.0000 0.114474471
H   H31       1.0  0.01018  0.22171  0.86165  1.0000 0.114474471
H   H32       1.0  0.63994  0.77829  0.78847  1.0000 0.114474471
H   H33       1.0  0.13994  0.35147  0.86165  1.0000 0.114474471
H   H34       1.0  0.51018  0.64853  0.78847  1.0000 0.114474471
H   H35       1.0  0.98982  0.77829  0.13835  1.0000 0.114474471
H   H36       1.0  0.36006  0.22171  0.21153  1.0000 0.114474471
C   C1        1.0  0.94650  0.92510  0.37160  1.0000 -0.1924101222
C   C2        1.0  0.44650  0.07490  0.02140  1.0000 -0.1924101222
C   C3        1.0  0.05350  0.07490  0.62840  1.0000 -0.1924101222
C   C4        1.0  0.55350  0.92510  0.97860  1.0000 -0.1924101222
C   C5        1.0  0.93215  0.92285  0.43450  1.0000 0.0256393257
C   C6        1.0  0.51165  0.07715  0.00930  1.0000 0.0256393257
C   C7        1.0  0.98835  0.99765  0.56550  1.0000 0.0256393257
C   C8        1.0  0.56785  0.00235  0.99070  1.0000 0.0256393257
C   C9        1.0  0.06785  0.07715  0.56550  1.0000 0.0256393257
C   C10       1.0  0.48835  0.92285  0.99070  1.0000 0.0256393257
C   C11       1.0  0.01165  0.00235  0.43450  1.0000 0.0256393257
C   C12       1.0  0.43215  0.99765  0.00930  1.0000 0.0256393257
C   C13       1.0  0.85802  0.84382  0.36200  1.0000 0.0695257973
C   C14       1.0  0.51818  0.15618  0.01420  1.0000 0.0695257973
C   C15       1.0  0.98182  0.99602  0.63800  1.0000 0.0695257973
C   C16       1.0  0.64198  0.00398  0.98580  1.0000 0.0695257973
C   C17       1.0  0.14198  0.15618  0.63800  1.0000 0.0695257973
C   C18       1.0  0.48182  0.84382  0.98580  1.0000 0.0695257973
C   C19       1.0  0.01818  0.00398  0.36200  1.0000 0.0695257973
C   C20       1.0  0.35802  0.99602  0.01420  1.0000 0.0695257973
C   C21       1.0  0.81481  0.91451  0.45270  1.0000 -0.154521722
C   C22       1.0  0.53819  0.08549  0.90030  1.0000 -0.1565282229
C   C23       1.0  0.96181  0.86211  0.54730  1.0000 -0.154521722
C   C24       1.0  0.68519  0.13789  0.09970  1.0000 -0.154521722
C   C25       1.0  0.18519  0.08549  0.54730  1.0000 -0.154521722
C   C26       1.0  0.46181  0.91451  0.09970  1.0000 -0.154521722
C   C27       1.0  0.03819  0.13789  0.45270  1.0000 -0.1565282229
C   C28       1.0  0.31481  0.86211  0.90030  1.0000 -0.154521722
C   C29       1.0  0.74342  0.84462  0.38340  1.0000 -0.0907667473
C   C30       1.0  0.53878  0.15538  0.89880  1.0000 -0.0907667473
C   C31       1.0  0.96122  0.86002  0.61660  1.0000 -0.0907667473
C   C32       1.0  0.75658  0.13998  0.10120  1.0000 -0.0907667473
C   C33       1.0  0.25658  0.15538  0.61660  1.0000 -0.0907667473
C   C34       1.0  0.46122  0.84462  0.10120  1.0000 -0.0907667473
C   C35       1.0  0.03878  0.13998  0.38340  1.0000 -0.0907667473
C   C36       1.0  0.24342  0.86002  0.89880  1.0000 -0.0907667473
C   C37       1.0  0.71569  0.69949  0.22120  1.0000 -0.0313460087
C   C38       1.0  0.52171  0.30051  0.01620  1.0000 -0.0313460087
C   C39       1.0  0.97829  0.99449  0.77880  1.0000 -0.0313460087
C   C40       1.0  0.78431  0.00551  0.98380  1.0000 -0.0313460087
C   C41       1.0  0.28431  0.30051  0.77880  1.0000 -0.0313460087
C   C42       1.0  0.47829  0.69949  0.98380  1.0000 -0.0313460087
C   C43       1.0  0.02171  0.00551  0.22120  1.0000 -0.0313460087
C   C44       1.0  0.21569  0.99449  0.01620  1.0000 -0.0313460087
C   C45       1.0  0.75879  0.62699  0.12980  1.0000 -0.0907667473
C   C46       1.0  0.50281  0.37301  0.13180  1.0000 -0.0907667473
C   C47       1.0  0.99719  0.12899  0.87020  1.0000 -0.0950920168
C   C48       1.0  0.74121  0.87101  0.86820  1.0000 -0.0907667473
C   C49       1.0  0.24121  0.37301  0.87020  1.0000 -0.0907667473
C   C50       1.0  0.49719  0.62699  0.86820  1.0000 -0.0907667473
C   C51       1.0  0.00281  0.87101  0.12980  1.0000 -0.0907667473
C   C52       1.0  0.25879  0.12899  0.13180  1.0000 -0.0950920168
C   C53       1.0  0.83006  0.69956  0.20150  1.0000 -0.1565282229
C   C54       1.0  0.50194  0.30044  0.13050  1.0000 -0.1565282229
C   C55       1.0  0.99806  0.12856  0.79850  1.0000 -0.1565282229
C   C56       1.0  0.66994  0.87144  0.86950  1.0000 -0.1565282229
C   C57       1.0  0.16994  0.30044  0.79850  1.0000 -0.1565282229
C   C58       1.0  0.49806  0.69956  0.86950  1.0000 -0.1565282229
C   C59       1.0  0.00194  0.87144  0.20150  1.0000 -0.1565282229
C   C60       1.0  0.33006  0.12856  0.13050  1.0000 -0.1565282229
C   C61       1.0  0.63759  0.62259  0.14380  1.0000 0.5941981789
C   C62       1.0  0.52121  0.37741  0.01500  1.0000 0.5941981789
C   C63       1.0  0.97879  0.99379  0.85620  1.0000 0.5941981789
C   C64       1.0  0.86241  0.00621  0.98500  1.0000 0.5941981789
C   C65       1.0  0.36241  0.37741  0.85620  1.0000 0.5941981789
C   C66       1.0  0.47879  0.62259  0.98500  1.0000 0.5941981789
C   C67       1.0  0.02121  0.00621  0.14380  1.0000 0.5941981789
C   C68       1.0  0.13759  0.99379  0.01500  1.0000 0.5941981789
O   O1        1.0  0.59744  0.70371  0.23333  1.0000 -0.5471274216
O   O2        1.0  0.52962  0.29629  0.89373  1.0000 -0.5471274216
O   O3        1.0  0.97038  0.86411  0.76667  1.0000 -0.5471274216
O   O4        1.0  0.90256  0.13589  0.10627  1.0000 -0.5471274216
O   O5        1.0  0.40256  0.29629  0.76667  1.0000 -0.5471274216
O   O6        1.0  0.47038  0.70371  0.10627  1.0000 -0.5471274216
O   O7        1.0  0.02962  0.13589  0.23333  1.0000 -0.5471274216
O   O8        1.0  0.09744  0.86411  0.89373  1.0000 -0.5471274216
O   O9        1.0  0.61758  0.48936  0.99942  1.0000 -0.537392776
O   O10       1.0  0.51006  0.51064  0.12822  1.0000 -0.537392776
O   O11       1.0  0.98994  0.11816  0.00058  1.0000 -0.537392776
O   O12       1.0  0.88242  0.88184  0.87178  1.0000 -0.537392776
O   O13       1.0  0.38242  0.51064  0.00058  1.0000 -0.537392776
O   O14       1.0  0.48994  0.48936  0.87178  1.0000 -0.537392776
O   O15       1.0  0.01006  0.88184  0.99942  1.0000 -0.537392776
O   O16       1.0  0.11758  0.11816  0.12822  1.0000 -0.537392776
