# DDEC6 charges by PACMAN v1.1 (https://github.com/mtap-research/PACMAN-charge/)
data_2023[ZnTi][nan]3[ASR]12
_chemical_formula_sum              "Ti8 Zn6 H246 C384 N30 O72"
_cell_length_a       20.9792
_cell_length_b       20.9792
_cell_length_c       30.6136
_cell_angle_alpha    90
_cell_angle_beta     90
_cell_angle_gamma    120

_symmetry_space_group_name_H-M    "P 1"
_symmetry_Int_Tables_number       1

loop_
  _symmetry_equiv_pos_as_xyz
  'x, y, z'

loop_
  _atom_site_type_symbol
  _atom_site_label
  _atom_site_symmetry_multiplicity
  _atom_site_fract_x
  _atom_site_fract_y
  _atom_site_fract_z
  _atom_site_occupancy
  _atom_site_charge
Ti  Ti1       1.0  0.48999  0.05518  0.36120  1.0000 1.9025707708
Ti  Ti2       1.0  0.94482  0.43481  0.36120  1.0000 1.9025707708
Ti  Ti3       1.0  0.56519  0.51001  0.36120  1.0000 1.9025707708
Ti  Ti4       1.0  0.51001  0.94482  0.86120  1.0000 1.9025707708
Ti  Ti5       1.0  0.05518  0.56519  0.86120  1.0000 1.9025707708
Ti  Ti6       1.0  0.43481  0.48999  0.86120  1.0000 1.9025707708
Ti  Ti7       1.0  0.66667  0.33333  0.60358  1.0000 1.8886014488
Ti  Ti8       1.0  0.33333  0.66667  0.10358  1.0000 1.8886014488
Zn  Zn1       1.0  0.27213  0.84145  0.35337  1.0000 0.7329718736
Zn  Zn2       1.0  0.15855  0.43068  0.35337  1.0000 0.7329718736
Zn  Zn3       1.0  0.56932  0.72787  0.35337  1.0000 0.7329718736
Zn  Zn4       1.0  0.72787  0.15855  0.85337  1.0000 0.7329718736
Zn  Zn5       1.0  0.84145  0.56932  0.85337  1.0000 0.7329718736
Zn  Zn6       1.0  0.43068  0.27213  0.85337  1.0000 0.7329718736
H   H1        1.0  0.36242  0.80622  0.33318  1.0000 0.301446211
H   H2        1.0  0.19378  0.55620  0.33318  1.0000 0.301446211
H   H3        1.0  0.44380  0.63758  0.33318  1.0000 0.301446211
H   H4        1.0  0.63758  0.19378  0.83318  1.0000 0.301446211
H   H5        1.0  0.80622  0.44380  0.83318  1.0000 0.301446211
H   H6        1.0  0.55620  0.36242  0.83318  1.0000 0.301446211
H   H7        1.0  0.40089  0.88597  0.33658  1.0000 0.301446211
H   H8        1.0  0.11403  0.51492  0.33658  1.0000 0.301446211
H   H9        1.0  0.48508  0.59911  0.33658  1.0000 0.301446211
H   H10       1.0  0.59911  0.11403  0.83658  1.0000 0.301446211
H   H11       1.0  0.88597  0.48508  0.83658  1.0000 0.301446211
H   H12       1.0  0.51492  0.40089  0.83658  1.0000 0.301446211
H   H13       1.0  0.35842  0.85004  0.29761  1.0000 0.3147412456
H   H14       1.0  0.14996  0.50838  0.29761  1.0000 0.3147412456
H   H15       1.0  0.49162  0.64158  0.29761  1.0000 0.3147412456
H   H16       1.0  0.64158  0.14996  0.79761  1.0000 0.3147412456
H   H17       1.0  0.85004  0.49162  0.79761  1.0000 0.3147412456
H   H18       1.0  0.50838  0.35842  0.79761  1.0000 0.3147412456
H   H19       1.0  0.31358  0.91893  0.44343  1.0000 0.1311658408
H   H20       1.0  0.08107  0.39465  0.44343  1.0000 0.1311658408
H   H21       1.0  0.60535  0.68642  0.44343  1.0000 0.1311658408
H   H22       1.0  0.68642  0.08107  0.94343  1.0000 0.1311658408
H   H23       1.0  0.91893  0.60535  0.94343  1.0000 0.1311658408
H   H24       1.0  0.39465  0.31358  0.94343  1.0000 0.1311658408
H   H25       1.0  0.28923  0.03219  0.45398  1.0000 0.1103938555
H   H26       1.0  0.96781  0.25704  0.45398  1.0000 0.1103938555
H   H27       1.0  0.74296  0.71077  0.45398  1.0000 0.1103938555
H   H28       1.0  0.71077  0.96781  0.95398  1.0000 0.1103938555
H   H29       1.0  0.03219  0.74296  0.95398  1.0000 0.1103938555
H   H30       1.0  0.25704  0.28923  0.95398  1.0000 0.1103938555
H   H31       1.0  0.51640  0.25001  0.33996  1.0000 0.1311658408
H   H32       1.0  0.74999  0.26639  0.33996  1.0000 0.1311658408
H   H33       1.0  0.73361  0.48360  0.33996  1.0000 0.1311658408
H   H34       1.0  0.48360  0.74999  0.83996  1.0000 0.1311658408
H   H35       1.0  0.25001  0.73361  0.83996  1.0000 0.1311658408
H   H36       1.0  0.26639  0.51640  0.83996  1.0000 0.1311658408
H   H37       1.0  0.48679  0.29648  0.36312  1.0000 0.1311658408
H   H38       1.0  0.70352  0.19031  0.36312  1.0000 0.1311658408
H   H39       1.0  0.80969  0.51321  0.36312  1.0000 0.1311658408
H   H40       1.0  0.51321  0.70352  0.86312  1.0000 0.1311658408
H   H41       1.0  0.29648  0.80969  0.86312  1.0000 0.1311658408
H   H42       1.0  0.19031  0.48679  0.86312  1.0000 0.1311658408
H   H43       1.0  0.36001  0.17488  0.76835  1.0000 0.1311658408
H   H44       1.0  0.82512  0.18513  0.76835  1.0000 0.1311658408
H   H45       1.0  0.81487  0.63999  0.76835  1.0000 0.1311658408
H   H46       1.0  0.63999  0.82512  0.26835  1.0000 0.1311658408
H   H47       1.0  0.17488  0.81487  0.26835  1.0000 0.1311658408
H   H48       1.0  0.18513  0.36001  0.26835  1.0000 0.1311658408
H   H49       1.0  0.59798  0.19520  0.50632  1.0000 0.1311658408
H   H50       1.0  0.80480  0.40278  0.50632  1.0000 0.1311658408
H   H51       1.0  0.59722  0.40202  0.50632  1.0000 0.1311658408
H   H52       1.0  0.40202  0.80480  0.00632  1.0000 0.1311658408
H   H53       1.0  0.19520  0.59722  0.00632  1.0000 0.1311658408
H   H54       1.0  0.40278  0.59798  0.00632  1.0000 0.1311658408
H   H55       1.0  0.54005  0.17553  0.46897  1.0000 0.1311658408
H   H56       1.0  0.82447  0.36452  0.46897  1.0000 0.1311658408
H   H57       1.0  0.63548  0.45995  0.46897  1.0000 0.1311658408
H   H58       1.0  0.45995  0.82447  0.96897  1.0000 0.1311658408
H   H59       1.0  0.17553  0.63548  0.96897  1.0000 0.1311658408
H   H60       1.0  0.36452  0.54005  0.96897  1.0000 0.1311658408
H   H61       1.0  0.41396  0.09151  0.46211  1.0000 0.1198664797
H   H62       1.0  0.90849  0.32245  0.46211  1.0000 0.1198664797
H   H63       1.0  0.67755  0.58604  0.46211  1.0000 0.1198664797
H   H64       1.0  0.58604  0.90849  0.96211  1.0000 0.1198664797
H   H65       1.0  0.09151  0.67755  0.96211  1.0000 0.1198664797
H   H66       1.0  0.32245  0.41396  0.96211  1.0000 0.1198664797
H   H67       1.0  0.27554  0.31429  0.34463  1.0000 0.1103938555
H   H68       1.0  0.68571  0.96125  0.34463  1.0000 0.1103938555
H   H69       1.0  0.03875  0.72446  0.34463  1.0000 0.1103938555
H   H70       1.0  0.72446  0.68571  0.84463  1.0000 0.1103938555
H   H71       1.0  0.31429  0.03875  0.84463  1.0000 0.1103938555
H   H72       1.0  0.96125  0.27554  0.84463  1.0000 0.1103938555
H   H73       1.0  0.58840  0.13758  0.57616  1.0000 0.1311658408
H   H74       1.0  0.86242  0.45082  0.57616  1.0000 0.1311658408
H   H75       1.0  0.54918  0.41160  0.57616  1.0000 0.1311658408
H   H76       1.0  0.41160  0.86242  0.07616  1.0000 0.1311658408
H   H77       1.0  0.13758  0.54918  0.07616  1.0000 0.1311658408
H   H78       1.0  0.45082  0.58840  0.07616  1.0000 0.1311658408
H   H79       1.0  0.47603  0.08017  0.71169  1.0000 0.1482846414
H   H80       1.0  0.91983  0.39586  0.71169  1.0000 0.1482846414
H   H81       1.0  0.60414  0.52397  0.71169  1.0000 0.1482846414
H   H82       1.0  0.52397  0.91983  0.21169  1.0000 0.1482846414
H   H83       1.0  0.08017  0.60414  0.21169  1.0000 0.1482846414
H   H84       1.0  0.39586  0.47603  0.21169  1.0000 0.1482846414
H   H85       1.0  0.46399  0.06632  0.79678  1.0000 0.1482846414
H   H86       1.0  0.93368  0.39767  0.79678  1.0000 0.1482846414
H   H87       1.0  0.60233  0.53601  0.79678  1.0000 0.1482846414
H   H88       1.0  0.53601  0.93368  0.29678  1.0000 0.1482846414
H   H89       1.0  0.06632  0.60233  0.29678  1.0000 0.1482846414
H   H90       1.0  0.39767  0.46399  0.29678  1.0000 0.1482846414
H   H91       1.0  0.37493  0.17728  0.61669  1.0000 0.1198664797
H   H92       1.0  0.82272  0.19765  0.61669  1.0000 0.1198664797
H   H93       1.0  0.80235  0.62507  0.61669  1.0000 0.1198664797
H   H94       1.0  0.62507  0.82272  0.11669  1.0000 0.1198664797
H   H95       1.0  0.17728  0.80235  0.11669  1.0000 0.1198664797
H   H96       1.0  0.19765  0.37493  0.11669  1.0000 0.1198664797
H   H97       1.0  0.52133  0.42329  0.19628  1.0000 0.1198664797
H   H98       1.0  0.57671  0.09804  0.19628  1.0000 0.1198664797
H   H99       1.0  0.90196  0.47867  0.19628  1.0000 0.1198664797
H   H100      1.0  0.47867  0.57671  0.69628  1.0000 0.1198664797
H   H101      1.0  0.42329  0.90196  0.69628  1.0000 0.1198664797
H   H102      1.0  0.09804  0.52133  0.69628  1.0000 0.1198664797
H   H103      1.0  0.21338  0.02948  0.51101  1.0000 0.1198664797
H   H104      1.0  0.97052  0.18390  0.51101  1.0000 0.1198664797
H   H105      1.0  0.81610  0.78662  0.51101  1.0000 0.1198664797
H   H106      1.0  0.78662  0.97052  0.01101  1.0000 0.1198664797
H   H107      1.0  0.02948  0.81610  0.01101  1.0000 0.1198664797
H   H108      1.0  0.18390  0.21338  0.01101  1.0000 0.1198664797
H   H109      1.0  0.17078  0.82352  0.55363  1.0000 0.1311658408
H   H110      1.0  0.17648  0.34726  0.55363  1.0000 0.1311658408
H   H111      1.0  0.65274  0.82922  0.55363  1.0000 0.1311658408
H   H112      1.0  0.82922  0.17648  0.05363  1.0000 0.1311658408
H   H113      1.0  0.82352  0.65274  0.05363  1.0000 0.1311658408
H   H114      1.0  0.34726  0.17078  0.05363  1.0000 0.1311658408
H   H115      1.0  0.48920  0.88636  0.49073  1.0000 0.1103938555
H   H116      1.0  0.11364  0.60284  0.49073  1.0000 0.1103938555
H   H117      1.0  0.39716  0.51080  0.49073  1.0000 0.1103938555
H   H118      1.0  0.51080  0.11364  0.99073  1.0000 0.1103938555
H   H119      1.0  0.88636  0.39716  0.99073  1.0000 0.1103938555
H   H120      1.0  0.60284  0.48920  0.99073  1.0000 0.1103938555
H   H121      1.0  0.37909  0.94561  0.51345  1.0000 0.1198664797
H   H122      1.0  0.05439  0.43348  0.51345  1.0000 0.1198664797
H   H123      1.0  0.56652  0.62091  0.51345  1.0000 0.1198664797
H   H124      1.0  0.62091  0.05439  0.01345  1.0000 0.1198664797
H   H125      1.0  0.94561  0.56652  0.01345  1.0000 0.1198664797
H   H126      1.0  0.43348  0.37909  0.01345  1.0000 0.1198664797
H   H127      1.0  0.38252  0.31200  0.34188  1.0000 0.1198664797
H   H128      1.0  0.68800  0.07052  0.34188  1.0000 0.1198664797
H   H129      1.0  0.92948  0.61748  0.34188  1.0000 0.1198664797
H   H130      1.0  0.61748  0.68800  0.84188  1.0000 0.1198664797
H   H131      1.0  0.31200  0.92948  0.84188  1.0000 0.1198664797
H   H132      1.0  0.07052  0.38252  0.84188  1.0000 0.1198664797
H   H133      1.0  0.41081  0.00706  0.57950  1.0000 0.1198664797
H   H134      1.0  0.99294  0.40375  0.57950  1.0000 0.1198664797
H   H135      1.0  0.59625  0.58919  0.57950  1.0000 0.1103938555
H   H136      1.0  0.58919  0.99294  0.07950  1.0000 0.1103938555
H   H137      1.0  0.00706  0.59625  0.07950  1.0000 0.1103938555
H   H138      1.0  0.40375  0.41081  0.07950  1.0000 0.1103938555
H   H139      1.0  0.59840  0.07657  0.63579  1.0000 0.1311658408
H   H140      1.0  0.92343  0.52183  0.63579  1.0000 0.1311658408
H   H141      1.0  0.47817  0.40160  0.63579  1.0000 0.1311658408
H   H142      1.0  0.40160  0.92343  0.13579  1.0000 0.1311658408
H   H143      1.0  0.07657  0.47817  0.13579  1.0000 0.1311658408
H   H144      1.0  0.52183  0.59840  0.13579  1.0000 0.1311658408
H   H145      1.0  0.48835  0.15534  0.85486  1.0000 0.1357278269
H   H146      1.0  0.84466  0.33301  0.85486  1.0000 0.1357278269
H   H147      1.0  0.66699  0.51165  0.85486  1.0000 0.1357278269
H   H148      1.0  0.51165  0.84466  0.35486  1.0000 0.1357278269
H   H149      1.0  0.15534  0.66699  0.35486  1.0000 0.1357278269
H   H150      1.0  0.33301  0.48835  0.35486  1.0000 0.1357278269
H   H151      1.0  0.51873  0.88871  0.56853  1.0000 0.1103938555
H   H152      1.0  0.11129  0.63002  0.56853  1.0000 0.1103938555
H   H153      1.0  0.36998  0.48127  0.56853  1.0000 0.1103938555
H   H154      1.0  0.48127  0.11129  0.06853  1.0000 0.1103938555
H   H155      1.0  0.88871  0.36998  0.06853  1.0000 0.1103938555
H   H156      1.0  0.63002  0.51873  0.06853  1.0000 0.1103938555
H   H157      1.0  0.20283  0.88426  0.61981  1.0000 0.1198664797
H   H158      1.0  0.11574  0.31857  0.61981  1.0000 0.1198664797
H   H159      1.0  0.68143  0.79717  0.61981  1.0000 0.1198664797
H   H160      1.0  0.79717  0.11574  0.11981  1.0000 0.1198664797
H   H161      1.0  0.88426  0.68143  0.11981  1.0000 0.1198664797
H   H162      1.0  0.31857  0.20283  0.11981  1.0000 0.1198664797
H   H163      1.0  0.22110  0.02287  0.34722  1.0000 0.1198664797
H   H164      1.0  0.97713  0.19823  0.34722  1.0000 0.1198664797
H   H165      1.0  0.80177  0.77890  0.34722  1.0000 0.1198664797
H   H166      1.0  0.77890  0.97713  0.84722  1.0000 0.1198664797
H   H167      1.0  0.02287  0.80177  0.84722  1.0000 0.1198664797
H   H168      1.0  0.19823  0.22110  0.84722  1.0000 0.1198664797
H   H169      1.0  0.46701  0.17575  0.27281  1.0000 0.1198664797
H   H170      1.0  0.82425  0.29126  0.27281  1.0000 0.1198664797
H   H171      1.0  0.70874  0.53299  0.27281  1.0000 0.1198664797
H   H172      1.0  0.53299  0.82425  0.77281  1.0000 0.1198664797
H   H173      1.0  0.17575  0.70874  0.77281  1.0000 0.1198664797
H   H174      1.0  0.29126  0.46701  0.77281  1.0000 0.1198664797
H   H175      1.0  0.55948  0.95159  0.63279  1.0000 0.1198664797
H   H176      1.0  0.04841  0.60789  0.63279  1.0000 0.1198664797
H   H177      1.0  0.39211  0.44052  0.63279  1.0000 0.1198664797
H   H178      1.0  0.44052  0.04841  0.13279  1.0000 0.1198664797
H   H179      1.0  0.95159  0.39211  0.13279  1.0000 0.1198664797
H   H180      1.0  0.60789  0.55948  0.13279  1.0000 0.1198664797
H   H181      1.0  0.26499  0.09245  0.57403  1.0000 0.1198664797
H   H182      1.0  0.90755  0.17254  0.57403  1.0000 0.1198664797
H   H183      1.0  0.82746  0.73501  0.57403  1.0000 0.1198664797
H   H184      1.0  0.73501  0.90755  0.07403  1.0000 0.1198664797
H   H185      1.0  0.09245  0.82746  0.07403  1.0000 0.1198664797
H   H186      1.0  0.17254  0.26499  0.07403  1.0000 0.1198664797
H   H187      1.0  0.46029  0.12963  0.20413  1.0000 0.1198664797
H   H188      1.0  0.87037  0.33066  0.20413  1.0000 0.1198664797
H   H189      1.0  0.66934  0.53971  0.20413  1.0000 0.1198664797
H   H190      1.0  0.53971  0.87037  0.70413  1.0000 0.1198664797
H   H191      1.0  0.12963  0.66934  0.70413  1.0000 0.1198664797
H   H192      1.0  0.33066  0.46029  0.70413  1.0000 0.1198664797
H   H193      1.0  0.49550  0.31720  0.14953  1.0000 0.1198664797
H   H194      1.0  0.68280  0.17830  0.14953  1.0000 0.1198664797
H   H195      1.0  0.82170  0.50450  0.14953  1.0000 0.1198664797
H   H196      1.0  0.50450  0.68280  0.64953  1.0000 0.1198664797
H   H197      1.0  0.31720  0.82170  0.64953  1.0000 0.1198664797
H   H198      1.0  0.17830  0.49550  0.64953  1.0000 0.1198664797
H   H199      1.0  0.43880  0.01710  0.64662  1.0000 0.1198664797
H   H200      1.0  0.98290  0.42170  0.64662  1.0000 0.1198664797
H   H201      1.0  0.57830  0.56120  0.64662  1.0000 0.1198664797
H   H202      1.0  0.56120  0.98290  0.14662  1.0000 0.1198664797
H   H203      1.0  0.01710  0.57830  0.14662  1.0000 0.1198664797
H   H204      1.0  0.42170  0.43880  0.14662  1.0000 0.1198664797
H   H205      1.0  0.47197  0.19937  0.14237  1.0000 0.1103938555
H   H206      1.0  0.80063  0.27260  0.14237  1.0000 0.1103938555
H   H207      1.0  0.72740  0.52803  0.14237  1.0000 0.1103938555
H   H208      1.0  0.52803  0.80063  0.64237  1.0000 0.1103938555
H   H209      1.0  0.19937  0.72740  0.64237  1.0000 0.1103938555
H   H210      1.0  0.27260  0.47197  0.64237  1.0000 0.1103938555
H   H211      1.0  0.23537  0.98249  0.66531  1.0000 0.1198664797
H   H212      1.0  0.01751  0.25288  0.66531  1.0000 0.1198664797
H   H213      1.0  0.74712  0.76463  0.66531  1.0000 0.1198664797
H   H214      1.0  0.76463  0.01751  0.16531  1.0000 0.1198664797
H   H215      1.0  0.98249  0.74712  0.16531  1.0000 0.1198664797
H   H216      1.0  0.25288  0.23537  0.16531  1.0000 0.1198664797
H   H217      1.0  0.16239  0.20723  0.34551  1.0000 0.1198664797
H   H218      1.0  0.79277  0.95516  0.34551  1.0000 0.1198664797
H   H219      1.0  0.04484  0.83761  0.34551  1.0000 0.1198664797
H   H220      1.0  0.83761  0.79277  0.84551  1.0000 0.1198664797
H   H221      1.0  0.20723  0.04484  0.84551  1.0000 0.1198664797
H   H222      1.0  0.95516  0.16239  0.84551  1.0000 0.1198664797
H   H223      1.0  0.15738  0.09453  0.34739  1.0000 0.1198664797
H   H224      1.0  0.90547  0.06285  0.34739  1.0000 0.1198664797
H   H225      1.0  0.93715  0.84262  0.34739  1.0000 0.1198664797
H   H226      1.0  0.84262  0.90547  0.84739  1.0000 0.1198664797
H   H227      1.0  0.09453  0.93715  0.84739  1.0000 0.1198664797
H   H228      1.0  0.06285  0.15738  0.84739  1.0000 0.1198664797
H   H229      1.0  0.18744  0.70818  0.42398  1.0000 0.1311658408
H   H230      1.0  0.29182  0.47926  0.42398  1.0000 0.1311658408
H   H231      1.0  0.52074  0.81256  0.42398  1.0000 0.1311658408
H   H232      1.0  0.81256  0.29182  0.92398  1.0000 0.1311658408
H   H233      1.0  0.70818  0.52074  0.92398  1.0000 0.1311658408
H   H234      1.0  0.47926  0.18744  0.92398  1.0000 0.1311658408
H   H235      1.0  0.27274  0.04391  0.73233  1.0000 0.1311658408
H   H236      1.0  0.95609  0.22883  0.73233  1.0000 0.1311658408
H   H237      1.0  0.77117  0.72726  0.73233  1.0000 0.1311658408
H   H238      1.0  0.72726  0.95609  0.23233  1.0000 0.1311658408
H   H239      1.0  0.04391  0.77117  0.23233  1.0000 0.1311658408
H   H240      1.0  0.22883  0.27274  0.23233  1.0000 0.1311658408
H   H241      1.0  0.19289  0.72991  0.50292  1.0000 0.1311658408
H   H242      1.0  0.27009  0.46298  0.50292  1.0000 0.1311658408
H   H243      1.0  0.53702  0.80711  0.50292  1.0000 0.1311658408
H   H244      1.0  0.80711  0.27009  0.00292  1.0000 0.1311658408
H   H245      1.0  0.72991  0.53702  0.00292  1.0000 0.1311658408
H   H246      1.0  0.46298  0.19289  0.00292  1.0000 0.1311658408
C   C1        1.0  0.47620  0.92803  0.41282  1.0000 0.5905260112
C   C2        1.0  0.07197  0.54817  0.41282  1.0000 0.5905260112
C   C3        1.0  0.45183  0.52380  0.41282  1.0000 0.5905260112
C   C4        1.0  0.52380  0.07197  0.91282  1.0000 0.5905260112
C   C5        1.0  0.92803  0.45183  0.91282  1.0000 0.5905260112
C   C6        1.0  0.54817  0.47620  0.91282  1.0000 0.5905260112
C   C7        1.0  0.49800  0.97080  0.45440  1.0000 -0.1686799261
C   C8        1.0  0.02920  0.52720  0.45440  1.0000 -0.1686799261
C   C9        1.0  0.47280  0.50200  0.45440  1.0000 -0.1686799261
C   C10       1.0  0.50200  0.02920  0.95440  1.0000 -0.1686799261
C   C11       1.0  0.97080  0.47280  0.95440  1.0000 -0.1686799261
C   C12       1.0  0.52720  0.49800  0.95440  1.0000 -0.1686799261
C   C13       1.0  0.41940  0.13210  0.52341  1.0000 0.0409774934
C   C14       1.0  0.86790  0.28730  0.52341  1.0000 0.0409774934
C   C15       1.0  0.71270  0.58060  0.52341  1.0000 0.0409774934
C   C16       1.0  0.58060  0.86790  0.02341  1.0000 0.0409774934
C   C17       1.0  0.13210  0.71270  0.02341  1.0000 0.0409774934
C   C18       1.0  0.28730  0.41940  0.02341  1.0000 0.0409774934
C   C19       1.0  0.48010  0.21820  0.59936  1.0000 -0.1413615732
C   C20       1.0  0.78180  0.26190  0.59936  1.0000 -0.1413615732
C   C21       1.0  0.73810  0.51990  0.59936  1.0000 -0.1413615732
C   C22       1.0  0.51990  0.78180  0.09936  1.0000 -0.1413615732
C   C23       1.0  0.21820  0.73810  0.09936  1.0000 -0.1413615732
C   C24       1.0  0.26190  0.48010  0.09936  1.0000 -0.1413615732
C   C25       1.0  0.49640  0.16974  0.52973  1.0000 -0.0212551331
C   C26       1.0  0.83026  0.32666  0.52973  1.0000 -0.0212551331
C   C27       1.0  0.67334  0.50360  0.52973  1.0000 -0.0212551331
C   C28       1.0  0.50360  0.83026  0.02973  1.0000 -0.0212551331
C   C29       1.0  0.16974  0.67334  0.02973  1.0000 -0.0212551331
C   C30       1.0  0.32666  0.49640  0.02973  1.0000 -0.0212551331
C   C31       1.0  0.28160  0.86910  0.44829  1.0000 0.1198664797
C   C32       1.0  0.13090  0.41250  0.44829  1.0000 0.1198664797
C   C33       1.0  0.58750  0.71840  0.44829  1.0000 0.1198664797
C   C34       1.0  0.71840  0.13090  0.94829  1.0000 0.1198664797
C   C35       1.0  0.86910  0.58750  0.94829  1.0000 0.1198664797
C   C36       1.0  0.41250  0.28160  0.94829  1.0000 0.1198664797
C   C37       1.0  0.32509  0.99028  0.35526  1.0000 0.6117833323
C   C38       1.0  0.00972  0.33481  0.35526  1.0000 0.6117833323
C   C39       1.0  0.66519  0.67491  0.35526  1.0000 0.6117833323
C   C40       1.0  0.67491  0.00972  0.85526  1.0000 0.6117833323
C   C41       1.0  0.99028  0.66519  0.85526  1.0000 0.6117833323
C   C42       1.0  0.33481  0.32509  0.85526  1.0000 0.6117833323
C   C43       1.0  0.52670  0.21506  0.56644  1.0000 0.2470795218
C   C44       1.0  0.78494  0.31164  0.56644  1.0000 0.2470795218
C   C45       1.0  0.68836  0.47330  0.56644  1.0000 0.2470795218
C   C46       1.0  0.47330  0.78494  0.06644  1.0000 0.2470795218
C   C47       1.0  0.21506  0.68836  0.06644  1.0000 0.2470795218
C   C48       1.0  0.31164  0.52670  0.06644  1.0000 0.2470795218
C   C49       1.0  0.49250  0.30940  0.29688  1.0000 -0.0212551331
C   C50       1.0  0.69060  0.18310  0.29688  1.0000 -0.0212551331
C   C51       1.0  0.81690  0.50750  0.29688  1.0000 -0.0212551331
C   C52       1.0  0.50750  0.69060  0.79688  1.0000 -0.0212551331
C   C53       1.0  0.30940  0.81690  0.79688  1.0000 -0.0212551331
C   C54       1.0  0.18310  0.49250  0.79688  1.0000 -0.0212551331
C   C55       1.0  0.31020  0.05650  0.48000  1.0000 -0.1019331824
C   C56       1.0  0.94350  0.25370  0.48000  1.0000 -0.1019331824
C   C57       1.0  0.74630  0.68980  0.48000  1.0000 -0.1019331824
C   C58       1.0  0.68980  0.94350  0.98000  1.0000 -0.1019331824
C   C59       1.0  0.05650  0.74630  0.98000  1.0000 -0.1019331824
C   C60       1.0  0.25370  0.31020  0.98000  1.0000 -0.1019331824
C   C61       1.0  0.27320  0.87740  0.52826  1.0000 0.1482846414
C   C62       1.0  0.12260  0.39580  0.52826  1.0000 0.1482846414
C   C63       1.0  0.60420  0.72680  0.52826  1.0000 0.1482846414
C   C64       1.0  0.72680  0.12260  0.02826  1.0000 0.1482846414
C   C65       1.0  0.87740  0.60420  0.02826  1.0000 0.1482846414
C   C66       1.0  0.39580  0.27320  0.02826  1.0000 0.1482846414
C   C67       1.0  0.47940  0.26480  0.33829  1.0000 -0.2475759544
C   C68       1.0  0.73520  0.21460  0.33829  1.0000 -0.2475759544
C   C69       1.0  0.78540  0.52060  0.33829  1.0000 -0.2475759544
C   C70       1.0  0.52060  0.73520  0.83829  1.0000 -0.2475759544
C   C71       1.0  0.26480  0.78540  0.83829  1.0000 -0.2475759544
C   C72       1.0  0.21460  0.47940  0.83829  1.0000 -0.2475759544
C   C73       1.0  0.40000  0.12880  0.34754  1.0000 0.2566166189
C   C74       1.0  0.87120  0.27120  0.34754  1.0000 0.2566166189
C   C75       1.0  0.72880  0.60000  0.34754  1.0000 0.2566166189
C   C76       1.0  0.60000  0.87120  0.84754  1.0000 0.2566166189
C   C77       1.0  0.12880  0.72880  0.84754  1.0000 0.2566166189
C   C78       1.0  0.27120  0.40000  0.84754  1.0000 0.2566166189
C   C79       1.0  0.38870  0.15910  0.78277  1.0000 0.1016487483
C   C80       1.0  0.84090  0.22960  0.78277  1.0000 0.1016487483
C   C81       1.0  0.77040  0.61130  0.78277  1.0000 0.1016487483
C   C82       1.0  0.61130  0.84090  0.28277  1.0000 0.1016487483
C   C83       1.0  0.15910  0.77040  0.28277  1.0000 0.1016487483
C   C84       1.0  0.22960  0.38870  0.28277  1.0000 0.1016487483
C   C85       1.0  0.51470  0.38405  0.29988  1.0000 0.243435156
C   C86       1.0  0.61595  0.13065  0.29988  1.0000 0.243435156
C   C87       1.0  0.86935  0.48530  0.29988  1.0000 0.243435156
C   C88       1.0  0.48530  0.61595  0.79988  1.0000 0.243435156
C   C89       1.0  0.38405  0.86935  0.79988  1.0000 0.243435156
C   C90       1.0  0.13065  0.51470  0.79988  1.0000 0.243435156
C   C91       1.0  0.54280  0.50630  0.26319  1.0000 0.5905260112
C   C92       1.0  0.49370  0.03650  0.26319  1.0000 0.5905260112
C   C93       1.0  0.96350  0.45720  0.26319  1.0000 0.5905260112
C   C94       1.0  0.45720  0.49370  0.76319  1.0000 0.5905260112
C   C95       1.0  0.50630  0.96350  0.76319  1.0000 0.5905260112
C   C96       1.0  0.03650  0.54280  0.76319  1.0000 0.5905260112
C   C97       1.0  0.49800  0.32200  0.21645  1.0000 0.0592207118
C   C98       1.0  0.67800  0.17600  0.21645  1.0000 0.0592207118
C   C99       1.0  0.82400  0.50200  0.21645  1.0000 0.0592207118
C   C100      1.0  0.50200  0.67800  0.71645  1.0000 0.0592207118
C   C101      1.0  0.32200  0.82400  0.71645  1.0000 0.0592207118
C   C102      1.0  0.17600  0.49800  0.71645  1.0000 0.0592207118
C   C103      1.0  0.54740  0.16153  0.49791  1.0000 -0.2475759544
C   C104      1.0  0.83847  0.38587  0.49791  1.0000 -0.2475759544
C   C105      1.0  0.61413  0.45260  0.49791  1.0000 -0.2475759544
C   C106      1.0  0.45260  0.83847  0.99791  1.0000 -0.2475759544
C   C107      1.0  0.16153  0.61413  0.99791  1.0000 -0.2475759544
C   C108      1.0  0.38587  0.54740  0.99791  1.0000 -0.2475759544
C   C109      1.0  0.32990  0.06270  0.34920  1.0000 -0.1595037637
C   C110      1.0  0.93730  0.26720  0.34920  1.0000 -0.1595037637
C   C111      1.0  0.73280  0.67010  0.34920  1.0000 -0.1595037637
C   C112      1.0  0.67010  0.93730  0.84920  1.0000 -0.1595037637
C   C113      1.0  0.06270  0.73280  0.84920  1.0000 -0.1595037637
C   C114      1.0  0.26720  0.32990  0.84920  1.0000 -0.1595037637
C   C115      1.0  0.51534  0.04572  0.45657  1.0000 0.2470795218
C   C116      1.0  0.95428  0.46962  0.45657  1.0000 0.2470795218
C   C117      1.0  0.53038  0.48466  0.45657  1.0000 0.2470795218
C   C118      1.0  0.48466  0.95428  0.95657  1.0000 0.2470795218
C   C119      1.0  0.04572  0.53038  0.95657  1.0000 0.2470795218
C   C120      1.0  0.46962  0.51534  0.95657  1.0000 0.2470795218
C   C121      1.0  0.40470  0.19690  0.34252  1.0000 -0.0283877669
C   C122      1.0  0.80310  0.20780  0.34252  1.0000 -0.0283877669
C   C123      1.0  0.79220  0.59530  0.34252  1.0000 -0.0283877669
C   C124      1.0  0.59530  0.80310  0.84252  1.0000 -0.0283877669
C   C125      1.0  0.19690  0.79220  0.84252  1.0000 -0.0283877669
C   C126      1.0  0.20780  0.40470  0.84252  1.0000 -0.0283877669
C   C127      1.0  0.38500  0.09270  0.48475  1.0000 -0.1315130177
C   C128      1.0  0.90730  0.29230  0.48475  1.0000 -0.1315130177
C   C129      1.0  0.70770  0.61500  0.48475  1.0000 -0.1315130177
C   C130      1.0  0.61500  0.90730  0.98475  1.0000 -0.1315130177
C   C131      1.0  0.09270  0.70770  0.98475  1.0000 -0.1315130177
C   C132      1.0  0.29230  0.38500  0.98475  1.0000 -0.1315130177
C   C133      1.0  0.54490  0.04970  0.53351  1.0000 0.0409774934
C   C134      1.0  0.95030  0.49520  0.53351  1.0000 0.0409774934
C   C135      1.0  0.50480  0.45510  0.53351  1.0000 0.0409774934
C   C136      1.0  0.45510  0.95030  0.03351  1.0000 0.0409774934
C   C137      1.0  0.04970  0.50480  0.03351  1.0000 0.0409774934
C   C138      1.0  0.49520  0.54490  0.03351  1.0000 0.0409774934
C   C139      1.0  0.52520  0.42750  0.26171  1.0000 -0.1483474264
C   C140      1.0  0.57250  0.09770  0.26171  1.0000 -0.1483474264
C   C141      1.0  0.90230  0.47480  0.26171  1.0000 -0.1483474264
C   C142      1.0  0.47480  0.57250  0.76171  1.0000 -0.1483474264
C   C143      1.0  0.42750  0.90230  0.76171  1.0000 -0.1483474264
C   C144      1.0  0.09770  0.52520  0.76171  1.0000 -0.1483474264
C   C145      1.0  0.27380  0.26910  0.34430  1.0000 -0.0912040381
C   C146      1.0  0.73090  0.00470  0.34430  1.0000 -0.0912040381
C   C147      1.0  0.99530  0.72620  0.34430  1.0000 -0.0912040381
C   C148      1.0  0.72620  0.73090  0.84430  1.0000 -0.0912040381
C   C149      1.0  0.26910  0.99530  0.84430  1.0000 -0.0912040381
C   C150      1.0  0.00470  0.27380  0.84430  1.0000 -0.0912040381
C   C151      1.0  0.57360  0.08790  0.57401  1.0000 -0.1315130177
C   C152      1.0  0.91210  0.48570  0.57401  1.0000 -0.1315130177
C   C153      1.0  0.51430  0.42640  0.57401  1.0000 -0.1315130177
C   C154      1.0  0.42640  0.91210  0.07401  1.0000 -0.1315130177
C   C155      1.0  0.08790  0.51430  0.07401  1.0000 -0.1315130177
C   C156      1.0  0.48570  0.57360  0.07401  1.0000 -0.1315130177
C   C157      1.0  0.42740  0.05990  0.70253  1.0000 -0.1413615732
C   C158      1.0  0.94010  0.36750  0.70253  1.0000 -0.1413615732
C   C159      1.0  0.63250  0.57260  0.70253  1.0000 -0.1413615732
C   C160      1.0  0.57260  0.94010  0.20253  1.0000 -0.1413615732
C   C161      1.0  0.05990  0.63250  0.20253  1.0000 -0.1413615732
C   C162      1.0  0.36750  0.42740  0.20253  1.0000 -0.1413615732
C   C163      1.0  0.44620  0.09890  0.79828  1.0000 -0.0821615689
C   C164      1.0  0.90110  0.34730  0.79828  1.0000 -0.0821615689
C   C165      1.0  0.65270  0.55380  0.79828  1.0000 -0.0821615689
C   C166      1.0  0.55380  0.90110  0.29828  1.0000 -0.0821615689
C   C167      1.0  0.09890  0.65270  0.29828  1.0000 -0.0821615689
C   C168      1.0  0.34730  0.44620  0.29828  1.0000 -0.0821615689
C   C169      1.0  0.33240  0.99190  0.64914  1.0000 0.0592207118
C   C170      1.0  0.00810  0.34050  0.64914  1.0000 0.0592207118
C   C171      1.0  0.65950  0.66760  0.64914  1.0000 0.0592207118
C   C172      1.0  0.66760  0.00810  0.14914  1.0000 0.0592207118
C   C173      1.0  0.99190  0.65950  0.14914  1.0000 0.0592207118
C   C174      1.0  0.34050  0.33240  0.14914  1.0000 0.0592207118
C   C175      1.0  0.40510  0.17680  0.59456  1.0000 -0.1483474264
C   C176      1.0  0.82320  0.22830  0.59456  1.0000 -0.1483474264
C   C177      1.0  0.77170  0.59490  0.59456  1.0000 -0.1483474264
C   C178      1.0  0.59490  0.82320  0.09456  1.0000 -0.1483474264
C   C179      1.0  0.17680  0.77170  0.09456  1.0000 -0.1483474264
C   C180      1.0  0.22830  0.40510  0.09456  1.0000 -0.1483474264
C   C181      1.0  0.48630  0.27830  0.25468  1.0000 0.0505444953
C   C182      1.0  0.72170  0.20800  0.25468  1.0000 0.0505444953
C   C183      1.0  0.79200  0.51370  0.25468  1.0000 0.0505444953
C   C184      1.0  0.51370  0.72170  0.75468  1.0000 0.0505444953
C   C185      1.0  0.27830  0.79200  0.75468  1.0000 0.0505444953
C   C186      1.0  0.20800  0.48630  0.75468  1.0000 0.0505444953
C   C187      1.0  0.30970  0.95200  0.60695  1.0000 0.0663953453
C   C188      1.0  0.04800  0.35770  0.60695  1.0000 0.0663953453
C   C189      1.0  0.64230  0.69030  0.60695  1.0000 0.0663953453
C   C190      1.0  0.69030  0.04800  0.10695  1.0000 0.0663953453
C   C191      1.0  0.95200  0.64230  0.10695  1.0000 0.0663953453
C   C192      1.0  0.35770  0.30970  0.10695  1.0000 0.0663953453
C   C193      1.0  0.37250  0.13370  0.55707  1.0000 0.0592207118
C   C194      1.0  0.86630  0.23880  0.55707  1.0000 0.0592207118
C   C195      1.0  0.76120  0.62750  0.55707  1.0000 0.0592207118
C   C196      1.0  0.62750  0.86630  0.05707  1.0000 0.0592207118
C   C197      1.0  0.13370  0.76120  0.05707  1.0000 0.0592207118
C   C198      1.0  0.23880  0.37250  0.05707  1.0000 0.0592207118
C   C199      1.0  0.33790  0.19990  0.34316  1.0000 0.0505444953
C   C200      1.0  0.80010  0.13800  0.34316  1.0000 0.0505444953
C   C201      1.0  0.86200  0.66210  0.34316  1.0000 0.0505444953
C   C202      1.0  0.66210  0.80010  0.84316  1.0000 0.0505444953
C   C203      1.0  0.19990  0.86200  0.84316  1.0000 0.0505444953
C   C204      1.0  0.13800  0.33790  0.84316  1.0000 0.0505444953
C   C205      1.0  0.51570  0.39540  0.22112  1.0000 -0.1483474264
C   C206      1.0  0.60460  0.12030  0.22112  1.0000 -0.1483474264
C   C207      1.0  0.87970  0.48430  0.22112  1.0000 -0.1483474264
C   C208      1.0  0.48430  0.60460  0.72112  1.0000 -0.1483474264
C   C209      1.0  0.39540  0.87970  0.72112  1.0000 -0.1483474264
C   C210      1.0  0.12030  0.51570  0.72112  1.0000 -0.1483474264
C   C211      1.0  0.52550  0.97350  0.53184  1.0000 0.0505444953
C   C212      1.0  0.02650  0.55200  0.53184  1.0000 0.0505444953
C   C213      1.0  0.44800  0.47450  0.53184  1.0000 0.0505444953
C   C214      1.0  0.47450  0.02650  0.03184  1.0000 0.0505444953
C   C215      1.0  0.97350  0.44800  0.03184  1.0000 0.0505444953
C   C216      1.0  0.55200  0.52550  0.03184  1.0000 0.0505444953
C   C217      1.0  0.26430  0.05560  0.51420  1.0000 -0.1019331824
C   C218      1.0  0.94440  0.20870  0.51420  1.0000 -0.1019331824
C   C219      1.0  0.79130  0.73570  0.51420  1.0000 -0.1019331824
C   C220      1.0  0.73570  0.94440  0.01420  1.0000 -0.1019331824
C   C221      1.0  0.05560  0.79130  0.01420  1.0000 -0.1019331824
C   C222      1.0  0.20870  0.26430  0.01420  1.0000 -0.1019331824
C   C223      1.0  0.37710  0.06700  0.72773  1.0000 0.1551847325
C   C224      1.0  0.93300  0.31010  0.72773  1.0000 0.1551847325
C   C225      1.0  0.68990  0.62290  0.72773  1.0000 0.1551847325
C   C226      1.0  0.62290  0.93300  0.22773  1.0000 0.1551847325
C   C227      1.0  0.06700  0.68990  0.22773  1.0000 0.1551847325
C   C228      1.0  0.31010  0.37710  0.22773  1.0000 0.1551847325
C   C229      1.0  0.51040  0.26320  0.64000  1.0000 0.6117833323
C   C230      1.0  0.73680  0.24720  0.64000  1.0000 0.6117833323
C   C231      1.0  0.75280  0.48960  0.64000  1.0000 0.6117833323
C   C232      1.0  0.48960  0.73680  0.14000  1.0000 0.6117833323
C   C233      1.0  0.26320  0.75280  0.14000  1.0000 0.6117833323
C   C234      1.0  0.24720  0.51040  0.14000  1.0000 0.6117833323
C   C235      1.0  0.21920  0.85970  0.55913  1.0000 -0.1686799261
C   C236      1.0  0.14030  0.35950  0.55913  1.0000 -0.1686799261
C   C237      1.0  0.64050  0.78080  0.55913  1.0000 -0.1686799261
C   C238      1.0  0.78080  0.14030  0.05913  1.0000 -0.1686799261
C   C239      1.0  0.85970  0.64050  0.05913  1.0000 -0.1686799261
C   C240      1.0  0.35950  0.21920  0.05913  1.0000 -0.1686799261
C   C241      1.0  0.50210  0.93570  0.49203  1.0000 -0.1686799261
C   C242      1.0  0.06430  0.56640  0.49203  1.0000 -0.1686799261
C   C243      1.0  0.43360  0.49790  0.49203  1.0000 -0.1686799261
C   C244      1.0  0.49790  0.06430  0.99203  1.0000 -0.1686799261
C   C245      1.0  0.93570  0.43360  0.99203  1.0000 -0.1686799261
C   C246      1.0  0.56640  0.50210  0.99203  1.0000 -0.1686799261
C   C247      1.0  0.34380  0.93290  0.53520  1.0000 -0.1483474264
C   C248      1.0  0.06710  0.41090  0.53520  1.0000 -0.1483474264
C   C249      1.0  0.58910  0.65620  0.53520  1.0000 -0.1483474264
C   C250      1.0  0.65620  0.06710  0.03520  1.0000 -0.1483474264
C   C251      1.0  0.93290  0.58910  0.03520  1.0000 -0.1483474264
C   C252      1.0  0.41090  0.34380  0.03520  1.0000 -0.1483474264
C   C253      1.0  0.33800  0.26790  0.34297  1.0000 -0.1315130177
C   C254      1.0  0.73210  0.07010  0.34297  1.0000 -0.1315130177
C   C255      1.0  0.92990  0.66200  0.34297  1.0000 -0.1315130177
C   C256      1.0  0.66200  0.73210  0.84297  1.0000 -0.1315130177
C   C257      1.0  0.26790  0.92990  0.84297  1.0000 -0.1315130177
C   C258      1.0  0.07010  0.33800  0.84297  1.0000 -0.1315130177
C   C259      1.0  0.53567  0.08397  0.49596  1.0000 -0.0283877669
C   C260      1.0  0.91603  0.45170  0.49596  1.0000 -0.0283877669
C   C261      1.0  0.54830  0.46433  0.49596  1.0000 -0.0283877669
C   C262      1.0  0.46433  0.91603  0.99596  1.0000 -0.0283877669
C   C263      1.0  0.08397  0.54830  0.99596  1.0000 -0.0283877669
C   C264      1.0  0.45170  0.53567  0.99596  1.0000 -0.0283877669
C   C265      1.0  0.36260  0.96990  0.57459  1.0000 -0.1094360612
C   C266      1.0  0.03010  0.39270  0.57459  1.0000 -0.1094360612
C   C267      1.0  0.60730  0.63740  0.57459  1.0000 -0.1094360612
C   C268      1.0  0.63740  0.03010  0.07459  1.0000 -0.1094360612
C   C269      1.0  0.96990  0.60730  0.07459  1.0000 -0.1094360612
C   C270      1.0  0.39270  0.36260  0.07459  1.0000 -0.1094360612
C   C271      1.0  0.57940  0.05100  0.60981  1.0000 -0.0713915932
C   C272      1.0  0.94900  0.52840  0.60981  1.0000 -0.0713915932
C   C273      1.0  0.47160  0.42060  0.60981  1.0000 -0.0713915932
C   C274      1.0  0.42060  0.94900  0.10981  1.0000 -0.0713915932
C   C275      1.0  0.05100  0.47160  0.10981  1.0000 -0.0713915932
C   C276      1.0  0.52840  0.57940  0.10981  1.0000 -0.0713915932
C   C277      1.0  0.45940  0.14790  0.83030  1.0000 -0.0467816773
C   C278      1.0  0.85210  0.31150  0.83030  1.0000 -0.0467816773
C   C279      1.0  0.68850  0.54060  0.83030  1.0000 -0.0467816773
C   C280      1.0  0.54060  0.85210  0.33030  1.0000 -0.0467816773
C   C281      1.0  0.14790  0.68850  0.33030  1.0000 -0.0467816773
C   C282      1.0  0.31150  0.45940  0.33030  1.0000 -0.0467816773
C   C283      1.0  0.53190  0.93810  0.56980  1.0000 -0.1595037637
C   C284      1.0  0.06190  0.59380  0.56980  1.0000 -0.1595037637
C   C285      1.0  0.40620  0.46810  0.56980  1.0000 -0.1595037637
C   C286      1.0  0.46810  0.06190  0.06980  1.0000 -0.1595037637
C   C287      1.0  0.93810  0.40620  0.06980  1.0000 -0.1595037637
C   C288      1.0  0.59380  0.53190  0.06980  1.0000 -0.1595037637
C   C289      1.0  0.23860  0.89680  0.59843  1.0000 -0.1315130177
C   C290      1.0  0.10320  0.34180  0.59843  1.0000 -0.1315130177
C   C291      1.0  0.65820  0.76140  0.59843  1.0000 -0.1315130177
C   C292      1.0  0.76140  0.10320  0.09843  1.0000 -0.1315130177
C   C293      1.0  0.89680  0.65820  0.09843  1.0000 -0.1315130177
C   C294      1.0  0.34180  0.23860  0.09843  1.0000 -0.1315130177
C   C295      1.0  0.26640  0.06610  0.34710  1.0000 -0.1413615732
C   C296      1.0  0.93390  0.20030  0.34710  1.0000 -0.1413615732
C   C297      1.0  0.79970  0.73360  0.34710  1.0000 -0.1413615732
C   C298      1.0  0.73360  0.93390  0.84710  1.0000 -0.1413615732
C   C299      1.0  0.06610  0.79970  0.84710  1.0000 -0.1413615732
C   C300      1.0  0.20030  0.26640  0.84710  1.0000 -0.1413615732
C   C301      1.0  0.47290  0.20500  0.24860  1.0000 -0.1222270512
C   C302      1.0  0.79500  0.26790  0.24860  1.0000 -0.1222270512
C   C303      1.0  0.73210  0.52710  0.24860  1.0000 -0.1222270512
C   C304      1.0  0.52710  0.79500  0.74860  1.0000 -0.1222270512
C   C305      1.0  0.20500  0.73210  0.74860  1.0000 -0.1222270512
C   C306      1.0  0.26790  0.47290  0.74860  1.0000 -0.1222270512
C   C307      1.0  0.55700  0.97570  0.60790  1.0000 -0.0912040381
C   C308      1.0  0.02430  0.58130  0.60790  1.0000 -0.0912040381
C   C309      1.0  0.41870  0.44300  0.60790  1.0000 -0.0912040381
C   C310      1.0  0.44300  0.02430  0.10790  1.0000 -0.0912040381
C   C311      1.0  0.97570  0.41870  0.10790  1.0000 -0.0912040381
C   C312      1.0  0.58130  0.55700  0.10790  1.0000 -0.0912040381
C   C313      1.0  0.29520  0.09330  0.55160  1.0000 -0.1413615732
C   C314      1.0  0.90670  0.20190  0.55160  1.0000 -0.1413615732
C   C315      1.0  0.79810  0.70480  0.55160  1.0000 -0.1413615732
C   C316      1.0  0.70480  0.90670  0.05160  1.0000 -0.1413615732
C   C317      1.0  0.09330  0.79810  0.05160  1.0000 -0.1413615732
C   C318      1.0  0.20190  0.29520  0.05160  1.0000 -0.1413615732
C   C319      1.0  0.26920  0.13410  0.34490  1.0000 0.0505444953
C   C320      1.0  0.86590  0.13510  0.34490  1.0000 0.0505444953
C   C321      1.0  0.86490  0.73080  0.34490  1.0000 0.0505444953
C   C322      1.0  0.73080  0.86590  0.84490  1.0000 0.0505444953
C   C323      1.0  0.13410  0.86490  0.84490  1.0000 0.0505444953
C   C324      1.0  0.13510  0.26920  0.84490  1.0000 0.0505444953
C   C325      1.0  0.46860  0.17730  0.20738  1.0000 -0.0912040381
C   C326      1.0  0.82270  0.29130  0.20738  1.0000 -0.0912040381
C   C327      1.0  0.70870  0.53140  0.20738  1.0000 -0.0912040381
C   C328      1.0  0.53140  0.82270  0.70738  1.0000 -0.0912040381
C   C329      1.0  0.17730  0.70870  0.70738  1.0000 -0.0912040381
C   C330      1.0  0.29130  0.46860  0.70738  1.0000 -0.0912040381
C   C331      1.0  0.49060  0.28960  0.17440  1.0000 -0.1413615732
C   C332      1.0  0.71040  0.20100  0.17440  1.0000 -0.1413615732
C   C333      1.0  0.79900  0.50940  0.17440  1.0000 -0.1413615732
C   C334      1.0  0.50940  0.71040  0.67440  1.0000 -0.1483474264
C   C335      1.0  0.28960  0.79900  0.67440  1.0000 -0.1413615732
C   C336      1.0  0.20100  0.49060  0.67440  1.0000 -0.1413615732
C   C337      1.0  0.40500  0.02230  0.66364  1.0000 -0.1094360612
C   C338      1.0  0.97770  0.38270  0.66364  1.0000 -0.1094360612
C   C339      1.0  0.61730  0.59500  0.66364  1.0000 -0.1094360612
C   C340      1.0  0.59500  0.97770  0.16364  1.0000 -0.1094360612
C   C341      1.0  0.02230  0.61730  0.16364  1.0000 -0.1094360612
C   C342      1.0  0.38270  0.40500  0.16364  1.0000 -0.1094360612
C   C343      1.0  0.47640  0.21950  0.17000  1.0000 -0.1019331824
C   C344      1.0  0.78050  0.25690  0.17000  1.0000 -0.1019331824
C   C345      1.0  0.74310  0.52360  0.17000  1.0000 -0.1019331824
C   C346      1.0  0.52360  0.78050  0.67000  1.0000 -0.1019331824
C   C347      1.0  0.21950  0.74310  0.67000  1.0000 -0.1019331824
C   C348      1.0  0.25690  0.47640  0.67000  1.0000 -0.1019331824
C   C349      1.0  0.28360  0.00120  0.67470  1.0000 -0.1222270512
C   C350      1.0  0.99880  0.28240  0.67470  1.0000 -0.1222270512
C   C351      1.0  0.71760  0.71640  0.67470  1.0000 -0.1222270512
C   C352      1.0  0.71640  0.99880  0.17470  1.0000 -0.1222270512
C   C353      1.0  0.00120  0.71760  0.17470  1.0000 -0.1222270512
C   C354      1.0  0.28240  0.28360  0.17470  1.0000 -0.1222270512
C   C355      1.0  0.20550  0.20490  0.34530  1.0000 -0.1094360612
C   C356      1.0  0.79510  0.00060  0.34530  1.0000 -0.1094360612
C   C357      1.0  0.99940  0.79450  0.34530  1.0000 -0.1094360612
C   C358      1.0  0.79450  0.79510  0.84530  1.0000 -0.1094360612
C   C359      1.0  0.20490  0.99940  0.84530  1.0000 -0.1094360612
C   C360      1.0  0.00060  0.20550  0.84530  1.0000 -0.1094360612
C   C361      1.0  0.20270  0.13770  0.34610  1.0000 -0.1413615732
C   C362      1.0  0.86230  0.06500  0.34610  1.0000 -0.1413615732
C   C363      1.0  0.93500  0.79730  0.34610  1.0000 -0.1413615732
C   C364      1.0  0.79730  0.86230  0.84610  1.0000 -0.1413615732
C   C365      1.0  0.13770  0.93500  0.84610  1.0000 -0.1413615732
C   C366      1.0  0.06500  0.20270  0.84610  1.0000 -0.1413615732
C   C367      1.0  0.21360  0.75370  0.43770  1.0000 -0.0212551331
C   C368      1.0  0.24630  0.45990  0.43770  1.0000 -0.0212551331
C   C369      1.0  0.54010  0.78640  0.43770  1.0000 -0.0212551331
C   C370      1.0  0.78640  0.24630  0.93770  1.0000 -0.0212551331
C   C371      1.0  0.75370  0.54010  0.93770  1.0000 -0.0212551331
C   C372      1.0  0.45990  0.21360  0.93770  1.0000 -0.0212551331
C   C373      1.0  0.30610  0.03870  0.71490  1.0000 -0.1686799261
C   C374      1.0  0.96130  0.26740  0.71490  1.0000 -0.1686799261
C   C375      1.0  0.73260  0.69390  0.71490  1.0000 -0.1686799261
C   C376      1.0  0.69390  0.96130  0.21490  1.0000 -0.1686799261
C   C377      1.0  0.03870  0.73260  0.21490  1.0000 -0.1686799261
C   C378      1.0  0.26740  0.30610  0.21490  1.0000 -0.1686799261
C   C379      1.0  0.21520  0.76550  0.48130  1.0000 -0.1019331824
C   C380      1.0  0.23450  0.44970  0.48130  1.0000 -0.1019331824
C   C381      1.0  0.55030  0.78480  0.48130  1.0000 -0.1019331824
C   C382      1.0  0.78480  0.23450  0.98130  1.0000 -0.1019331824
C   C383      1.0  0.76550  0.55030  0.98130  1.0000 -0.1019331824
C   C384      1.0  0.44970  0.21520  0.98130  1.0000 -0.1019331824
N   N1        1.0  0.42250  0.18555  0.82055  1.0000 -0.293491501
N   N2        1.0  0.81445  0.23695  0.82055  1.0000 -0.293491501
N   N3        1.0  0.76305  0.57750  0.82055  1.0000 -0.293491501
N   N4        1.0  0.57750  0.81445  0.32055  1.0000 -0.293491501
N   N5        1.0  0.18555  0.76305  0.32055  1.0000 -0.293491501
N   N6        1.0  0.23695  0.42250  0.32055  1.0000 -0.293491501
N   N7        1.0  0.25610  0.81853  0.41721  1.0000 -0.2742609415
N   N8        1.0  0.18147  0.43757  0.41721  1.0000 -0.2742609415
N   N9        1.0  0.56243  0.74390  0.41721  1.0000 -0.2742609415
N   N10       1.0  0.74390  0.18147  0.91721  1.0000 -0.2742609415
N   N11       1.0  0.81853  0.56243  0.91721  1.0000 -0.2742609415
N   N12       1.0  0.43757  0.25610  0.91721  1.0000 -0.2742609415
N   N13       1.0  0.40170  0.10610  0.76828  1.0000 0.0132876332
N   N14       1.0  0.89390  0.29560  0.76828  1.0000 0.0132876332
N   N15       1.0  0.70440  0.59830  0.76828  1.0000 0.0132876332
N   N16       1.0  0.59830  0.89390  0.26828  1.0000 0.0132876332
N   N17       1.0  0.10610  0.70440  0.26828  1.0000 0.0132876332
N   N18       1.0  0.29560  0.40170  0.26828  1.0000 0.0132876332
N   N19       1.0  0.36070  0.84666  0.32648  1.0000 -0.7598377896
N   N20       1.0  0.15334  0.51404  0.32648  1.0000 -0.7598377896
N   N21       1.0  0.48596  0.63930  0.32648  1.0000 -0.7598377896
N   N22       1.0  0.63930  0.15334  0.82648  1.0000 -0.7598377896
N   N23       1.0  0.84666  0.48596  0.82648  1.0000 -0.7598377896
N   N24       1.0  0.51404  0.36070  0.82648  1.0000 -0.7598377896
N   N25       1.0  0.25570  0.83980  0.48736  1.0000 0.0132876332
N   N26       1.0  0.16020  0.41590  0.48736  1.0000 0.0132876332
N   N27       1.0  0.58410  0.74430  0.48736  1.0000 0.0132876332
N   N28       1.0  0.74430  0.16020  0.98736  1.0000 0.0132876332
N   N29       1.0  0.83980  0.58410  0.98736  1.0000 0.0132876332
N   N30       1.0  0.41590  0.25570  0.98736  1.0000 0.0132876332
O   O1        1.0  0.49163  0.96404  0.37647  1.0000 -0.6346943412
O   O2        1.0  0.03596  0.52759  0.37647  1.0000 -0.6346943412
O   O3        1.0  0.47241  0.50837  0.37647  1.0000 -0.6346943412
O   O4        1.0  0.50837  0.03596  0.87647  1.0000 -0.6346943412
O   O5        1.0  0.96404  0.47241  0.87647  1.0000 -0.6346943412
O   O6        1.0  0.52759  0.49163  0.87647  1.0000 -0.6346943412
O   O7        1.0  0.51004  0.07878  0.42049  1.0000 -0.6178181635
O   O8        1.0  0.92122  0.43126  0.42049  1.0000 -0.6178181635
O   O9        1.0  0.56874  0.48996  0.42049  1.0000 -0.6178181635
O   O10       1.0  0.48996  0.92122  0.92049  1.0000 -0.6178181635
O   O11       1.0  0.07878  0.56874  0.92049  1.0000 -0.6178181635
O   O12       1.0  0.43126  0.51004  0.92049  1.0000 -0.6178181635
O   O13       1.0  0.52497  0.41436  0.33967  1.0000 -0.6112897271
O   O14       1.0  0.58564  0.11061  0.33967  1.0000 -0.6112897271
O   O15       1.0  0.88939  0.47503  0.33967  1.0000 -0.6112897271
O   O16       1.0  0.47503  0.58564  0.83967  1.0000 -0.6112897271
O   O17       1.0  0.41436  0.88939  0.83967  1.0000 -0.6112897271
O   O18       1.0  0.11061  0.52497  0.83967  1.0000 -0.6112897271
O   O19       1.0  0.54659  0.53519  0.30084  1.0000 -0.6346943412
O   O20       1.0  0.46481  0.01140  0.30084  1.0000 -0.6346943412
O   O21       1.0  0.98860  0.45341  0.30084  1.0000 -0.6346943412
O   O22       1.0  0.45341  0.46481  0.80084  1.0000 -0.6346943412
O   O23       1.0  0.53519  0.98860  0.80084  1.0000 -0.6346943412
O   O24       1.0  0.01140  0.54659  0.80084  1.0000 -0.6346943412
O   O25       1.0  0.59956  0.25270  0.57115  1.0000 -0.5848065946
O   O26       1.0  0.74730  0.34686  0.57115  1.0000 -0.5848065946
O   O27       1.0  0.65314  0.40044  0.57115  1.0000 -0.5848065946
O   O28       1.0  0.40044  0.74730  0.07115  1.0000 -0.5848065946
O   O29       1.0  0.25270  0.65314  0.07115  1.0000 -0.5848065946
O   O30       1.0  0.34686  0.59956  0.07115  1.0000 -0.5848065946
O   O31       1.0  0.44611  0.86015  0.41343  1.0000 -0.5178026954
O   O32       1.0  0.13985  0.58596  0.41343  1.0000 -0.5178026954
O   O33       1.0  0.41404  0.55389  0.41343  1.0000 -0.5178026954
O   O34       1.0  0.55389  0.13985  0.91343  1.0000 -0.5178026954
O   O35       1.0  0.86015  0.41404  0.91343  1.0000 -0.5178026954
O   O36       1.0  0.58596  0.44611  0.91343  1.0000 -0.5178026954
O   O37       1.0  0.37826  0.98603  0.37162  1.0000 -0.6112897271
O   O38       1.0  0.01397  0.39223  0.37162  1.0000 -0.6112897271
O   O39       1.0  0.60777  0.62174  0.37162  1.0000 -0.6112897271
O   O40       1.0  0.62174  0.01397  0.87162  1.0000 -0.6112897271
O   O41       1.0  0.98603  0.60777  0.87162  1.0000 -0.6112897271
O   O42       1.0  0.39223  0.37826  0.87162  1.0000 -0.6112897271
O   O43       1.0  0.46179  0.12469  0.34842  1.0000 -0.6178181635
O   O44       1.0  0.87531  0.33710  0.34842  1.0000 -0.6178181635
O   O45       1.0  0.66290  0.53821  0.34842  1.0000 -0.6178181635
O   O46       1.0  0.53821  0.87531  0.84842  1.0000 -0.6112897271
O   O47       1.0  0.12469  0.66290  0.84842  1.0000 -0.6112897271
O   O48       1.0  0.33710  0.46179  0.84842  1.0000 -0.6112897271
O   O49       1.0  0.26536  0.93249  0.34547  1.0000 -0.5178026954
O   O50       1.0  0.06751  0.33287  0.34547  1.0000 -0.5178026954
O   O51       1.0  0.66713  0.73464  0.34547  1.0000 -0.5178026954
O   O52       1.0  0.73464  0.06751  0.84547  1.0000 -0.5178026954
O   O53       1.0  0.93249  0.66713  0.84547  1.0000 -0.5178026954
O   O54       1.0  0.33287  0.26536  0.84547  1.0000 -0.5178026954
O   O55       1.0  0.58032  0.30521  0.64417  1.0000 -0.6049471829
O   O56       1.0  0.69479  0.27511  0.64417  1.0000 -0.6049471829
O   O57       1.0  0.72489  0.41968  0.64417  1.0000 -0.6049471829
O   O58       1.0  0.41968  0.69479  0.14417  1.0000 -0.6112897271
O   O59       1.0  0.30521  0.72489  0.14417  1.0000 -0.6112897271
O   O60       1.0  0.27511  0.58032  0.14417  1.0000 -0.6049471829
O   O61       1.0  0.55012  0.53923  0.22867  1.0000 -0.5178026954
O   O62       1.0  0.46077  0.01089  0.22867  1.0000 -0.5178026954
O   O63       1.0  0.98911  0.44988  0.22867  1.0000 -0.5178026954
O   O64       1.0  0.44988  0.46077  0.72867  1.0000 -0.5178026954
O   O65       1.0  0.53923  0.98911  0.72867  1.0000 -0.5178026954
O   O66       1.0  0.01089  0.55012  0.72867  1.0000 -0.5178026954
O   O67       1.0  0.46800  0.25830  0.66997  1.0000 -0.5409838888
O   O68       1.0  0.74170  0.20970  0.66997  1.0000 -0.5409838888
O   O69       1.0  0.79030  0.53200  0.66997  1.0000 -0.5409838888
O   O70       1.0  0.53200  0.74170  0.16997  1.0000 -0.5409838888
O   O71       1.0  0.25830  0.79030  0.16997  1.0000 -0.5409838888
O   O72       1.0  0.20970  0.46800  0.16997  1.0000 -0.5409838888
