# DDEC6 charges by PACMAN v1.1 (https://github.com/mtap-research/PACMAN-charge/)
data_2023[ZnTi][nan]3[ASR]1
_chemical_formula_sum              "Ti8 Zn6 H246 C384 N30 O72"
_cell_length_a       20.5678
_cell_length_b       20.5678
_cell_length_c       30.6788
_cell_angle_alpha    90
_cell_angle_beta     90
_cell_angle_gamma    120

_symmetry_space_group_name_H-M    "P 1"
_symmetry_Int_Tables_number       1

loop_
  _symmetry_equiv_pos_as_xyz
  'x, y, z'

loop_
  _atom_site_type_symbol
  _atom_site_label
  _atom_site_symmetry_multiplicity
  _atom_site_fract_x
  _atom_site_fract_y
  _atom_site_fract_z
  _atom_site_occupancy
  _atom_site_charge
Ti  Ti1       1.0  0.48380  0.43381  0.63679  1.0000 1.9019655724
Ti  Ti2       1.0  0.56619  0.04999  0.63679  1.0000 1.9019655724
Ti  Ti3       1.0  0.95001  0.51620  0.63679  1.0000 1.9019655724
Ti  Ti4       1.0  0.51620  0.56619  0.13679  1.0000 1.9019655724
Ti  Ti5       1.0  0.43381  0.95001  0.13679  1.0000 1.9019655724
Ti  Ti6       1.0  0.04999  0.48380  0.13679  1.0000 1.9019655724
Ti  Ti7       1.0  0.66667  0.33333  0.39559  1.0000 1.8897512297
Ti  Ti8       1.0  0.33333  0.66667  0.89559  1.0000 1.8897512297
Zn  Zn1       1.0  0.26552  0.42820  0.64815  1.0000 0.7388166031
Zn  Zn2       1.0  0.57180  0.83732  0.64815  1.0000 0.7388166031
Zn  Zn3       1.0  0.16268  0.73448  0.64815  1.0000 0.7388166031
Zn  Zn4       1.0  0.73448  0.57180  0.14815  1.0000 0.7388166031
Zn  Zn5       1.0  0.42820  0.16268  0.14815  1.0000 0.7388166031
Zn  Zn6       1.0  0.83732  0.26552  0.14815  1.0000 0.7388166031
H   H1        1.0  0.39601  0.51757  0.66165  1.0000 0.2991058121
H   H2        1.0  0.48243  0.87844  0.66165  1.0000 0.2991058121
H   H3        1.0  0.12156  0.60399  0.66165  1.0000 0.2991058121
H   H4        1.0  0.60399  0.48243  0.16165  1.0000 0.2991058121
H   H5        1.0  0.51757  0.12156  0.16165  1.0000 0.2991058121
H   H6        1.0  0.87844  0.39601  0.16165  1.0000 0.2991058121
H   H7        1.0  0.35532  0.50859  0.70200  1.0000 0.3166617493
H   H8        1.0  0.49141  0.84673  0.70200  1.0000 0.3166617493
H   H9        1.0  0.15327  0.64468  0.70200  1.0000 0.3166617493
H   H10       1.0  0.64468  0.49141  0.20200  1.0000 0.3166617493
H   H11       1.0  0.50859  0.15327  0.20200  1.0000 0.3166617493
H   H12       1.0  0.84673  0.35532  0.20200  1.0000 0.3166617493
H   H13       1.0  0.35392  0.55641  0.66756  1.0000 0.3070895712
H   H14       1.0  0.44359  0.79751  0.66756  1.0000 0.3070895712
H   H15       1.0  0.20249  0.64608  0.66756  1.0000 0.3070895712
H   H16       1.0  0.64608  0.44359  0.16756  1.0000 0.3070895712
H   H17       1.0  0.55641  0.20249  0.16756  1.0000 0.3070895712
H   H18       1.0  0.79751  0.35392  0.16756  1.0000 0.3070895712
H   H19       1.0  0.54400  0.37045  0.53010  1.0000 0.1297990699
H   H20       1.0  0.62955  0.17355  0.53010  1.0000 0.1297990699
H   H21       1.0  0.82645  0.45600  0.53010  1.0000 0.1297990699
H   H22       1.0  0.45600  0.62955  0.03010  1.0000 0.1297990699
H   H23       1.0  0.37045  0.82645  0.03010  1.0000 0.1297990699
H   H24       1.0  0.17355  0.54400  0.03010  1.0000 0.1297990699
H   H25       1.0  0.60008  0.41019  0.49152  1.0000 0.1372698006
H   H26       1.0  0.58981  0.18989  0.49152  1.0000 0.1372698006
H   H27       1.0  0.81011  0.39992  0.49152  1.0000 0.1372698006
H   H28       1.0  0.39992  0.58981  0.99152  1.0000 0.1372698006
H   H29       1.0  0.41019  0.81011  0.99152  1.0000 0.1372698006
H   H30       1.0  0.18989  0.60008  0.99152  1.0000 0.1372698006
H   H31       1.0  0.52643  0.09619  0.80115  1.0000 0.1189426839
H   H32       1.0  0.90381  0.43024  0.80115  1.0000 0.1189426839
H   H33       1.0  0.56976  0.47357  0.80115  1.0000 0.1189426839
H   H34       1.0  0.47357  0.90381  0.30115  1.0000 0.1189426839
H   H35       1.0  0.09619  0.56976  0.30115  1.0000 0.1189426839
H   H36       1.0  0.43024  0.52643  0.30115  1.0000 0.1189426839
H   H37       1.0  0.58384  0.45458  0.42337  1.0000 0.1297990699
H   H38       1.0  0.54542  0.12926  0.42337  1.0000 0.1297990699
H   H39       1.0  0.87074  0.41616  0.42337  1.0000 0.1297990699
H   H40       1.0  0.41616  0.54542  0.92337  1.0000 0.1297990699
H   H41       1.0  0.45458  0.87074  0.92337  1.0000 0.1297990699
H   H42       1.0  0.12926  0.58384  0.92337  1.0000 0.1297990699
H   H43       1.0  0.51494  0.26283  0.65707  1.0000 0.1297990699
H   H44       1.0  0.73717  0.25211  0.65707  1.0000 0.1297990699
H   H45       1.0  0.74789  0.48506  0.65707  1.0000 0.1297990699
H   H46       1.0  0.48506  0.73717  0.15707  1.0000 0.1297990699
H   H47       1.0  0.26283  0.74789  0.15707  1.0000 0.1297990699
H   H48       1.0  0.25211  0.51494  0.15707  1.0000 0.1297990699
H   H49       1.0  0.48381  0.18438  0.63479  1.0000 0.1297990699
H   H50       1.0  0.81562  0.29943  0.63479  1.0000 0.1297990699
H   H51       1.0  0.70057  0.51619  0.63479  1.0000 0.1297990699
H   H52       1.0  0.51619  0.81562  0.13479  1.0000 0.1297990699
H   H53       1.0  0.18438  0.70057  0.13479  1.0000 0.1297990699
H   H54       1.0  0.29943  0.48381  0.13479  1.0000 0.1297990699
H   H55       1.0  0.35631  0.18750  0.23404  1.0000 0.1297990699
H   H56       1.0  0.81250  0.16881  0.23404  1.0000 0.1297990699
H   H57       1.0  0.83119  0.64369  0.23404  1.0000 0.1297990699
H   H58       1.0  0.64369  0.81250  0.73404  1.0000 0.1297990699
H   H59       1.0  0.18750  0.83119  0.73404  1.0000 0.1297990699
H   H60       1.0  0.16881  0.35631  0.73404  1.0000 0.1297990699
H   H61       1.0  0.31528  0.41421  0.55458  1.0000 0.1297990699
H   H62       1.0  0.58579  0.90107  0.55458  1.0000 0.1297990699
H   H63       1.0  0.09893  0.68472  0.55458  1.0000 0.1297990699
H   H64       1.0  0.68472  0.58579  0.05458  1.0000 0.1297990699
H   H65       1.0  0.41421  0.09893  0.05458  1.0000 0.1297990699
H   H66       1.0  0.90107  0.31528  0.05458  1.0000 0.1297990699
H   H67       1.0  0.48100  0.60640  0.50892  1.0000 0.1131145044
H   H68       1.0  0.39360  0.87460  0.50892  1.0000 0.1131145044
H   H69       1.0  0.12540  0.51900  0.50892  1.0000 0.1131145044
H   H70       1.0  0.51900  0.39360  0.00892  1.0000 0.1131145044
H   H71       1.0  0.60640  0.12540  0.00892  1.0000 0.1131145044
H   H72       1.0  0.87460  0.48100  0.00892  1.0000 0.1131145044
H   H73       1.0  0.46568  0.40395  0.20832  1.0000 0.1478448972
H   H74       1.0  0.59605  0.06173  0.20832  1.0000 0.1478448972
H   H75       1.0  0.93827  0.53432  0.20832  1.0000 0.1478448972
H   H76       1.0  0.53432  0.59605  0.70832  1.0000 0.1478448972
H   H77       1.0  0.40395  0.93827  0.70832  1.0000 0.1478448972
H   H78       1.0  0.06173  0.46568  0.70832  1.0000 0.1478448972
H   H79       1.0  0.41271  0.32460  0.53919  1.0000 0.1297990699
H   H80       1.0  0.67540  0.08811  0.53919  1.0000 0.1297990699
H   H81       1.0  0.91189  0.58729  0.53919  1.0000 0.1297990699
H   H82       1.0  0.58729  0.67540  0.03919  1.0000 0.1297990699
H   H83       1.0  0.32460  0.91189  0.03919  1.0000 0.1297990699
H   H84       1.0  0.08811  0.41271  0.03919  1.0000 0.1297990699
H   H85       1.0  0.49289  0.34043  0.15111  1.0000 0.1372698006
H   H86       1.0  0.65957  0.15246  0.15111  1.0000 0.1372698006
H   H87       1.0  0.84754  0.50711  0.15111  1.0000 0.1372698006
H   H88       1.0  0.50711  0.65957  0.65111  1.0000 0.1372698006
H   H89       1.0  0.34043  0.84754  0.65111  1.0000 0.1372698006
H   H90       1.0  0.15246  0.49289  0.65111  1.0000 0.1372698006
H   H91       1.0  0.50313  0.17903  0.84785  1.0000 0.1189426839
H   H92       1.0  0.82097  0.32410  0.84785  1.0000 0.1189426839
H   H93       1.0  0.67590  0.49687  0.84785  1.0000 0.1189426839
H   H94       1.0  0.49687  0.82097  0.34785  1.0000 0.1189426839
H   H95       1.0  0.17903  0.67590  0.34785  1.0000 0.1189426839
H   H96       1.0  0.32410  0.50313  0.34785  1.0000 0.1189426839
H   H97       1.0  0.36816  0.19281  0.38589  1.0000 0.1189426839
H   H98       1.0  0.80719  0.17535  0.38589  1.0000 0.1189426839
H   H99       1.0  0.82465  0.63184  0.38589  1.0000 0.1189426839
H   H100      1.0  0.63184  0.80719  0.88589  1.0000 0.1189426839
H   H101      1.0  0.19281  0.82465  0.88589  1.0000 0.1189426839
H   H102      1.0  0.17535  0.36816  0.88589  1.0000 0.1189426839
H   H103      1.0  0.47187  0.27137  0.85537  1.0000 0.1131145044
H   H104      1.0  0.72863  0.20050  0.85537  1.0000 0.1131145044
H   H105      1.0  0.79950  0.52813  0.85537  1.0000 0.1131145044
H   H106      1.0  0.52813  0.72863  0.35537  1.0000 0.1131145044
H   H107      1.0  0.27137  0.79950  0.35537  1.0000 0.1131145044
H   H108      1.0  0.20050  0.47187  0.35537  1.0000 0.1131145044
H   H109      1.0  0.59322  0.52622  0.36292  1.0000 0.1297990699
H   H110      1.0  0.47378  0.06700  0.36292  1.0000 0.1297990699
H   H111      1.0  0.93300  0.40678  0.36292  1.0000 0.1297990699
H   H112      1.0  0.40678  0.47378  0.86292  1.0000 0.1297990699
H   H113      1.0  0.52622  0.93300  0.86292  1.0000 0.1297990699
H   H114      1.0  0.06700  0.59322  0.86292  1.0000 0.1297990699
H   H115      1.0  0.28550  0.25521  0.54856  1.0000 0.1189426839
H   H116      1.0  0.74479  0.03029  0.54856  1.0000 0.1189426839
H   H117      1.0  0.96971  0.71450  0.54856  1.0000 0.1189426839
H   H118      1.0  0.71450  0.74479  0.04856  1.0000 0.1189426839
H   H119      1.0  0.25521  0.96971  0.04856  1.0000 0.1189426839
H   H120      1.0  0.03029  0.28550  0.04856  1.0000 0.1189426839
H   H121      1.0  0.46290  0.28753  0.72492  1.0000 0.1189426839
H   H122      1.0  0.71247  0.17537  0.72492  1.0000 0.1189426839
H   H123      1.0  0.82463  0.53710  0.72492  1.0000 0.1189426839
H   H124      1.0  0.53710  0.71247  0.22492  1.0000 0.1189426839
H   H125      1.0  0.28753  0.82463  0.22492  1.0000 0.1189426839
H   H126      1.0  0.17537  0.46290  0.22492  1.0000 0.1189426839
H   H127      1.0  0.45103  0.32510  0.79342  1.0000 0.1131145044
H   H128      1.0  0.67490  0.12593  0.79342  1.0000 0.1131145044
H   H129      1.0  0.87407  0.54897  0.79342  1.0000 0.1131145044
H   H130      1.0  0.54897  0.67490  0.29342  1.0000 0.1131145044
H   H131      1.0  0.32510  0.87407  0.29342  1.0000 0.1131145044
H   H132      1.0  0.12593  0.45103  0.29342  1.0000 0.1131145044
H   H133      1.0  0.50656  0.63157  0.43021  1.0000 0.1131145044
H   H134      1.0  0.36843  0.87499  0.43021  1.0000 0.1189426839
H   H135      1.0  0.12501  0.49344  0.43021  1.0000 0.1189426839
H   H136      1.0  0.49344  0.36843  0.93021  1.0000 0.1131145044
H   H137      1.0  0.63157  0.12501  0.93021  1.0000 0.1131145044
H   H138      1.0  0.87499  0.50656  0.93021  1.0000 0.1131145044
H   H139      1.0  0.54898  0.61163  0.36591  1.0000 0.1189426839
H   H140      1.0  0.38837  0.93735  0.36591  1.0000 0.1189426839
H   H141      1.0  0.06265  0.45102  0.36591  1.0000 0.1189426839
H   H142      1.0  0.45102  0.38837  0.86591  1.0000 0.1189426839
H   H143      1.0  0.61163  0.06265  0.86591  1.0000 0.1189426839
H   H144      1.0  0.93735  0.54898  0.86591  1.0000 0.1189426839
H   H145      1.0  0.26935  0.95143  0.65602  1.0000 0.1021860257
H   H146      1.0  0.04857  0.31792  0.65602  1.0000 0.1021860257
H   H147      1.0  0.68208  0.73065  0.65602  1.0000 0.1021860257
H   H148      1.0  0.73065  0.04857  0.15602  1.0000 0.1021860257
H   H149      1.0  0.95143  0.68208  0.15602  1.0000 0.1021860257
H   H150      1.0  0.31792  0.26935  0.15602  1.0000 0.1021860257
H   H151      1.0  0.38008  0.06341  0.65526  1.0000 0.1189426839
H   H152      1.0  0.93659  0.31667  0.65526  1.0000 0.1297990699
H   H153      1.0  0.68333  0.61992  0.65526  1.0000 0.1297990699
H   H154      1.0  0.61992  0.93659  0.15526  1.0000 0.1297990699
H   H155      1.0  0.06341  0.68333  0.15526  1.0000 0.1297990699
H   H156      1.0  0.31667  0.38008  0.15526  1.0000 0.1297990699
H   H157      1.0  0.20773  0.17786  0.49499  1.0000 0.1189426839
H   H158      1.0  0.82214  0.02987  0.49499  1.0000 0.1189426839
H   H159      1.0  0.97013  0.79227  0.49499  1.0000 0.1189426839
H   H160      1.0  0.79227  0.82214  0.99499  1.0000 0.1131145044
H   H161      1.0  0.17786  0.97013  0.99499  1.0000 0.1189426839
H   H162      1.0  0.02987  0.20773  0.99499  1.0000 0.1189426839
H   H163      1.0  0.21284  0.19207  0.65758  1.0000 0.1189426839
H   H164      1.0  0.80793  0.02077  0.65758  1.0000 0.1189426839
H   H165      1.0  0.97923  0.78716  0.65758  1.0000 0.1189426839
H   H166      1.0  0.78716  0.80793  0.15758  1.0000 0.1189426839
H   H167      1.0  0.19207  0.97923  0.15758  1.0000 0.1189426839
H   H168      1.0  0.02077  0.21284  0.15758  1.0000 0.1189426839
H   H169      1.0  0.25753  0.16511  0.43053  1.0000 0.1189426839
H   H170      1.0  0.83489  0.09242  0.43053  1.0000 0.1189426839
H   H171      1.0  0.90758  0.74247  0.43053  1.0000 0.1189426839
H   H172      1.0  0.74247  0.83489  0.93053  1.0000 0.1189426839
H   H173      1.0  0.16511  0.90758  0.93053  1.0000 0.1189426839
H   H174      1.0  0.09242  0.25753  0.93053  1.0000 0.1189426839
H   H175      1.0  0.18816  0.30947  0.38138  1.0000 0.1131145044
H   H176      1.0  0.69053  0.87869  0.38138  1.0000 0.1131145044
H   H177      1.0  0.12131  0.81184  0.38138  1.0000 0.1131145044
H   H178      1.0  0.81184  0.69053  0.88138  1.0000 0.1131145044
H   H179      1.0  0.30947  0.12131  0.88138  1.0000 0.1131145044
H   H180      1.0  0.87869  0.18816  0.88138  1.0000 0.1131145044
H   H181      1.0  0.11721  0.37257  0.51009  1.0000 0.1372698006
H   H182      1.0  0.62743  0.74464  0.51009  1.0000 0.1372698006
H   H183      1.0  0.25536  0.88279  0.51009  1.0000 0.1372698006
H   H184      1.0  0.88279  0.62743  0.01009  1.0000 0.1372698006
H   H185      1.0  0.37257  0.25536  0.01009  1.0000 0.1372698006
H   H186      1.0  0.74464  0.11721  0.01009  1.0000 0.1372698006
H   H187      1.0  0.36072  0.43758  0.48814  1.0000 0.1189426839
H   H188      1.0  0.56242  0.92314  0.48814  1.0000 0.1189426839
H   H189      1.0  0.07686  0.63928  0.48814  1.0000 0.1189426839
H   H190      1.0  0.63928  0.56242  0.98814  1.0000 0.1189426839
H   H191      1.0  0.43758  0.07686  0.98814  1.0000 0.1189426839
H   H192      1.0  0.92314  0.36072  0.98814  1.0000 0.1189426839
H   H193      1.0  0.14768  0.32166  0.45028  1.0000 0.1297990699
H   H194      1.0  0.67834  0.82602  0.45028  1.0000 0.1297990699
H   H195      1.0  0.17398  0.85232  0.45028  1.0000 0.1297990699
H   H196      1.0  0.85232  0.67834  0.95028  1.0000 0.1297990699
H   H197      1.0  0.32166  0.17398  0.95028  1.0000 0.1297990699
H   H198      1.0  0.82602  0.14768  0.95028  1.0000 0.1297990699
H   H199      1.0  0.12655  0.40515  0.58667  1.0000 0.1297990699
H   H200      1.0  0.59485  0.72140  0.58667  1.0000 0.1297990699
H   H201      1.0  0.27860  0.87345  0.58667  1.0000 0.1297990699
H   H202      1.0  0.87345  0.59485  0.08667  1.0000 0.1297990699
H   H203      1.0  0.40515  0.27860  0.08667  1.0000 0.1297990699
H   H204      1.0  0.72140  0.12655  0.08667  1.0000 0.1297990699
H   H205      1.0  0.39776  0.40885  0.42205  1.0000 0.1189426839
H   H206      1.0  0.59115  0.98891  0.42205  1.0000 0.1189426839
H   H207      1.0  0.01109  0.60224  0.42205  1.0000 0.1189426839
H   H208      1.0  0.60224  0.59115  0.92205  1.0000 0.1189426839
H   H209      1.0  0.40885  0.01109  0.92205  1.0000 0.1189426839
H   H210      1.0  0.98891  0.39776  0.92205  1.0000 0.1189426839
H   H211      1.0  0.15522  0.94594  0.66319  1.0000 0.1189426839
H   H212      1.0  0.05406  0.20928  0.66319  1.0000 0.1189426839
H   H213      1.0  0.79072  0.84478  0.66319  1.0000 0.1189426839
H   H214      1.0  0.84478  0.05406  0.16319  1.0000 0.1189426839
H   H215      1.0  0.94594  0.79072  0.16319  1.0000 0.1189426839
H   H216      1.0  0.20928  0.15522  0.16319  1.0000 0.1189426839
H   H217      1.0  0.14766  0.05325  0.65951  1.0000 0.1189426839
H   H218      1.0  0.94675  0.09441  0.65951  1.0000 0.1189426839
H   H219      1.0  0.90559  0.85234  0.65951  1.0000 0.1189426839
H   H220      1.0  0.85234  0.94675  0.15951  1.0000 0.1189426839
H   H221      1.0  0.05325  0.90559  0.15951  1.0000 0.1189426839
H   H222      1.0  0.09441  0.14766  0.15951  1.0000 0.1189426839
H   H223      1.0  0.26264  0.24878  0.26251  1.0000 0.1297990699
H   H224      1.0  0.75122  0.01386  0.26251  1.0000 0.1297990699
H   H225      1.0  0.98614  0.73736  0.26251  1.0000 0.1297990699
H   H226      1.0  0.73736  0.75122  0.76251  1.0000 0.1297990699
H   H227      1.0  0.24878  0.98614  0.76251  1.0000 0.1297990699
H   H228      1.0  0.01386  0.26264  0.76251  1.0000 0.1297990699
H   H229      1.0  0.22034  0.27326  0.32716  1.0000 0.1131145044
H   H230      1.0  0.72674  0.94708  0.32716  1.0000 0.1131145044
H   H231      1.0  0.05292  0.77966  0.32716  1.0000 0.1189426839
H   H232      1.0  0.77966  0.72674  0.82716  1.0000 0.1189426839
H   H233      1.0  0.27326  0.05292  0.82716  1.0000 0.1189426839
H   H234      1.0  0.94708  0.22034  0.82716  1.0000 0.1189426839
H   H235      1.0  0.43369  0.40868  0.36510  1.0000 0.1189426839
H   H236      1.0  0.59132  0.02501  0.36510  1.0000 0.1189426839
H   H237      1.0  0.97499  0.56631  0.36510  1.0000 0.1189426839
H   H238      1.0  0.56631  0.59132  0.86510  1.0000 0.1189426839
H   H239      1.0  0.40868  0.97499  0.86510  1.0000 0.1189426839
H   H240      1.0  0.02501  0.43369  0.86510  1.0000 0.1189426839
H   H241      1.0  0.47600  0.38420  0.30045  1.0000 0.1478448972
H   H242      1.0  0.61580  0.09180  0.30045  1.0000 0.1478448972
H   H243      1.0  0.90820  0.52400  0.30045  1.0000 0.1478448972
H   H244      1.0  0.52400  0.61580  0.80045  1.0000 0.1478448972
H   H245      1.0  0.38420  0.90820  0.80045  1.0000 0.1478448972
H   H246      1.0  0.09180  0.47600  0.80045  1.0000 0.1478448972
C   C1        1.0  0.46950  0.55100  0.58650  1.0000 0.5912858387
C   C2        1.0  0.44900  0.91850  0.58650  1.0000 0.5912858387
C   C3        1.0  0.08150  0.53050  0.58650  1.0000 0.5912858387
C   C4        1.0  0.53050  0.44900  0.08650  1.0000 0.5912858387
C   C5        1.0  0.55100  0.08150  0.08650  1.0000 0.5912858387
C   C6        1.0  0.91850  0.46950  0.08650  1.0000 0.5912858387
C   C7        1.0  0.52450  0.31220  0.43368  1.0000 0.228636388
C   C8        1.0  0.68780  0.21230  0.43368  1.0000 0.228636388
C   C9        1.0  0.78770  0.47550  0.43368  1.0000 0.228636388
C   C10       1.0  0.47550  0.68780  0.93368  1.0000 0.228636388
C   C11       1.0  0.31220  0.78770  0.93368  1.0000 0.228636388
C   C12       1.0  0.21230  0.52450  0.93368  1.0000 0.228636388
C   C13       1.0  0.39450  0.26650  0.65100  1.0000 0.2556357185
C   C14       1.0  0.73350  0.12800  0.65100  1.0000 0.2556357185
C   C15       1.0  0.87200  0.60550  0.65100  1.0000 0.2556357185
C   C16       1.0  0.60550  0.73350  0.15100  1.0000 0.2556357185
C   C17       1.0  0.26650  0.87200  0.15100  1.0000 0.2548510174
C   C18       1.0  0.12800  0.39450  0.15100  1.0000 0.2556357185
C   C19       1.0  0.50010  0.17400  0.78140  1.0000 0.0681147044
C   C20       1.0  0.82600  0.32610  0.78140  1.0000 0.0681147044
C   C21       1.0  0.67390  0.49990  0.78140  1.0000 0.0681147044
C   C22       1.0  0.49990  0.82600  0.28140  1.0000 0.0681147044
C   C23       1.0  0.17400  0.67390  0.28140  1.0000 0.0681147044
C   C24       1.0  0.32610  0.50010  0.28140  1.0000 0.0681147044
C   C25       1.0  0.49590  0.32800  0.47020  1.0000 -0.0217026918
C   C26       1.0  0.67200  0.16790  0.47020  1.0000 -0.0217026918
C   C27       1.0  0.83210  0.50410  0.47020  1.0000 -0.0217026918
C   C28       1.0  0.50410  0.67200  0.97020  1.0000 -0.0217026918
C   C29       1.0  0.32800  0.83210  0.97020  1.0000 -0.0217026918
C   C30       1.0  0.16790  0.49590  0.97020  1.0000 -0.0217026918
C   C31       1.0  0.54700  0.03290  0.73460  1.0000 0.5912858387
C   C32       1.0  0.96710  0.51410  0.73460  1.0000 0.5912858387
C   C33       1.0  0.48590  0.45300  0.73460  1.0000 0.5912858387
C   C34       1.0  0.45300  0.96710  0.23460  1.0000 0.5912858387
C   C35       1.0  0.03290  0.48590  0.23460  1.0000 0.5912858387
C   C36       1.0  0.51410  0.54700  0.23460  1.0000 0.5912858387
C   C37       1.0  0.31670  0.33000  0.64530  1.0000 0.6081931631
C   C38       1.0  0.67000  0.98670  0.64530  1.0000 0.6081931631
C   C39       1.0  0.01330  0.68330  0.64530  1.0000 0.6081931631
C   C40       1.0  0.68330  0.67000  0.14530  1.0000 0.6081931631
C   C41       1.0  0.33000  0.01330  0.14530  1.0000 0.6081931631
C   C42       1.0  0.98670  0.31670  0.14530  1.0000 0.6081931631
C   C43       1.0  0.48600  0.20570  0.74270  1.0000 0.049801607
C   C44       1.0  0.79430  0.28030  0.74270  1.0000 0.049801607
C   C45       1.0  0.71970  0.51400  0.74270  1.0000 0.049801607
C   C46       1.0  0.51400  0.79430  0.24270  1.0000 0.049801607
C   C47       1.0  0.20570  0.71970  0.24270  1.0000 0.049801607
C   C48       1.0  0.28030  0.48600  0.24270  1.0000 0.049801607
C   C49       1.0  0.49180  0.53050  0.54470  1.0000 -0.1605053796
C   C50       1.0  0.46950  0.96130  0.54470  1.0000 -0.1605053796
C   C51       1.0  0.03870  0.50820  0.54470  1.0000 -0.1605053796
C   C52       1.0  0.50820  0.46950  0.04470  1.0000 -0.1605053796
C   C53       1.0  0.53050  0.03870  0.04470  1.0000 -0.1605053796
C   C54       1.0  0.96130  0.49180  0.04470  1.0000 -0.1605053796
C   C55       1.0  0.49180  0.17920  0.70106  1.0000 -0.0217026918
C   C56       1.0  0.82080  0.31260  0.70106  1.0000 -0.0217026918
C   C57       1.0  0.68740  0.50820  0.70106  1.0000 -0.0217026918
C   C58       1.0  0.50820  0.82080  0.20106  1.0000 -0.0217026918
C   C59       1.0  0.17920  0.68740  0.20106  1.0000 -0.0217026918
C   C60       1.0  0.31260  0.49180  0.20106  1.0000 -0.0217026918
C   C61       1.0  0.54870  0.39100  0.50105  1.0000 -0.2447780331
C   C62       1.0  0.60900  0.15770  0.50105  1.0000 -0.2447780331
C   C63       1.0  0.84230  0.45130  0.50105  1.0000 -0.2447780331
C   C64       1.0  0.45130  0.60900  0.00105  1.0000 -0.2447780331
C   C65       1.0  0.39100  0.84230  0.00105  1.0000 -0.2447780331
C   C66       1.0  0.15770  0.54870  0.00105  1.0000 -0.2447780331
C   C67       1.0  0.51450  0.12590  0.69836  1.0000 0.2401015029
C   C68       1.0  0.87410  0.38860  0.69836  1.0000 0.2401015029
C   C69       1.0  0.61140  0.48550  0.69836  1.0000 0.2401015029
C   C70       1.0  0.48550  0.87410  0.19836  1.0000 0.2401015029
C   C71       1.0  0.12590  0.61140  0.19836  1.0000 0.2401015029
C   C72       1.0  0.38860  0.51450  0.19836  1.0000 0.2401015029
C   C73       1.0  0.40030  0.20270  0.65630  1.0000 -0.0217026918
C   C74       1.0  0.79730  0.19760  0.65630  1.0000 -0.0217026918
C   C75       1.0  0.80240  0.59970  0.65630  1.0000 -0.0217026918
C   C76       1.0  0.59970  0.79730  0.15630  1.0000 -0.0217026918
C   C77       1.0  0.20270  0.80240  0.15630  1.0000 -0.0217026918
C   C78       1.0  0.19760  0.40030  0.15630  1.0000 -0.0217026918
C   C79       1.0  0.51080  0.47280  0.54219  1.0000 0.2401015029
C   C80       1.0  0.52720  0.03800  0.54219  1.0000 0.2401015029
C   C81       1.0  0.96200  0.48920  0.54219  1.0000 0.2401015029
C   C82       1.0  0.48920  0.52720  0.04219  1.0000 0.2401015029
C   C83       1.0  0.47280  0.96200  0.04219  1.0000 0.2401015029
C   C84       1.0  0.03800  0.51080  0.04219  1.0000 0.2401015029
C   C85       1.0  0.50690  0.24700  0.36030  1.0000 0.6081931631
C   C86       1.0  0.75300  0.25990  0.36030  1.0000 0.6081931631
C   C87       1.0  0.74010  0.49310  0.36030  1.0000 0.6081931631
C   C88       1.0  0.49310  0.75300  0.86030  1.0000 0.6081931631
C   C89       1.0  0.24700  0.74010  0.86030  1.0000 0.6081931631
C   C90       1.0  0.25990  0.50690  0.86030  1.0000 0.6081931631
C   C91       1.0  0.52730  0.09370  0.73620  1.0000 -0.1494939854
C   C92       1.0  0.90630  0.43360  0.73620  1.0000 -0.1494939854
C   C93       1.0  0.56640  0.47270  0.73620  1.0000 -0.1494939854
C   C94       1.0  0.47270  0.90630  0.23620  1.0000 -0.1494939854
C   C95       1.0  0.09370  0.56640  0.23620  1.0000 -0.1494939854
C   C96       1.0  0.43360  0.52730  0.23620  1.0000 -0.1494939854
C   C97       1.0  0.41660  0.28600  0.47870  1.0000 0.049801607
C   C98       1.0  0.71400  0.13060  0.47870  1.0000 0.049801607
C   C99       1.0  0.86940  0.58340  0.47870  1.0000 0.049801607
C   C100      1.0  0.58340  0.71400  0.97870  1.0000 0.049801607
C   C101      1.0  0.28600  0.86940  0.97870  1.0000 0.049801607
C   C102      1.0  0.13060  0.41660  0.97870  1.0000 0.049801607
C   C103      1.0  0.47830  0.26030  0.40130  1.0000 -0.1605053796
C   C104      1.0  0.73970  0.21800  0.40130  1.0000 -0.1605053796
C   C105      1.0  0.78200  0.52170  0.40130  1.0000 -0.1605053796
C   C106      1.0  0.52170  0.73970  0.90130  1.0000 -0.1605053796
C   C107      1.0  0.26030  0.78200  0.90130  1.0000 -0.1605053796
C   C108      1.0  0.21800  0.47830  0.90130  1.0000 -0.1605053796
C   C109      1.0  0.32320  0.26270  0.65130  1.0000 -0.1605053796
C   C110      1.0  0.73730  0.06050  0.65130  1.0000 -0.1605053796
C   C111      1.0  0.93950  0.67680  0.65130  1.0000 -0.1605053796
C   C112      1.0  0.67680  0.73730  0.15130  1.0000 -0.1605053796
C   C113      1.0  0.26270  0.93950  0.15130  1.0000 -0.1605053796
C   C114      1.0  0.06050  0.32320  0.15130  1.0000 -0.1605053796
C   C115      1.0  0.29730  0.35820  0.39480  1.0000 0.0600473455
C   C116      1.0  0.64180  0.93910  0.39480  1.0000 0.0600473455
C   C117      1.0  0.06090  0.70270  0.39480  1.0000 0.0600473455
C   C118      1.0  0.70270  0.64180  0.89480  1.0000 0.0600473455
C   C119      1.0  0.35820  0.06090  0.89480  1.0000 0.0600473455
C   C120      1.0  0.93910  0.29730  0.89480  1.0000 0.0600473455
C   C121      1.0  0.51910  0.11780  0.77640  1.0000 -0.1494939854
C   C122      1.0  0.88220  0.40130  0.77640  1.0000 -0.1494939854
C   C123      1.0  0.59870  0.48090  0.77640  1.0000 -0.1494939854
C   C124      1.0  0.48090  0.88220  0.27640  1.0000 -0.1494939854
C   C125      1.0  0.11780  0.59870  0.27640  1.0000 -0.1494939854
C   C126      1.0  0.40130  0.51910  0.27640  1.0000 -0.1494939854
C   C127      1.0  0.56840  0.48990  0.42530  1.0000 -0.1293575178
C   C128      1.0  0.51010  0.07850  0.42530  1.0000 -0.1293575178
C   C129      1.0  0.92150  0.43160  0.42530  1.0000 -0.1293575178
C   C130      1.0  0.43160  0.51010  0.92530  1.0000 -0.1293575178
C   C131      1.0  0.48990  0.92150  0.92530  1.0000 -0.1293575178
C   C132      1.0  0.07850  0.56840  0.92530  1.0000 -0.1293575178
C   C133      1.0  0.47730  0.21010  0.65944  1.0000 -0.2518103083
C   C134      1.0  0.78990  0.26720  0.65944  1.0000 -0.2518103083
C   C135      1.0  0.73280  0.52270  0.65944  1.0000 -0.2518103083
C   C136      1.0  0.52270  0.78990  0.15944  1.0000 -0.2518103083
C   C137      1.0  0.21010  0.73280  0.15944  1.0000 -0.2518103083
C   C138      1.0  0.26720  0.47730  0.15944  1.0000 -0.2518103083
C   C139      1.0  0.51860  0.55590  0.46750  1.0000 0.049801607
C   C140      1.0  0.44410  0.96270  0.46750  1.0000 0.049801607
C   C141      1.0  0.03730  0.48140  0.46750  1.0000 0.049801607
C   C142      1.0  0.48140  0.44410  0.96750  1.0000 0.049801607
C   C143      1.0  0.55590  0.03730  0.96750  1.0000 0.049801607
C   C144      1.0  0.96270  0.51860  0.96750  1.0000 0.049801607
C   C145      1.0  0.54020  0.49990  0.46510  1.0000 0.0422178081
C   C146      1.0  0.50010  0.04030  0.46510  1.0000 0.0422178081
C   C147      1.0  0.95970  0.45980  0.46510  1.0000 0.0422178081
C   C148      1.0  0.45980  0.50010  0.96510  1.0000 0.0422178081
C   C149      1.0  0.49990  0.95970  0.96510  1.0000 0.0422178081
C   C150      1.0  0.04030  0.54020  0.96510  1.0000 0.0422178081
C   C151      1.0  0.38670  0.23330  0.22040  1.0000 0.1131145044
C   C152      1.0  0.76670  0.15340  0.22040  1.0000 0.1131145044
C   C153      1.0  0.84660  0.61330  0.22040  1.0000 0.1131145044
C   C154      1.0  0.61330  0.76670  0.72040  1.0000 0.1131145044
C   C155      1.0  0.23330  0.84660  0.72040  1.0000 0.1131145044
C   C156      1.0  0.15340  0.38670  0.72040  1.0000 0.1131145044
C   C157      1.0  0.26930  0.41260  0.55290  1.0000 0.1297990699
C   C158      1.0  0.58740  0.85670  0.55290  1.0000 0.1297990699
C   C159      1.0  0.14330  0.73070  0.55290  1.0000 0.1297990699
C   C160      1.0  0.73070  0.58740  0.05290  1.0000 0.1297990699
C   C161      1.0  0.41260  0.14330  0.05290  1.0000 0.1297990699
C   C162      1.0  0.85670  0.26930  0.05290  1.0000 0.1297990699
C   C163      1.0  0.53240  0.45550  0.50298  1.0000 -0.0217026918
C   C164      1.0  0.54450  0.07690  0.50298  1.0000 -0.0217026918
C   C165      1.0  0.92310  0.46760  0.50298  1.0000 -0.0217026918
C   C166      1.0  0.46760  0.54450  0.00298  1.0000 -0.0217026918
C   C167      1.0  0.45550  0.92310  0.00298  1.0000 -0.0217026918
C   C168      1.0  0.07690  0.53240  0.00298  1.0000 -0.0217026918
C   C169      1.0  0.49490  0.56990  0.50740  1.0000 -0.1706903537
C   C170      1.0  0.43010  0.92500  0.50740  1.0000 -0.1706903537
C   C171      1.0  0.07500  0.50510  0.50740  1.0000 -0.1706903537
C   C172      1.0  0.50510  0.43010  0.00740  1.0000 -0.1706903537
C   C173      1.0  0.56990  0.07500  0.00740  1.0000 -0.1706903537
C   C174      1.0  0.92500  0.49490  0.00740  1.0000 -0.1706903537
C   C175      1.0  0.44710  0.35250  0.20650  1.0000 -0.076967434
C   C176      1.0  0.64750  0.09460  0.20650  1.0000 -0.076967434
C   C177      1.0  0.90540  0.55290  0.20650  1.0000 -0.076967434
C   C178      1.0  0.55290  0.64750  0.70650  1.0000 -0.076967434
C   C179      1.0  0.35250  0.90540  0.70650  1.0000 -0.076967434
C   C180      1.0  0.09460  0.44710  0.70650  1.0000 -0.076967434
C   C181      1.0  0.38290  0.29230  0.51720  1.0000 -0.1293575178
C   C182      1.0  0.70770  0.09060  0.51720  1.0000 -0.1293575178
C   C183      1.0  0.90940  0.61710  0.51720  1.0000 -0.1293575178
C   C184      1.0  0.61710  0.70770  0.01720  1.0000 -0.1293575178
C   C185      1.0  0.29230  0.90940  0.01720  1.0000 -0.1293575178
C   C186      1.0  0.09060  0.38290  0.01720  1.0000 -0.1293575178
C   C187      1.0  0.46160  0.31750  0.17490  1.0000 -0.046695745
C   C188      1.0  0.68250  0.14410  0.17490  1.0000 -0.046695745
C   C189      1.0  0.85590  0.53840  0.17490  1.0000 -0.046695745
C   C190      1.0  0.53840  0.68250  0.67490  1.0000 -0.046695745
C   C191      1.0  0.31750  0.85590  0.67490  1.0000 -0.046695745
C   C192      1.0  0.14410  0.46160  0.67490  1.0000 -0.046695745
C   C193      1.0  0.49440  0.19980  0.82320  1.0000 -0.1407695435
C   C194      1.0  0.80020  0.29460  0.82320  1.0000 -0.1407695435
C   C195      1.0  0.70540  0.50560  0.82320  1.0000 -0.1407695435
C   C196      1.0  0.50560  0.80020  0.32320  1.0000 -0.1407695435
C   C197      1.0  0.19980  0.70540  0.32320  1.0000 -0.1407695435
C   C198      1.0  0.29460  0.49440  0.32320  1.0000 -0.1407695435
C   C199      1.0  0.39990  0.22430  0.40750  1.0000 -0.1494939854
C   C200      1.0  0.77570  0.17560  0.40750  1.0000 -0.1494939854
C   C201      1.0  0.82440  0.60010  0.40750  1.0000 -0.1494939854
C   C202      1.0  0.60010  0.77570  0.90750  1.0000 -0.1494939854
C   C203      1.0  0.22430  0.82440  0.90750  1.0000 -0.1494939854
C   C204      1.0  0.17560  0.39990  0.90750  1.0000 -0.1494939854
C   C205      1.0  0.33260  0.13130  0.65740  1.0000 0.049801607
C   C206      1.0  0.86870  0.20130  0.65740  1.0000 0.049801607
C   C207      1.0  0.79870  0.66740  0.65740  1.0000 0.049801607
C   C208      1.0  0.66740  0.86870  0.15740  1.0000 0.049801607
C   C209      1.0  0.13130  0.79870  0.15740  1.0000 0.049801607
C   C210      1.0  0.20130  0.33260  0.15740  1.0000 0.049801607
C   C211      1.0  0.47600  0.25520  0.82770  1.0000 -0.1127189973
C   C212      1.0  0.74480  0.22080  0.82770  1.0000 -0.1127189973
C   C213      1.0  0.77920  0.52400  0.82770  1.0000 -0.1127189973
C   C214      1.0  0.52400  0.74480  0.32770  1.0000 -0.1127189973
C   C215      1.0  0.25520  0.77920  0.32770  1.0000 -0.1127189973
C   C216      1.0  0.22080  0.47600  0.32770  1.0000 -0.1127189973
C   C217      1.0  0.57320  0.53240  0.38870  1.0000 -0.0677791509
C   C218      1.0  0.46760  0.04080  0.38870  1.0000 -0.0677791509
C   C219      1.0  0.95920  0.42680  0.38870  1.0000 -0.0677791509
C   C220      1.0  0.42680  0.46760  0.88870  1.0000 -0.0677791509
C   C221      1.0  0.53240  0.95920  0.88870  1.0000 -0.0677791509
C   C222      1.0  0.04080  0.57320  0.88870  1.0000 -0.0677791509
C   C223      1.0  0.30630  0.25110  0.52250  1.0000 -0.1012255141
C   C224      1.0  0.74890  0.05520  0.52250  1.0000 -0.1012255141
C   C225      1.0  0.94480  0.69370  0.52250  1.0000 -0.1012255141
C   C226      1.0  0.69370  0.74890  0.02250  1.0000 -0.1012255141
C   C227      1.0  0.25110  0.94480  0.02250  1.0000 -0.1012255141
C   C228      1.0  0.05520  0.30630  0.02250  1.0000 -0.1012255141
C   C229      1.0  0.36900  0.23480  0.44530  1.0000 0.0600473455
C   C230      1.0  0.76520  0.13420  0.44530  1.0000 0.0600473455
C   C231      1.0  0.86580  0.63100  0.44530  1.0000 0.0600473455
C   C232      1.0  0.63100  0.76520  0.94530  1.0000 0.0600473455
C   C233      1.0  0.23480  0.86580  0.94530  1.0000 0.0600473455
C   C234      1.0  0.13420  0.36900  0.94530  1.0000 0.0600473455
C   C235      1.0  0.25350  0.38870  0.47420  1.0000 0.1589558425
C   C236      1.0  0.61130  0.86480  0.47420  1.0000 0.1589558425
C   C237      1.0  0.13520  0.74650  0.47420  1.0000 0.1589558425
C   C238      1.0  0.74650  0.61130  0.97420  1.0000 0.1589558425
C   C239      1.0  0.38870  0.13520  0.97420  1.0000 0.1589558425
C   C240      1.0  0.86480  0.25350  0.97420  1.0000 0.1589558425
C   C241      1.0  0.46970  0.26430  0.74910  1.0000 -0.1195114811
C   C242      1.0  0.73570  0.20540  0.74910  1.0000 -0.1195114811
C   C243      1.0  0.79460  0.53030  0.74910  1.0000 -0.1195114811
C   C244      1.0  0.53030  0.73570  0.24910  1.0000 -0.1195114811
C   C245      1.0  0.26430  0.79460  0.24910  1.0000 -0.1195114811
C   C246      1.0  0.20540  0.46970  0.24910  1.0000 -0.1195114811
C   C247      1.0  0.46350  0.28770  0.79030  1.0000 -0.0931083147
C   C248      1.0  0.71230  0.17580  0.79030  1.0000 -0.0931083147
C   C249      1.0  0.82420  0.53650  0.79030  1.0000 -0.0931083147
C   C250      1.0  0.53650  0.71230  0.29030  1.0000 -0.0931083147
C   C251      1.0  0.28770  0.82420  0.29030  1.0000 -0.0931083147
C   C252      1.0  0.17580  0.46350  0.29030  1.0000 -0.0931083147
C   C253      1.0  0.52230  0.59630  0.42900  1.0000 -0.1605053796
C   C254      1.0  0.40370  0.92600  0.42900  1.0000 -0.1605053796
C   C255      1.0  0.07400  0.47770  0.42900  1.0000 -0.1605053796
C   C256      1.0  0.47770  0.40370  0.92900  1.0000 -0.1605053796
C   C257      1.0  0.59630  0.07400  0.92900  1.0000 -0.1605053796
C   C258      1.0  0.92600  0.52230  0.92900  1.0000 -0.1605053796
C   C259      1.0  0.54800  0.58510  0.39070  1.0000 -0.1012255141
C   C260      1.0  0.41490  0.96290  0.39070  1.0000 -0.1012255141
C   C261      1.0  0.03710  0.45200  0.39070  1.0000 -0.1012255141
C   C262      1.0  0.45200  0.41490  0.89070  1.0000 -0.1012255141
C   C263      1.0  0.58510  0.03710  0.89070  1.0000 -0.1012255141
C   C264      1.0  0.96290  0.54800  0.89070  1.0000 -0.1012255141
C   C265      1.0  0.26810  0.99600  0.65740  1.0000 -0.0931083147
C   C266      1.0  0.00400  0.27210  0.65740  1.0000 -0.0931083147
C   C267      1.0  0.72790  0.73190  0.65740  1.0000 -0.0931083147
C   C268      1.0  0.73190  0.00400  0.15740  1.0000 -0.0931083147
C   C269      1.0  0.99600  0.72790  0.15740  1.0000 -0.0931083147
C   C270      1.0  0.27210  0.26810  0.15740  1.0000 -0.0931083147
C   C271      1.0  0.33450  0.06270  0.65650  1.0000 -0.1293575178
C   C272      1.0  0.93730  0.27180  0.65650  1.0000 -0.1293575178
C   C273      1.0  0.72820  0.66550  0.65650  1.0000 -0.1293575178
C   C274      1.0  0.66550  0.93730  0.15650  1.0000 -0.1293575178
C   C275      1.0  0.06270  0.72820  0.15650  1.0000 -0.1293575178
C   C276      1.0  0.27180  0.33450  0.15650  1.0000 -0.1293575178
C   C277      1.0  0.25940  0.20410  0.49070  1.0000 -0.1012255141
C   C278      1.0  0.79590  0.05530  0.49070  1.0000 -0.1012255141
C   C279      1.0  0.94470  0.74060  0.49070  1.0000 -0.1012255141
C   C280      1.0  0.74060  0.79590  0.99070  1.0000 -0.1012255141
C   C281      1.0  0.20410  0.94470  0.99070  1.0000 -0.1012255141
C   C282      1.0  0.05530  0.25940  0.99070  1.0000 -0.1012255141
C   C283      1.0  0.25910  0.19430  0.65580  1.0000 -0.1494939854
C   C284      1.0  0.80570  0.06480  0.65580  1.0000 -0.1494939854
C   C285      1.0  0.93520  0.74090  0.65580  1.0000 -0.1494939854
C   C286      1.0  0.74090  0.80570  0.15580  1.0000 -0.1494939854
C   C287      1.0  0.19430  0.93520  0.15580  1.0000 -0.1494939854
C   C288      1.0  0.06480  0.25910  0.15580  1.0000 -0.1494939854
C   C289      1.0  0.28940  0.19610  0.45230  1.0000 -0.1407695435
C   C290      1.0  0.80390  0.09330  0.45230  1.0000 -0.1407695435
C   C291      1.0  0.90670  0.71060  0.45230  1.0000 -0.1407695435
C   C292      1.0  0.71060  0.80390  0.95230  1.0000 -0.1407695435
C   C293      1.0  0.19610  0.90670  0.95230  1.0000 -0.1407695435
C   C294      1.0  0.09330  0.28940  0.95230  1.0000 -0.1407695435
C   C295      1.0  0.26190  0.12770  0.65790  1.0000 0.0600473455
C   C296      1.0  0.87230  0.13420  0.65790  1.0000 0.0600473455
C   C297      1.0  0.86580  0.73810  0.65790  1.0000 0.0600473455
C   C298      1.0  0.73810  0.87230  0.15790  1.0000 0.0600473455
C   C299      1.0  0.12770  0.86580  0.15790  1.0000 0.0600473455
C   C300      1.0  0.13420  0.26190  0.15790  1.0000 0.0600473455
C   C301      1.0  0.22330  0.33370  0.40330  1.0000 -0.1293575178
C   C302      1.0  0.66630  0.88960  0.40330  1.0000 -0.1293575178
C   C303      1.0  0.11040  0.77670  0.40330  1.0000 -0.1293575178
C   C304      1.0  0.77670  0.66630  0.90330  1.0000 -0.1293575178
C   C305      1.0  0.33370  0.11040  0.90330  1.0000 -0.1293575178
C   C306      1.0  0.88960  0.22330  0.90330  1.0000 -0.1293575178
C   C307      1.0  0.15890  0.38830  0.52800  1.0000 -0.1127189973
C   C308      1.0  0.61170  0.77060  0.52800  1.0000 -0.1127189973
C   C309      1.0  0.22940  0.84110  0.52800  1.0000 -0.1127189973
C   C310      1.0  0.84110  0.61170  0.02800  1.0000 -0.1127189973
C   C311      1.0  0.38830  0.22940  0.02800  1.0000 -0.1127189973
C   C312      1.0  0.77060  0.15890  0.02800  1.0000 -0.1127189973
C   C313      1.0  0.32500  0.41100  0.46680  1.0000 -0.1494939854
C   C314      1.0  0.58900  0.91400  0.46680  1.0000 -0.1494939854
C   C315      1.0  0.08600  0.67500  0.46680  1.0000 -0.1494939854
C   C316      1.0  0.67500  0.58900  0.96680  1.0000 -0.1494939854
C   C317      1.0  0.41100  0.08600  0.96680  1.0000 -0.1494939854
C   C318      1.0  0.91400  0.32500  0.96680  1.0000 -0.1494939854
C   C319      1.0  0.19860  0.34380  0.44380  1.0000 -0.1706903537
C   C320      1.0  0.65620  0.85480  0.44380  1.0000 -0.1706903537
C   C321      1.0  0.14520  0.80140  0.44380  1.0000 -0.1706903537
C   C322      1.0  0.80140  0.65620  0.94380  1.0000 -0.1706903537
C   C323      1.0  0.34380  0.14520  0.94380  1.0000 -0.1706903537
C   C324      1.0  0.85480  0.19860  0.94380  1.0000 -0.1706903537
C   C325      1.0  0.16460  0.40530  0.57020  1.0000 -0.0217026918
C   C326      1.0  0.59470  0.75930  0.57020  1.0000 -0.0217026918
C   C327      1.0  0.24070  0.83540  0.57020  1.0000 -0.0217026918
C   C328      1.0  0.83540  0.59470  0.07020  1.0000 -0.0217026918
C   C329      1.0  0.40530  0.24070  0.07020  1.0000 -0.0217026918
C   C330      1.0  0.75930  0.16460  0.07020  1.0000 -0.0217026918
C   C331      1.0  0.34760  0.39440  0.42650  1.0000 -0.1127189973
C   C332      1.0  0.60560  0.95320  0.42650  1.0000 -0.1127189973
C   C333      1.0  0.04680  0.65240  0.42650  1.0000 -0.1127189973
C   C334      1.0  0.65240  0.60560  0.92650  1.0000 -0.1127189973
C   C335      1.0  0.39440  0.04680  0.92650  1.0000 -0.1127189973
C   C336      1.0  0.95320  0.34760  0.92650  1.0000 -0.1127189973
C   C337      1.0  0.19880  0.99230  0.66040  1.0000 -0.1127189973
C   C338      1.0  0.00770  0.20650  0.66040  1.0000 -0.1127189973
C   C339      1.0  0.79350  0.80120  0.66040  1.0000 -0.1127189973
C   C340      1.0  0.80120  0.00770  0.16040  1.0000 -0.1127189973
C   C341      1.0  0.99230  0.79350  0.16040  1.0000 -0.1127189973
C   C342      1.0  0.20650  0.19880  0.16040  1.0000 -0.1127189973
C   C343      1.0  0.19420  0.05610  0.65930  1.0000 -0.1407695435
C   C344      1.0  0.94390  0.13810  0.65930  1.0000 -0.1407695435
C   C345      1.0  0.86190  0.80580  0.65930  1.0000 -0.1407695435
C   C346      1.0  0.80580  0.94390  0.15930  1.0000 -0.1407695435
C   C347      1.0  0.05610  0.86190  0.15930  1.0000 -0.1407695435
C   C348      1.0  0.13810  0.19420  0.15930  1.0000 -0.1407695435
C   C349      1.0  0.29690  0.28080  0.28310  1.0000 -0.1706903537
C   C350      1.0  0.71920  0.01610  0.28310  1.0000 -0.1706903537
C   C351      1.0  0.98390  0.70310  0.28310  1.0000 -0.1706903537
C   C352      1.0  0.70310  0.71920  0.78310  1.0000 -0.1706903537
C   C353      1.0  0.28080  0.98390  0.78310  1.0000 -0.1706903537
C   C354      1.0  0.01610  0.29690  0.78310  1.0000 -0.1706903537
C   C355      1.0  0.27160  0.29550  0.32180  1.0000 -0.1195114811
C   C356      1.0  0.70450  0.97610  0.32180  1.0000 -0.1195114811
C   C357      1.0  0.02390  0.72840  0.32180  1.0000 -0.1195114811
C   C358      1.0  0.72840  0.70450  0.82180  1.0000 -0.1195114811
C   C359      1.0  0.29550  0.02390  0.82180  1.0000 -0.1195114811
C   C360      1.0  0.97610  0.27160  0.82180  1.0000 -0.1195114811
C   C361      1.0  0.32280  0.34340  0.35254  1.0000 0.0681147044
C   C362      1.0  0.65660  0.97940  0.35254  1.0000 0.0681147044
C   C363      1.0  0.02060  0.67720  0.35254  1.0000 0.0681147044
C   C364      1.0  0.67720  0.65660  0.85254  1.0000 0.0681147044
C   C365      1.0  0.34340  0.02060  0.85254  1.0000 0.0681147044
C   C366      1.0  0.97940  0.32280  0.85254  1.0000 0.0681147044
C   C367      1.0  0.39940  0.37660  0.34454  1.0000 -0.1195114811
C   C368      1.0  0.62340  0.02280  0.34454  1.0000 -0.1195114811
C   C369      1.0  0.97720  0.60060  0.34454  1.0000 -0.1195114811
C   C370      1.0  0.60060  0.62340  0.84454  1.0000 -0.1195114811
C   C371      1.0  0.37660  0.97720  0.84454  1.0000 -0.1195114811
C   C372      1.0  0.02280  0.39940  0.84454  1.0000 -0.1195114811
C   C373      1.0  0.42480  0.36200  0.30580  1.0000 -0.1407695435
C   C374      1.0  0.63800  0.06280  0.30580  1.0000 -0.1407695435
C   C375      1.0  0.93720  0.57520  0.30580  1.0000 -0.1407695435
C   C376      1.0  0.57520  0.63800  0.80580  1.0000 -0.1407695435
C   C377      1.0  0.36200  0.93720  0.80580  1.0000 -0.1407695435
C   C378      1.0  0.06280  0.42480  0.80580  1.0000 -0.1407695435
C   C379      1.0  0.37350  0.31410  0.27507  1.0000 0.1589558425
C   C380      1.0  0.68590  0.05940  0.27507  1.0000 0.1589558425
C   C381      1.0  0.94060  0.62650  0.27507  1.0000 0.1589558425
C   C382      1.0  0.62650  0.68590  0.77507  1.0000 0.1589558425
C   C383      1.0  0.31410  0.94060  0.77507  1.0000 0.1589558425
C   C384      1.0  0.05940  0.37350  0.77507  1.0000 0.1589558425
N   N1        1.0  0.42250  0.24150  0.18336  1.0000 -0.2876687904
N   N2        1.0  0.75850  0.18100  0.18336  1.0000 -0.2876687904
N   N3        1.0  0.81900  0.57750  0.18336  1.0000 -0.2876687904
N   N4        1.0  0.57750  0.75850  0.68336  1.0000 -0.2876687904
N   N5        1.0  0.24150  0.81900  0.68336  1.0000 -0.2876687904
N   N6        1.0  0.18100  0.42250  0.68336  1.0000 -0.2876687904
N   N7        1.0  0.23460  0.42330  0.58640  1.0000 -0.282546248
N   N8        1.0  0.57670  0.81130  0.58640  1.0000 -0.282546248
N   N9        1.0  0.18870  0.76540  0.58640  1.0000 -0.282546248
N   N10       1.0  0.76540  0.57670  0.08640  1.0000 -0.282546248
N   N11       1.0  0.42330  0.18870  0.08640  1.0000 -0.282546248
N   N12       1.0  0.81130  0.23460  0.08640  1.0000 -0.282546248
N   N13       1.0  0.35490  0.51450  0.67330  1.0000 -0.7698402961
N   N14       1.0  0.48550  0.84040  0.67330  1.0000 -0.7698402961
N   N15       1.0  0.15960  0.64510  0.67330  1.0000 -0.7698402961
N   N16       1.0  0.64510  0.48550  0.17330  1.0000 -0.7698402961
N   N17       1.0  0.51450  0.15960  0.17330  1.0000 -0.7698402961
N   N18       1.0  0.84040  0.35490  0.17330  1.0000 -0.7698402961
N   N19       1.0  0.40020  0.30020  0.23570  1.0000 0.0172920509
N   N20       1.0  0.69980  0.10000  0.23570  1.0000 0.0172920509
N   N21       1.0  0.90000  0.59980  0.23570  1.0000 0.0172920509
N   N22       1.0  0.59980  0.69980  0.73570  1.0000 0.0172920509
N   N23       1.0  0.30020  0.90000  0.73570  1.0000 0.0172920509
N   N24       1.0  0.10000  0.40020  0.73570  1.0000 0.0172920509
N   N25       1.0  0.22920  0.39920  0.51660  1.0000 0.0136064992
N   N26       1.0  0.60080  0.83000  0.51660  1.0000 0.0136064992
N   N27       1.0  0.17000  0.77080  0.51660  1.0000 0.0136064992
N   N28       1.0  0.77080  0.60080  0.01660  1.0000 0.0136064992
N   N29       1.0  0.39920  0.17000  0.01660  1.0000 0.0136064992
N   N30       1.0  0.83000  0.22920  0.01660  1.0000 0.0136064992
O   O1        1.0  0.48330  0.52810  0.62231  1.0000 -0.6292553206
O   O2        1.0  0.47190  0.95520  0.62231  1.0000 -0.6292553206
O   O3        1.0  0.04480  0.51670  0.62231  1.0000 -0.6292553206
O   O4        1.0  0.51670  0.47190  0.12231  1.0000 -0.6292553206
O   O5        1.0  0.52810  0.04480  0.12231  1.0000 -0.6292553206
O   O6        1.0  0.95520  0.48330  0.12231  1.0000 -0.6292553206
O   O7        1.0  0.36890  0.38800  0.62691  1.0000 -0.6123237272
O   O8        1.0  0.61200  0.98090  0.62691  1.0000 -0.6123237272
O   O9        1.0  0.01910  0.63110  0.62691  1.0000 -0.6123237272
O   O10       1.0  0.63110  0.61200  0.12691  1.0000 -0.6123237272
O   O11       1.0  0.38800  0.01910  0.12691  1.0000 -0.6123237272
O   O12       1.0  0.98090  0.36890  0.12691  1.0000 -0.6123237272
O   O13       1.0  0.45740  0.33440  0.64860  1.0000 -0.6221090938
O   O14       1.0  0.66560  0.12300  0.64860  1.0000 -0.6221090938
O   O15       1.0  0.87700  0.54260  0.64860  1.0000 -0.6221090938
O   O16       1.0  0.54260  0.66560  0.14860  1.0000 -0.6221090938
O   O17       1.0  0.33440  0.87700  0.14860  1.0000 -0.6221090938
O   O18       1.0  0.12300  0.45740  0.14860  1.0000 -0.6221090938
O   O19       1.0  0.50580  0.43320  0.57813  1.0000 -0.6221090938
O   O20       1.0  0.56680  0.07260  0.57813  1.0000 -0.6221090938
O   O21       1.0  0.92740  0.49420  0.57813  1.0000 -0.6221090938
O   O22       1.0  0.49420  0.56680  0.07813  1.0000 -0.6221090938
O   O23       1.0  0.43320  0.92740  0.07813  1.0000 -0.6221090938
O   O24       1.0  0.07260  0.50580  0.07813  1.0000 -0.6221090938
O   O25       1.0  0.52320  0.10420  0.65823  1.0000 -0.6221090938
O   O26       1.0  0.89580  0.41900  0.65823  1.0000 -0.6221090938
O   O27       1.0  0.58100  0.47680  0.65823  1.0000 -0.6221090938
O   O28       1.0  0.47680  0.89580  0.15823  1.0000 -0.6221090938
O   O29       1.0  0.10420  0.58100  0.15823  1.0000 -0.6221090938
O   O30       1.0  0.41900  0.52320  0.15823  1.0000 -0.6221090938
O   O31       1.0  0.55100  0.00680  0.69766  1.0000 -0.6221090938
O   O32       1.0  0.99320  0.54420  0.69766  1.0000 -0.6221090938
O   O33       1.0  0.45580  0.44900  0.69766  1.0000 -0.6221090938
O   O34       1.0  0.44900  0.99320  0.19766  1.0000 -0.6221090938
O   O35       1.0  0.00680  0.45580  0.19766  1.0000 -0.6221090938
O   O36       1.0  0.54420  0.55100  0.19766  1.0000 -0.6221090938
O   O37       1.0  0.55490  0.00670  0.76928  1.0000 -0.5116946757
O   O38       1.0  0.99330  0.54820  0.76928  1.0000 -0.5116946757
O   O39       1.0  0.45180  0.44510  0.76928  1.0000 -0.5116946757
O   O40       1.0  0.44510  0.99330  0.26928  1.0000 -0.5116946757
O   O41       1.0  0.00670  0.45180  0.26928  1.0000 -0.5116946757
O   O42       1.0  0.54820  0.55490  0.26928  1.0000 -0.5116946757
O   O43       1.0  0.59980  0.34990  0.42781  1.0000 -0.6019903481
O   O44       1.0  0.65010  0.24990  0.42781  1.0000 -0.6019903481
O   O45       1.0  0.75010  0.40020  0.42781  1.0000 -0.6019903481
O   O46       1.0  0.40020  0.65010  0.92781  1.0000 -0.6019903481
O   O47       1.0  0.34990  0.75010  0.92781  1.0000 -0.6019903481
O   O48       1.0  0.24990  0.59980  0.92781  1.0000 -0.6019903481
O   O49       1.0  0.57850  0.27640  0.35521  1.0000 -0.6019903481
O   O50       1.0  0.72360  0.30210  0.35521  1.0000 -0.6019903481
O   O51       1.0  0.69790  0.42150  0.35521  1.0000 -0.6019903481
O   O52       1.0  0.42150  0.72360  0.85521  1.0000 -0.6019903481
O   O53       1.0  0.27640  0.69790  0.85521  1.0000 -0.6019903481
O   O54       1.0  0.30210  0.57850  0.85521  1.0000 -0.6019903481
O   O55       1.0  0.44080  0.59150  0.58587  1.0000 -0.5116946757
O   O56       1.0  0.40850  0.84930  0.58587  1.0000 -0.5116946757
O   O57       1.0  0.15070  0.55920  0.58587  1.0000 -0.5116946757
O   O58       1.0  0.55920  0.40850  0.08587  1.0000 -0.5116946757
O   O59       1.0  0.59150  0.15070  0.08587  1.0000 -0.5116946757
O   O60       1.0  0.84930  0.44080  0.08587  1.0000 -0.5116946757
O   O61       1.0  0.25760  0.32880  0.65690  1.0000 -0.5116946757
O   O62       1.0  0.67120  0.92880  0.65690  1.0000 -0.5116946757
O   O63       1.0  0.07120  0.74240  0.65690  1.0000 -0.5116946757
O   O64       1.0  0.74240  0.67120  0.15690  1.0000 -0.5116946757
O   O65       1.0  0.32880  0.07120  0.15690  1.0000 -0.5116946757
O   O66       1.0  0.92880  0.25760  0.15690  1.0000 -0.5116946757
O   O67       1.0  0.46270  0.20970  0.33060  1.0000 -0.5335303207
O   O68       1.0  0.79030  0.25300  0.33060  1.0000 -0.5335303207
O   O69       1.0  0.74700  0.53730  0.33060  1.0000 -0.5335303207
O   O70       1.0  0.53730  0.79030  0.83060  1.0000 -0.5335303207
O   O71       1.0  0.20970  0.74700  0.83060  1.0000 -0.5335303207
O   O72       1.0  0.25300  0.46270  0.83060  1.0000 -0.5335303207
