# DDEC6 charges by PACMAN v1.1 (https://github.com/mtap-research/PACMAN-charge/)
data_2023[Cu][rob]3[ASR]1
_chemical_formula_sum              "Cu4 H40 C44 N8 O20"
_cell_length_a       15.3249
_cell_length_b       15.3249
_cell_length_c       8.645
_cell_angle_alpha    84.8541
_cell_angle_beta     95.1459
_cell_angle_gamma    129

_symmetry_space_group_name_H-M    "P 1"
_symmetry_Int_Tables_number       1

loop_
  _symmetry_equiv_pos_as_xyz
  'x, y, z'

loop_
  _atom_site_type_symbol
  _atom_site_label
  _atom_site_symmetry_multiplicity
  _atom_site_fract_x
  _atom_site_fract_y
  _atom_site_fract_z
  _atom_site_occupancy
  _atom_site_charge
Cu  Cu1       1.0  0.91511  0.49443  0.53767  1.0000 0.7565577195
Cu  Cu2       1.0  0.49443  0.91511  0.96233  1.0000 0.7565577195
Cu  Cu3       1.0  0.08489  0.50557  0.46233  1.0000 0.7565577195
Cu  Cu4       1.0  0.50557  0.08489  0.03767  1.0000 0.7565577195
H   H1        1.0  0.08807  0.71361  0.89471  1.0000 0.1012818541
H   H2        1.0  0.71361  0.08807  0.60529  1.0000 0.1012818541
H   H3        1.0  0.91193  0.28639  0.10529  1.0000 0.1012818541
H   H4        1.0  0.28639  0.91193  0.39471  1.0000 0.1012818541
H   H5        1.0  0.12507  0.64977  0.99290  1.0000 0.1012818541
H   H6        1.0  0.64977  0.12507  0.50710  1.0000 0.1012818541
H   H7        1.0  0.87493  0.35023  0.00710  1.0000 0.1012818541
H   H8        1.0  0.35023  0.87493  0.49290  1.0000 0.1012818541
H   H9        1.0  0.53040  0.28584  0.75954  1.0000 0.1414967642
H   H10       1.0  0.28584  0.53040  0.74046  1.0000 0.1483580694
H   H11       1.0  0.46960  0.71416  0.24046  1.0000 0.1414967642
H   H12       1.0  0.71416  0.46960  0.25954  1.0000 0.1483580694
H   H13       1.0  0.73075  0.61731  0.81727  1.0000 0.1414967642
H   H14       1.0  0.61731  0.73075  0.68273  1.0000 0.1414967642
H   H15       1.0  0.26925  0.38269  0.18273  1.0000 0.1414967642
H   H16       1.0  0.38269  0.26925  0.31727  1.0000 0.1414967642
H   H17       1.0  0.86306  0.63580  0.67828  1.0000 0.1192225187
H   H18       1.0  0.63580  0.86306  0.82172  1.0000 0.1192225187
H   H19       1.0  0.13694  0.36420  0.32172  1.0000 0.1192225187
H   H20       1.0  0.36420  0.13694  0.17828  1.0000 0.1192225187
H   H21       1.0  0.16664  0.76070  0.20795  1.0000 0.1483580694
H   H22       1.0  0.76070  0.16664  0.29205  1.0000 0.1483580694
H   H23       1.0  0.83336  0.23930  0.79205  1.0000 0.1483580694
H   H24       1.0  0.23930  0.83336  0.70795  1.0000 0.1483580694
H   H25       1.0  0.14304  0.83048  0.09613  1.0000 0.1414967642
H   H26       1.0  0.83048  0.14304  0.40387  1.0000 0.1414967642
H   H27       1.0  0.85696  0.16952  0.90387  1.0000 0.1414967642
H   H28       1.0  0.16952  0.85696  0.59613  1.0000 0.1414967642
H   H29       1.0  0.66981  0.31331  0.62642  1.0000 0.1192225187
H   H30       1.0  0.31331  0.66981  0.87358  1.0000 0.1192225187
H   H31       1.0  0.33019  0.68669  0.37358  1.0000 0.1192225187
H   H32       1.0  0.68669  0.33019  0.12642  1.0000 0.1192225187
H   H33       1.0  0.92790  0.54242  0.99337  1.0000 0.1483580694
H   H34       1.0  0.54242  0.92790  0.50663  1.0000 0.1483580694
H   H35       1.0  0.07210  0.45758  0.00663  1.0000 0.1483580694
H   H36       1.0  0.45758  0.07210  0.49337  1.0000 0.1483580694
H   H37       1.0  0.94258  0.64144  0.06564  1.0000 0.1414967642
H   H38       1.0  0.64144  0.94258  0.43436  1.0000 0.1414967642
H   H39       1.0  0.05742  0.35856  0.93436  1.0000 0.1414967642
H   H40       1.0  0.35856  0.05742  0.56564  1.0000 0.1414967642
C   C1        1.0  0.09336  0.68764  0.99900  1.0000 -0.0881165865
C   C2        1.0  0.68764  0.09336  0.50100  1.0000 -0.0881165865
C   C3        1.0  0.90664  0.31236  0.00100  1.0000 -0.0881165865
C   C4        1.0  0.31236  0.90664  0.49900  1.0000 -0.0881165865
C   C5        1.0  0.97614  0.55746  0.22460  1.0000 0.6243997381
C   C6        1.0  0.55746  0.97614  0.27540  1.0000 0.6243997381
C   C7        1.0  0.02386  0.44254  0.77540  1.0000 0.6243997381
C   C8        1.0  0.44254  0.02386  0.72460  1.0000 0.6243997381
C   C9        1.0  0.59769  0.35791  0.74480  1.0000 -0.1322950557
C   C10       1.0  0.35791  0.59769  0.75520  1.0000 -0.1322950557
C   C11       1.0  0.40231  0.64209  0.25520  1.0000 -0.1322950557
C   C12       1.0  0.64209  0.40231  0.24480  1.0000 -0.1322950557
C   C13       1.0  0.71607  0.55433  0.77860  1.0000 -0.1322950557
C   C14       1.0  0.55433  0.71607  0.72140  1.0000 -0.1322950557
C   C15       1.0  0.28393  0.44567  0.22140  1.0000 -0.1322950557
C   C16       1.0  0.44567  0.28393  0.27860  1.0000 -0.1322950557
C   C17       1.0  0.79534  0.56446  0.69550  1.0000 0.1012818541
C   C18       1.0  0.56446  0.79534  0.80450  1.0000 0.1012818541
C   C19       1.0  0.20466  0.43554  0.30450  1.0000 0.1012818541
C   C20       1.0  0.43554  0.20466  0.19550  1.0000 0.1012818541
C   C21       1.0  0.52140  0.42800  0.88580  1.0000 0.4001502261
C   C22       1.0  0.42800  0.52140  0.61420  1.0000 0.4001502261
C   C23       1.0  0.47860  0.57200  0.11420  1.0000 0.4001502261
C   C24       1.0  0.57200  0.47860  0.38580  1.0000 0.4001502261
C   C25       1.0  0.17079  0.78821  0.10120  1.0000 -0.3223314941
C   C26       1.0  0.78821  0.17079  0.39880  1.0000 -0.3223314941
C   C27       1.0  0.82921  0.21179  0.89880  1.0000 -0.3223314941
C   C28       1.0  0.21179  0.82921  0.60120  1.0000 -0.3223314941
C   C29       1.0  0.61463  0.44857  0.80280  1.0000 0.0457165108
C   C30       1.0  0.44857  0.61463  0.69720  1.0000 0.0457165108
C   C31       1.0  0.38537  0.55143  0.19720  1.0000 0.0457165108
C   C32       1.0  0.55143  0.38537  0.30280  1.0000 0.0457165108
C   C33       1.0  0.29290  0.86730  0.05880  1.0000 0.6259989903
C   C34       1.0  0.86730  0.29290  0.44120  1.0000 0.6259989903
C   C35       1.0  0.70710  0.13270  0.94120  1.0000 0.6259989903
C   C36       1.0  0.13270  0.70710  0.55880  1.0000 0.6259989903
C   C37       1.0  0.68183  0.37517  0.66420  1.0000 0.1012818541
C   C38       1.0  0.37517  0.68183  0.83580  1.0000 0.1012818541
C   C39       1.0  0.31817  0.62483  0.33580  1.0000 0.0947605983
C   C40       1.0  0.62483  0.31817  0.16420  1.0000 0.0947605983
C   C41       1.0  0.97512  0.60408  0.06290  1.0000 -0.3223314941
C   C42       1.0  0.60408  0.97512  0.43710  1.0000 -0.3223314941
C   C43       1.0  0.02488  0.39592  0.93710  1.0000 -0.3223314941
C   C44       1.0  0.39592  0.02488  0.56290  1.0000 -0.3223314941
N   N1        1.0  0.77962  0.47698  0.63860  1.0000 -0.2373720392
N   N2        1.0  0.47698  0.77962  0.86140  1.0000 -0.2373720392
N   N3        1.0  0.22038  0.52302  0.36140  1.0000 -0.2373720392
N   N4        1.0  0.52302  0.22038  0.13860  1.0000 -0.2373720392
N   N5        1.0  0.54416  0.51124  0.96220  1.0000 -0.2820587366
N   N6        1.0  0.51124  0.54416  0.53780  1.0000 -0.2820587366
N   N7        1.0  0.45584  0.48876  0.03780  1.0000 -0.2820587366
N   N8        1.0  0.48876  0.45584  0.46220  1.0000 -0.2820587366
O   O1        1.0  0.04626  0.54128  0.25540  1.0000 -0.5127852891
O   O2        1.0  0.54128  0.04626  0.24460  1.0000 -0.5127852891
O   O3        1.0  0.95374  0.45872  0.74460  1.0000 -0.5127852891
O   O4        1.0  0.45872  0.95374  0.75540  1.0000 -0.5127852891
O   O5        1.0  0.34411  0.96987  0.07440  1.0000 -0.5171031787
O   O6        1.0  0.96987  0.34411  0.42560  1.0000 -0.5171031787
O   O7        1.0  0.65589  0.03013  0.92560  1.0000 -0.5171031787
O   O8        1.0  0.03013  0.65589  0.57440  1.0000 -0.5171031787
O   O9        1.0  0.33520  0.82638  0.01490  1.0000 -0.5127852891
O   O10       1.0  0.82638  0.33520  0.48510  1.0000 -0.5127852891
O   O11       1.0  0.66480  0.17362  0.98510  1.0000 -0.5127852891
O   O12       1.0  0.17362  0.66480  0.51490  1.0000 -0.5127852891
O   O13       1.0  0.90768  0.53966  0.31850  1.0000 -0.5127852891
O   O14       1.0  0.53966  0.90768  0.18150  1.0000 -0.5127852891
O   O15       1.0  0.09232  0.46034  0.68150  1.0000 -0.5127852891
O   O16       1.0  0.46034  0.09232  0.81850  1.0000 -0.5127852891
O   O17       1.0  0.42700  0.33820  0.87280  1.0000 -0.3870093509
O   O18       1.0  0.33820  0.42700  0.62720  1.0000 -0.3870093509
O   O19       1.0  0.57300  0.66180  0.12720  1.0000 -0.3870093509
O   O20       1.0  0.66180  0.57300  0.37280  1.0000 -0.3870093509
