# DDEC6 charges by PACMAN v1.1 (https://github.com/mtap-research/PACMAN-charge/)
data_2023[ZnTi][nan]3[ASR]6
_chemical_formula_sum              "Ti8 Zn6 H246 C384 N30 O72"
_cell_length_a       20.6444
_cell_length_b       20.6444
_cell_length_c       30.708
_cell_angle_alpha    90
_cell_angle_beta     90
_cell_angle_gamma    120

_symmetry_space_group_name_H-M    "P 1"
_symmetry_Int_Tables_number       1

loop_
  _symmetry_equiv_pos_as_xyz
  'x, y, z'

loop_
  _atom_site_type_symbol
  _atom_site_label
  _atom_site_symmetry_multiplicity
  _atom_site_fract_x
  _atom_site_fract_y
  _atom_site_fract_z
  _atom_site_occupancy
  _atom_site_charge
Ti  Ti1       1.0  0.51498  0.56668  0.56573  1.0000 1.9031450007
Ti  Ti2       1.0  0.94830  0.51498  0.06573  1.0000 1.9031450007
Ti  Ti3       1.0  0.43332  0.94830  0.56573  1.0000 1.9031450007
Ti  Ti4       1.0  0.48502  0.43332  0.06573  1.0000 1.9031450007
Ti  Ti5       1.0  0.05170  0.48502  0.56573  1.0000 1.9031450007
Ti  Ti6       1.0  0.56668  0.05170  0.06573  1.0000 1.9031450007
Ti  Ti7       1.0  0.33333  0.66667  0.32508  1.0000 1.9031450007
Ti  Ti8       1.0  0.66667  0.33333  0.82508  1.0000 1.9031450007
Zn  Zn1       1.0  0.73439  0.57352  0.57557  1.0000 0.7401798769
Zn  Zn2       1.0  0.16087  0.73439  0.07557  1.0000 0.7401798769
Zn  Zn3       1.0  0.42648  0.16087  0.57557  1.0000 0.7401798769
Zn  Zn4       1.0  0.26561  0.42648  0.07557  1.0000 0.7401798769
Zn  Zn5       1.0  0.83913  0.26561  0.57557  1.0000 0.7401798769
Zn  Zn6       1.0  0.57352  0.83913  0.07557  1.0000 0.7401798769
H   H1        1.0  0.72559  0.04629  0.58133  1.0000 0.103699055
H   H2        1.0  0.67930  0.72559  0.08133  1.0000 0.103699055
H   H3        1.0  0.95371  0.67930  0.58133  1.0000 0.103699055
H   H4        1.0  0.27441  0.95371  0.08133  1.0000 0.103699055
H   H5        1.0  0.32070  0.27441  0.58133  1.0000 0.103699055
H   H6        1.0  0.04629  0.32070  0.08133  1.0000 0.103699055
H   H7        1.0  0.41708  0.54825  0.35169  1.0000 0.1309900919
H   H8        1.0  0.86883  0.41708  0.85169  1.0000 0.1309900919
H   H9        1.0  0.45175  0.86883  0.35169  1.0000 0.1309900919
H   H10       1.0  0.58292  0.45175  0.85169  1.0000 0.1309900919
H   H11       1.0  0.13117  0.58292  0.35169  1.0000 0.1309900919
H   H12       1.0  0.54825  0.13117  0.85169  1.0000 0.1309900919
H   H13       1.0  0.64632  0.81407  0.16032  1.0000 0.1309900919
H   H14       1.0  0.83225  0.64632  0.66032  1.0000 0.1309900919
H   H15       1.0  0.18593  0.83225  0.16032  1.0000 0.1309900919
H   H16       1.0  0.35368  0.18593  0.66032  1.0000 0.1309900919
H   H17       1.0  0.16775  0.35368  0.16032  1.0000 0.1309900919
H   H18       1.0  0.81407  0.16775  0.66032  1.0000 0.1309900919
H   H19       1.0  0.60613  0.49209  0.59766  1.0000 0.3103582333
H   H20       1.0  0.11404  0.60613  0.09766  1.0000 0.3103582333
H   H21       1.0  0.50791  0.11404  0.59766  1.0000 0.3103582333
H   H22       1.0  0.39387  0.50791  0.09766  1.0000 0.3103582333
H   H23       1.0  0.88596  0.39387  0.59766  1.0000 0.3103582333
H   H24       1.0  0.49209  0.88596  0.09766  1.0000 0.3103582333
H   H25       1.0  0.65345  0.47893  0.62713  1.0000 0.3103582333
H   H26       1.0  0.17452  0.65345  0.12713  1.0000 0.3103582333
H   H27       1.0  0.52107  0.17452  0.62713  1.0000 0.3103582333
H   H28       1.0  0.34655  0.52107  0.12713  1.0000 0.3103582333
H   H29       1.0  0.82548  0.34655  0.62713  1.0000 0.3103582333
H   H30       1.0  0.47893  0.82548  0.12713  1.0000 0.3103582333
H   H31       1.0  0.63611  0.44483  0.58417  1.0000 0.3103582333
H   H32       1.0  0.19128  0.63611  0.08417  1.0000 0.3103582333
H   H33       1.0  0.55517  0.19128  0.58417  1.0000 0.3103582333
H   H34       1.0  0.36389  0.55517  0.08417  1.0000 0.3103582333
H   H35       1.0  0.80872  0.36389  0.58417  1.0000 0.3103582333
H   H36       1.0  0.44483  0.80872  0.08417  1.0000 0.3103582333
H   H37       1.0  0.72022  0.74095  0.47142  1.0000 0.1135024514
H   H38       1.0  0.97927  0.72022  0.97142  1.0000 0.1135024514
H   H39       1.0  0.25905  0.97927  0.47142  1.0000 0.1135024514
H   H40       1.0  0.27978  0.25905  0.97142  1.0000 0.1135024514
H   H41       1.0  0.02073  0.27978  0.47142  1.0000 0.1135024514
H   H42       1.0  0.74095  0.02073  0.97142  1.0000 0.1135024514
H   H43       1.0  0.51800  0.39456  0.43757  1.0000 0.1135024514
H   H44       1.0  0.12344  0.51800  0.93757  1.0000 0.1135024514
H   H45       1.0  0.60544  0.12344  0.43757  1.0000 0.1135024514
H   H46       1.0  0.48200  0.60544  0.93757  1.0000 0.1135024514
H   H47       1.0  0.87656  0.48200  0.43757  1.0000 0.1135024514
H   H48       1.0  0.39456  0.87656  0.93757  1.0000 0.1135024514
H   H49       1.0  0.47756  0.90676  0.73045  1.0000 0.1207851968
H   H50       1.0  0.57080  0.47756  0.23045  1.0000 0.1207851968
H   H51       1.0  0.09324  0.57080  0.73045  1.0000 0.1207851968
H   H52       1.0  0.52244  0.09324  0.23045  1.0000 0.1207851968
H   H53       1.0  0.42920  0.52244  0.73045  1.0000 0.1207851968
H   H54       1.0  0.90676  0.42920  0.23045  1.0000 0.1207851968
H   H55       1.0  0.59433  0.67667  0.46412  1.0000 0.1207851968
H   H56       1.0  0.91766  0.59433  0.96412  1.0000 0.1207851968
H   H57       1.0  0.32333  0.91766  0.46412  1.0000 0.1207851968
H   H58       1.0  0.40567  0.32333  0.96412  1.0000 0.1207851968
H   H59       1.0  0.08234  0.40567  0.46412  1.0000 0.1207851968
H   H60       1.0  0.67667  0.08234  0.96412  1.0000 0.1207851968
H   H61       1.0  0.63069  0.80994  0.31264  1.0000 0.1207851968
H   H62       1.0  0.82075  0.63069  0.81264  1.0000 0.1207851968
H   H63       1.0  0.19006  0.82075  0.31264  1.0000 0.1207851968
H   H64       1.0  0.36931  0.19006  0.81264  1.0000 0.1207851968
H   H65       1.0  0.17925  0.36931  0.31264  1.0000 0.1207851968
H   H66       1.0  0.80994  0.17925  0.81264  1.0000 0.1207851968
H   H67       1.0  0.46123  0.63352  0.45826  1.0000 0.1309900919
H   H68       1.0  0.82771  0.46123  0.95826  1.0000 0.1309900919
H   H69       1.0  0.36648  0.82771  0.45826  1.0000 0.1309900919
H   H70       1.0  0.53877  0.36648  0.95826  1.0000 0.1309900919
H   H71       1.0  0.17229  0.53877  0.45826  1.0000 0.1309900919
H   H72       1.0  0.63352  0.17229  0.95826  1.0000 0.1309900919
H   H73       1.0  0.40398  0.59475  0.42028  1.0000 0.1309900919
H   H74       1.0  0.80923  0.40398  0.92028  1.0000 0.1309900919
H   H75       1.0  0.40525  0.80923  0.42028  1.0000 0.1309900919
H   H76       1.0  0.59602  0.40525  0.92028  1.0000 0.1309900919
H   H77       1.0  0.19077  0.59602  0.42028  1.0000 0.1309900919
H   H78       1.0  0.59475  0.19077  0.92028  1.0000 0.1309900919
H   H79       1.0  0.50558  0.82781  0.77672  1.0000 0.1207851968
H   H80       1.0  0.67777  0.50558  0.27672  1.0000 0.1207851968
H   H81       1.0  0.17219  0.67777  0.77672  1.0000 0.1207851968
H   H82       1.0  0.49442  0.17219  0.27672  1.0000 0.1207851968
H   H83       1.0  0.32223  0.49442  0.77672  1.0000 0.1207851968
H   H84       1.0  0.82781  0.32223  0.27672  1.0000 0.1207851968
H   H85       1.0  0.68495  0.58832  0.48201  1.0000 0.1309900919
H   H86       1.0  0.09663  0.68495  0.98201  1.0000 0.1309900919
H   H87       1.0  0.41168  0.09663  0.48201  1.0000 0.1309900919
H   H88       1.0  0.31505  0.41168  0.98201  1.0000 0.1309900919
H   H89       1.0  0.90337  0.31505  0.48201  1.0000 0.1309900919
H   H90       1.0  0.58832  0.90337  0.98201  1.0000 0.1309900919
H   H91       1.0  0.78491  0.80792  0.58306  1.0000 0.1207851968
H   H92       1.0  0.97699  0.78491  0.08306  1.0000 0.1207851968
H   H93       1.0  0.19208  0.97699  0.58306  1.0000 0.1207851968
H   H94       1.0  0.21509  0.19208  0.08306  1.0000 0.1207851968
H   H95       1.0  0.02301  0.21509  0.58306  1.0000 0.1207851968
H   H96       1.0  0.80792  0.02301  0.08306  1.0000 0.1207851968
H   H97       1.0  0.52899  0.59672  0.13787  1.0000 0.149382797
H   H98       1.0  0.93227  0.52899  0.63787  1.0000 0.149382797
H   H99       1.0  0.40328  0.93227  0.13787  1.0000 0.149382797
H   H100      1.0  0.47101  0.40328  0.63787  1.0000 0.149382797
H   H101      1.0  0.06773  0.47101  0.13787  1.0000 0.149382797
H   H102      1.0  0.59672  0.06773  0.63787  1.0000 0.149382797
H   H103      1.0  0.48641  0.36645  0.35903  1.0000 0.1135024514
H   H104      1.0  0.11996  0.48641  0.85903  1.0000 0.1135024514
H   H105      1.0  0.63355  0.11996  0.35903  1.0000 0.1135024514
H   H106      1.0  0.51359  0.63355  0.85903  1.0000 0.1135024514
H   H107      1.0  0.88004  0.51359  0.35903  1.0000 0.1135024514
H   H108      1.0  0.36645  0.88004  0.85903  1.0000 0.1135024514
H   H109      1.0  0.52902  0.73181  0.78495  1.0000 0.1135024514
H   H110      1.0  0.79721  0.52902  0.28495  1.0000 0.1135024514
H   H111      1.0  0.26819  0.79721  0.78495  1.0000 0.1135024514
H   H112      1.0  0.47098  0.26819  0.28495  1.0000 0.1135024514
H   H113      1.0  0.20279  0.47098  0.78495  1.0000 0.1135024514
H   H114      1.0  0.73181  0.20279  0.28495  1.0000 0.1135024514
H   H115      1.0  0.53505  0.71249  0.65468  1.0000 0.1207851968
H   H116      1.0  0.82256  0.53505  0.15468  1.0000 0.1207851968
H   H117      1.0  0.28751  0.82256  0.65468  1.0000 0.1207851968
H   H118      1.0  0.46495  0.28751  0.15468  1.0000 0.1207851968
H   H119      1.0  0.17744  0.46495  0.65468  1.0000 0.1207851968
H   H120      1.0  0.71249  0.17744  0.15468  1.0000 0.1207851968
H   H121      1.0  0.74324  0.83609  0.35423  1.0000 0.1207851968
H   H122      1.0  0.90715  0.74324  0.85423  1.0000 0.1207851968
H   H123      1.0  0.16391  0.90715  0.35423  1.0000 0.1207851968
H   H124      1.0  0.25676  0.16391  0.85423  1.0000 0.1207851968
H   H125      1.0  0.09285  0.25676  0.35423  1.0000 0.1207851968
H   H126      1.0  0.83609  0.09285  0.85423  1.0000 0.1207851968
H   H127      1.0  0.50436  0.66155  0.07929  1.0000 0.1379568175
H   H128      1.0  0.84281  0.50436  0.57929  1.0000 0.1379568175
H   H129      1.0  0.33845  0.84281  0.07929  1.0000 0.1379568175
H   H130      1.0  0.49564  0.33845  0.57929  1.0000 0.1379568175
H   H131      1.0  0.15719  0.49564  0.07929  1.0000 0.1379568175
H   H132      1.0  0.66155  0.15719  0.57929  1.0000 0.1379568175
H   H133      1.0  0.61652  0.93517  0.58537  1.0000 0.1207851968
H   H134      1.0  0.68135  0.61652  0.08537  1.0000 0.1207851968
H   H135      1.0  0.06483  0.68135  0.58537  1.0000 0.1207851968
H   H136      1.0  0.38348  0.06483  0.08537  1.0000 0.1207851968
H   H137      1.0  0.31865  0.38348  0.58537  1.0000 0.1207851968
H   H138      1.0  0.93517  0.31865  0.08537  1.0000 0.1207851968
H   H139      1.0  0.40878  0.47733  0.29143  1.0000 0.1309900919
H   H140      1.0  0.93145  0.40878  0.79143  1.0000 0.1309900919
H   H141      1.0  0.52267  0.93145  0.29143  1.0000 0.1309900919
H   H142      1.0  0.59122  0.52267  0.79143  1.0000 0.1309900919
H   H143      1.0  0.06855  0.59122  0.29143  1.0000 0.1309900919
H   H144      1.0  0.47733  0.06855  0.79143  1.0000 0.1309900919
H   H145      1.0  0.79356  0.81781  0.41650  1.0000 0.1135024514
H   H146      1.0  0.97575  0.79356  0.91650  1.0000 0.1135024514
H   H147      1.0  0.18219  0.97575  0.41650  1.0000 0.1135024514
H   H148      1.0  0.20644  0.18219  0.91650  1.0000 0.1135024514
H   H149      1.0  0.02425  0.20644  0.41650  1.0000 0.1135024514
H   H150      1.0  0.81781  0.02425  0.91650  1.0000 0.1135024514
H   H151      1.0  0.54935  0.67742  0.72342  1.0000 0.1135024514
H   H152      1.0  0.87193  0.54935  0.22342  1.0000 0.1135024514
H   H153      1.0  0.32258  0.87193  0.72342  1.0000 0.1135024514
H   H154      1.0  0.45065  0.32258  0.22342  1.0000 0.1135024514
H   H155      1.0  0.12807  0.45065  0.72342  1.0000 0.1135024514
H   H156      1.0  0.67742  0.12807  0.22342  1.0000 0.1135024514
H   H157      1.0  0.45018  0.39088  0.29514  1.0000 0.1207851968
H   H158      1.0  0.05930  0.45018  0.79514  1.0000 0.1207851968
H   H159      1.0  0.60912  0.05930  0.29514  1.0000 0.1207851968
H   H160      1.0  0.54982  0.60912  0.79514  1.0000 0.1207851968
H   H161      1.0  0.94070  0.54982  0.29514  1.0000 0.1207851968
H   H162      1.0  0.39088  0.94070  0.79514  1.0000 0.1207851968
H   H163      1.0  0.52521  0.61161  0.22608  1.0000 0.149382797
H   H164      1.0  0.91360  0.52521  0.72608  1.0000 0.149382797
H   H165      1.0  0.38839  0.91360  0.22608  1.0000 0.149382797
H   H166      1.0  0.47479  0.38839  0.72608  1.0000 0.149382797
H   H167      1.0  0.08640  0.47479  0.22608  1.0000 0.149382797
H   H168      1.0  0.61161  0.08640  0.72608  1.0000 0.149382797
H   H169      1.0  0.56687  0.59305  0.29069  1.0000 0.1207851968
H   H170      1.0  0.97382  0.56687  0.79069  1.0000 0.1207851968
H   H171      1.0  0.40695  0.97382  0.29069  1.0000 0.1207851968
H   H172      1.0  0.43313  0.40695  0.79069  1.0000 0.1207851968
H   H173      1.0  0.02618  0.43313  0.29069  1.0000 0.1207851968
H   H174      1.0  0.59305  0.02618  0.79069  1.0000 0.1207851968
H   H175      1.0  0.85081  0.68565  0.37948  1.0000 0.1309900919
H   H176      1.0  0.16516  0.85081  0.87948  1.0000 0.1309900919
H   H177      1.0  0.31435  0.16516  0.37948  1.0000 0.1309900919
H   H178      1.0  0.14919  0.31435  0.87948  1.0000 0.1309900919
H   H179      1.0  0.83484  0.14919  0.37948  1.0000 0.1309900919
H   H180      1.0  0.68565  0.83484  0.87948  1.0000 0.1309900919
H   H181      1.0  0.81134  0.70554  0.31245  1.0000 0.1207851968
H   H182      1.0  0.10580  0.81134  0.81245  1.0000 0.1207851968
H   H183      1.0  0.29446  0.10580  0.31245  1.0000 0.1207851968
H   H184      1.0  0.18866  0.29446  0.81245  1.0000 0.1207851968
H   H185      1.0  0.89420  0.18866  0.31245  1.0000 0.1207851968
H   H186      1.0  0.70554  0.89420  0.81245  1.0000 0.1207851968
H   H187      1.0  0.87543  0.61542  0.43492  1.0000 0.1379568175
H   H188      1.0  0.26001  0.87543  0.93492  1.0000 0.1379568175
H   H189      1.0  0.38458  0.26001  0.43492  1.0000 0.1379568175
H   H190      1.0  0.12457  0.38458  0.93492  1.0000 0.1379568175
H   H191      1.0  0.73999  0.12457  0.43492  1.0000 0.1379568175
H   H192      1.0  0.61542  0.73999  0.93492  1.0000 0.1379568175
H   H193      1.0  0.84829  0.94771  0.58502  1.0000 0.1207851968
H   H194      1.0  0.90058  0.84829  0.08502  1.0000 0.1207851968
H   H195      1.0  0.05229  0.90058  0.58502  1.0000 0.1207851968
H   H196      1.0  0.15171  0.05229  0.08502  1.0000 0.1207851968
H   H197      1.0  0.09942  0.15171  0.58502  1.0000 0.1207851968
H   H198      1.0  0.94771  0.09942  0.08502  1.0000 0.1207851968
H   H199      1.0  0.86732  0.58457  0.51281  1.0000 0.1309900919
H   H200      1.0  0.28275  0.86732  0.01281  1.0000 0.1309900919
H   H201      1.0  0.41543  0.28275  0.51281  1.0000 0.1309900919
H   H202      1.0  0.13268  0.41543  0.01281  1.0000 0.1309900919
H   H203      1.0  0.71725  0.13268  0.51281  1.0000 0.1309900919
H   H204      1.0  0.58457  0.71725  0.01281  1.0000 0.1309900919
H   H205      1.0  0.84050  0.05308  0.58783  1.0000 0.1207851968
H   H206      1.0  0.78742  0.84050  0.08783  1.0000 0.1207851968
H   H207      1.0  0.94692  0.78742  0.58783  1.0000 0.1207851968
H   H208      1.0  0.15950  0.94692  0.08783  1.0000 0.1207851968
H   H209      1.0  0.21258  0.15950  0.58783  1.0000 0.1207851968
H   H210      1.0  0.05308  0.21258  0.08783  1.0000 0.1207851968
H   H211      1.0  0.63779  0.55360  0.41320  1.0000 0.1207851968
H   H212      1.0  0.08419  0.63779  0.91320  1.0000 0.1207851968
H   H213      1.0  0.44640  0.08419  0.41320  1.0000 0.1207851968
H   H214      1.0  0.36221  0.44640  0.91320  1.0000 0.1207851968
H   H215      1.0  0.91581  0.36221  0.41320  1.0000 0.1207851968
H   H216      1.0  0.55360  0.91581  0.91320  1.0000 0.1207851968
H   H217      1.0  0.59963  0.58145  0.34730  1.0000 0.1135024514
H   H218      1.0  0.01818  0.59963  0.84730  1.0000 0.1135024514
H   H219      1.0  0.41855  0.01818  0.34730  1.0000 0.1135024514
H   H220      1.0  0.40037  0.41855  0.84730  1.0000 0.1135024514
H   H221      1.0  0.98182  0.40037  0.34730  1.0000 0.1135024514
H   H222      1.0  0.58145  0.98182  0.84730  1.0000 0.1135024514
H   H223      1.0  0.77026  0.74811  0.26232  1.0000 0.1207851968
H   H224      1.0  0.02215  0.77026  0.76232  1.0000 0.1207851968
H   H225      1.0  0.25189  0.02215  0.26232  1.0000 0.1207851968
H   H226      1.0  0.22974  0.25189  0.76232  1.0000 0.1207851968
H   H227      1.0  0.97785  0.22974  0.26232  1.0000 0.1207851968
H   H228      1.0  0.74811  0.97785  0.76232  1.0000 0.1207851968
H   H229      1.0  0.73369  0.75233  0.19015  1.0000 0.1309900919
H   H230      1.0  0.98136  0.73369  0.69015  1.0000 0.1309900919
H   H231      1.0  0.24767  0.98136  0.19015  1.0000 0.1309900919
H   H232      1.0  0.26631  0.24767  0.69015  1.0000 0.1309900919
H   H233      1.0  0.01864  0.26631  0.19015  1.0000 0.1309900919
H   H234      1.0  0.75233  0.01864  0.69015  1.0000 0.1309900919
H   H235      1.0  0.48421  0.73618  0.58766  1.0000 0.1309900919
H   H236      1.0  0.74803  0.48421  0.08766  1.0000 0.1309900919
H   H237      1.0  0.26382  0.74803  0.58766  1.0000 0.1309900919
H   H238      1.0  0.51579  0.26382  0.08766  1.0000 0.1309900919
H   H239      1.0  0.25197  0.51579  0.58766  1.0000 0.1309900919
H   H240      1.0  0.73618  0.25197  0.08766  1.0000 0.1309900919
H   H241      1.0  0.51358  0.81326  0.56444  1.0000 0.1309900919
H   H242      1.0  0.70032  0.51358  0.06444  1.0000 0.1309900919
H   H243      1.0  0.18674  0.70032  0.56444  1.0000 0.1309900919
H   H244      1.0  0.48642  0.18674  0.06444  1.0000 0.1309900919
H   H245      1.0  0.29968  0.48642  0.56444  1.0000 0.1309900919
H   H246      1.0  0.81326  0.29968  0.06444  1.0000 0.1309900919
C   C1        1.0  0.68140  0.66990  0.57260  1.0000 0.609771262
C   C2        1.0  0.01150  0.68140  0.07260  1.0000 0.609771262
C   C3        1.0  0.33010  0.01150  0.57260  1.0000 0.609771262
C   C4        1.0  0.31860  0.33010  0.07260  1.0000 0.609771262
C   C5        1.0  0.98850  0.31860  0.57260  1.0000 0.609771262
C   C6        1.0  0.66990  0.98850  0.07260  1.0000 0.609771262
C   C7        1.0  0.60340  0.73300  0.57933  1.0000 0.2570487563
C   C8        1.0  0.87040  0.60340  0.07933  1.0000 0.2570487563
C   C9        1.0  0.26700  0.87040  0.57933  1.0000 0.2570487563
C   C10       1.0  0.39660  0.26700  0.07933  1.0000 0.2570487563
C   C11       1.0  0.12960  0.39660  0.57933  1.0000 0.2570487563
C   C12       1.0  0.73300  0.12960  0.07933  1.0000 0.2570487563
C   C13       1.0  0.72730  0.00230  0.58360  1.0000 -0.091058424
C   C14       1.0  0.72500  0.72730  0.08360  1.0000 -0.091058424
C   C15       1.0  0.99770  0.72500  0.58360  1.0000 -0.091058424
C   C16       1.0  0.27270  0.99770  0.08360  1.0000 -0.091058424
C   C17       1.0  0.27500  0.27270  0.58360  1.0000 -0.091058424
C   C18       1.0  0.00230  0.27500  0.08360  1.0000 -0.091058424
C   C19       1.0  0.59760  0.79650  0.58496  1.0000 -0.0308891023
C   C20       1.0  0.80110  0.59760  0.08496  1.0000 -0.0308891023
C   C21       1.0  0.20350  0.80110  0.58496  1.0000 -0.0308891023
C   C22       1.0  0.40240  0.20350  0.08496  1.0000 -0.0308891023
C   C23       1.0  0.19890  0.40240  0.58496  1.0000 -0.0308891023
C   C24       1.0  0.79650  0.19890  0.08496  1.0000 -0.0308891023
C   C25       1.0  0.70110  0.64480  0.32250  1.0000 0.0693197944
C   C26       1.0  0.05630  0.70110  0.82250  1.0000 0.0693197944
C   C27       1.0  0.35520  0.05630  0.32250  1.0000 0.0693197944
C   C28       1.0  0.29890  0.35520  0.82250  1.0000 0.0693197944
C   C29       1.0  0.94370  0.29890  0.32250  1.0000 0.0693197944
C   C30       1.0  0.64480  0.94370  0.82250  1.0000 0.0693197944
C   C31       1.0  0.67530  0.73810  0.57830  1.0000 -0.1402021012
C   C32       1.0  0.93720  0.67530  0.07830  1.0000 -0.1402021012
C   C33       1.0  0.26190  0.93720  0.57830  1.0000 -0.1402021012
C   C34       1.0  0.32470  0.26190  0.07830  1.0000 -0.1402021012
C   C35       1.0  0.06280  0.32470  0.57830  1.0000 -0.1402021012
C   C36       1.0  0.73810  0.06280  0.07830  1.0000 -0.1402021012
C   C37       1.0  0.52910  0.44960  0.51490  1.0000 0.5892011825
C   C38       1.0  0.07950  0.52910  0.01490  1.0000 0.5892011825
C   C39       1.0  0.55040  0.07950  0.51490  1.0000 0.5892011825
C   C40       1.0  0.47090  0.55040  0.01490  1.0000 0.5892011825
C   C41       1.0  0.92050  0.47090  0.51490  1.0000 0.5892011825
C   C42       1.0  0.44960  0.92050  0.01490  1.0000 0.5892011825
C   C43       1.0  0.45330  0.96690  0.66348  1.0000 0.5892011825
C   C44       1.0  0.48640  0.45330  0.16348  1.0000 0.5892011825
C   C45       1.0  0.03310  0.48640  0.66348  1.0000 0.5892011825
C   C46       1.0  0.54670  0.03310  0.16348  1.0000 0.5892011825
C   C47       1.0  0.51360  0.54670  0.66348  1.0000 0.5892011825
C   C48       1.0  0.96690  0.51360  0.16348  1.0000 0.5892011825
C   C49       1.0  0.52280  0.74130  0.32930  1.0000 -0.1497924274
C   C50       1.0  0.78150  0.52280  0.82930  1.0000 -0.1497924274
C   C51       1.0  0.25870  0.78150  0.32930  1.0000 -0.1497924274
C   C52       1.0  0.47720  0.25870  0.82930  1.0000 -0.1497924274
C   C53       1.0  0.21850  0.47720  0.32930  1.0000 -0.1497924274
C   C54       1.0  0.74130  0.21850  0.82930  1.0000 -0.1497924274
C   C55       1.0  0.43210  0.51270  0.35370  1.0000 -0.1292074766
C   C56       1.0  0.91940  0.43210  0.85370  1.0000 -0.1292074766
C   C57       1.0  0.48730  0.91940  0.35370  1.0000 -0.1292074766
C   C58       1.0  0.56790  0.48730  0.85370  1.0000 -0.1292074766
C   C59       1.0  0.08060  0.56790  0.35370  1.0000 -0.1292074766
C   C60       1.0  0.51270  0.08060  0.85370  1.0000 -0.1292074766
C   C61       1.0  0.61420  0.76830  0.14730  1.0000 0.103699055
C   C62       1.0  0.84590  0.61420  0.64730  1.0000 0.103699055
C   C63       1.0  0.23170  0.84590  0.14730  1.0000 0.103699055
C   C64       1.0  0.38580  0.23170  0.64730  1.0000 0.103699055
C   C65       1.0  0.15410  0.38580  0.14730  1.0000 0.103699055
C   C66       1.0  0.76830  0.15410  0.64730  1.0000 0.103699055
C   C67       1.0  0.50630  0.47020  0.47370  1.0000 -0.1724010851
C   C68       1.0  0.03610  0.50630  0.97370  1.0000 -0.1724010851
C   C69       1.0  0.52980  0.03610  0.47370  1.0000 -0.1724010851
C   C70       1.0  0.49370  0.52980  0.97370  1.0000 -0.1724010851
C   C71       1.0  0.96390  0.49370  0.47370  1.0000 -0.1724010851
C   C72       1.0  0.47020  0.96390  0.97370  1.0000 -0.1724010851
C   C73       1.0  0.66410  0.86740  0.58480  1.0000 0.0498269063
C   C74       1.0  0.79670  0.66410  0.08480  1.0000 0.0498269063
C   C75       1.0  0.13260  0.79670  0.58480  1.0000 0.0498269063
C   C76       1.0  0.33590  0.13260  0.08480  1.0000 0.0498269063
C   C77       1.0  0.20330  0.33590  0.58480  1.0000 0.0498269063
C   C78       1.0  0.86740  0.20330  0.08480  1.0000 0.0498269063
C   C79       1.0  0.48900  0.52910  0.47058  1.0000 0.2459038053
C   C80       1.0  0.95990  0.48900  0.97058  1.0000 0.2459038053
C   C81       1.0  0.47090  0.95990  0.47058  1.0000 0.2459038053
C   C82       1.0  0.51100  0.47090  0.97058  1.0000 0.2459038053
C   C83       1.0  0.04010  0.51100  0.47058  1.0000 0.2459038053
C   C84       1.0  0.52910  0.04010  0.97058  1.0000 0.2459038053
C   C85       1.0  0.49210  0.75560  0.28891  1.0000 0.609771262
C   C86       1.0  0.73650  0.49210  0.78891  1.0000 0.609771262
C   C87       1.0  0.24440  0.73650  0.28891  1.0000 0.609771262
C   C88       1.0  0.50790  0.24440  0.78891  1.0000 0.609771262
C   C89       1.0  0.26350  0.50790  0.28891  1.0000 0.609771262
C   C90       1.0  0.75560  0.26350  0.78891  1.0000 0.609771262
C   C91       1.0  0.69820  0.74620  0.44630  1.0000 -0.1074635015
C   C92       1.0  0.95200  0.69820  0.94630  1.0000 -0.1074635015
C   C93       1.0  0.25380  0.95200  0.44630  1.0000 -0.1074635015
C   C94       1.0  0.30180  0.25380  0.94630  1.0000 -0.1074635015
C   C95       1.0  0.04800  0.30180  0.44630  1.0000 -0.1074635015
C   C96       1.0  0.74620  0.04800  0.94630  1.0000 -0.1074635015
C   C97       1.0  0.50290  0.82860  0.71060  1.0000 0.0593857276
C   C98       1.0  0.67430  0.50290  0.21060  1.0000 0.0593857276
C   C99       1.0  0.17140  0.67430  0.71060  1.0000 0.0593857276
C   C100      1.0  0.49710  0.17140  0.21060  1.0000 0.0593857276
C   C101      1.0  0.32570  0.49710  0.71060  1.0000 0.0593857276
C   C102      1.0  0.82860  0.32570  0.21060  1.0000 0.0593857276
C   C103      1.0  0.47370  0.90690  0.66532  1.0000 -0.1567398306
C   C104      1.0  0.56680  0.47370  0.16532  1.0000 -0.1567398306
C   C105      1.0  0.09310  0.56680  0.66532  1.0000 -0.1567398306
C   C106      1.0  0.52630  0.09310  0.16532  1.0000 -0.1567398306
C   C107      1.0  0.43320  0.52630  0.66532  1.0000 -0.1567398306
C   C108      1.0  0.90690  0.43320  0.16532  1.0000 -0.1567398306
C   C109      1.0  0.50810  0.67470  0.39796  1.0000 -0.0223247141
C   C110      1.0  0.83340  0.50810  0.89796  1.0000 -0.0223247141
C   C111      1.0  0.32530  0.83340  0.39796  1.0000 -0.0223247141
C   C112      1.0  0.49190  0.32530  0.89796  1.0000 -0.0223247141
C   C113      1.0  0.16660  0.49190  0.39796  1.0000 -0.0223247141
C   C114      1.0  0.67470  0.16660  0.89796  1.0000 -0.0223247141
C   C115      1.0  0.50380  0.43070  0.43610  1.0000 -0.1785526719
C   C116      1.0  0.07310  0.50380  0.93610  1.0000 -0.1785526719
C   C117      1.0  0.56930  0.07310  0.43610  1.0000 -0.1785526719
C   C118      1.0  0.49620  0.56930  0.93610  1.0000 -0.1785526719
C   C119      1.0  0.92690  0.49620  0.43610  1.0000 -0.1785526719
C   C120      1.0  0.43070  0.92690  0.93610  1.0000 -0.1785526719
C   C121      1.0  0.46000  0.50190  0.39406  1.0000 0.0422735926
C   C122      1.0  0.95810  0.46000  0.89406  1.0000 0.0422735926
C   C123      1.0  0.49810  0.95810  0.39406  1.0000 0.0422735926
C   C124      1.0  0.54000  0.49810  0.89406  1.0000 0.0422735926
C   C125      1.0  0.04190  0.54000  0.39406  1.0000 0.0422735926
C   C126      1.0  0.50190  0.04190  0.89406  1.0000 0.0422735926
C   C127      1.0  0.48550  0.87390  0.62746  1.0000 0.2367202209
C   C128      1.0  0.61160  0.48550  0.12746  1.0000 0.2367202209
C   C129      1.0  0.12610  0.61160  0.62746  1.0000 0.2367202209
C   C130      1.0  0.51450  0.12610  0.12746  1.0000 0.2367202209
C   C131      1.0  0.38840  0.51450  0.62746  1.0000 0.2367202209
C   C132      1.0  0.87390  0.38840  0.12746  1.0000 0.2367202209
C   C133      1.0  0.48370  0.88440  0.70573  1.0000 -0.1497924274
C   C134      1.0  0.59930  0.48370  0.20573  1.0000 -0.1497924274
C   C135      1.0  0.11560  0.59930  0.70573  1.0000 -0.1497924274
C   C136      1.0  0.51630  0.11560  0.20573  1.0000 -0.1497924274
C   C137      1.0  0.40070  0.51630  0.70573  1.0000 -0.1497924274
C   C138      1.0  0.88440  0.40070  0.20573  1.0000 -0.1497924274
C   C139      1.0  0.51400  0.79510  0.67261  1.0000 0.0498269063
C   C140      1.0  0.71890  0.51400  0.17261  1.0000 0.0498269063
C   C141      1.0  0.20490  0.71890  0.67261  1.0000 0.0498269063
C   C142      1.0  0.48600  0.20490  0.17261  1.0000 0.0498269063
C   C143      1.0  0.28110  0.48600  0.67261  1.0000 0.0498269063
C   C144      1.0  0.79510  0.28110  0.17261  1.0000 0.0498269063
C   C145      1.0  0.62320  0.70830  0.44170  1.0000 -0.1292074766
C   C146      1.0  0.91490  0.62320  0.94170  1.0000 -0.1292074766
C   C147      1.0  0.29170  0.91490  0.44170  1.0000 -0.1292074766
C   C148      1.0  0.37680  0.29170  0.94170  1.0000 -0.1292074766
C   C149      1.0  0.08510  0.37680  0.44170  1.0000 -0.1292074766
C   C150      1.0  0.70830  0.08510  0.94170  1.0000 -0.1292074766
C   C151      1.0  0.47720  0.69010  0.36175  1.0000 0.2367202209
C   C152      1.0  0.78710  0.47720  0.86175  1.0000 0.2367202209
C   C153      1.0  0.30990  0.78710  0.36175  1.0000 0.2367202209
C   C154      1.0  0.52280  0.30990  0.86175  1.0000 0.2367202209
C   C155      1.0  0.21290  0.52280  0.36175  1.0000 0.2367202209
C   C156      1.0  0.69010  0.21290  0.86175  1.0000 0.2367202209
C   C157      1.0  0.58640  0.71440  0.40420  1.0000 0.0422735926
C   C158      1.0  0.87200  0.58640  0.90420  1.0000 0.0422735926
C   C159      1.0  0.28560  0.87200  0.40420  1.0000 0.0422735926
C   C160      1.0  0.41360  0.28560  0.90420  1.0000 0.0422735926
C   C161      1.0  0.12800  0.41360  0.40420  1.0000 0.0422735926
C   C162      1.0  0.71440  0.12800  0.90420  1.0000 0.0422735926
C   C163      1.0  0.60020  0.77760  0.33430  1.0000 -0.1497924274
C   C164      1.0  0.82260  0.60020  0.83430  1.0000 -0.1497924274
C   C165      1.0  0.22240  0.82260  0.33430  1.0000 -0.1497924274
C   C166      1.0  0.39980  0.22240  0.83430  1.0000 -0.1497924274
C   C167      1.0  0.17740  0.39980  0.33430  1.0000 -0.1497924274
C   C168      1.0  0.77760  0.17740  0.83430  1.0000 -0.1497924274
C   C169      1.0  0.47980  0.44520  0.39610  1.0000 0.0498269063
C   C170      1.0  0.03460  0.47980  0.89610  1.0000 0.0498269063
C   C171      1.0  0.55480  0.03460  0.39610  1.0000 0.0498269063
C   C172      1.0  0.52020  0.55480  0.89610  1.0000 0.0498269063
C   C173      1.0  0.96540  0.52020  0.39610  1.0000 0.0498269063
C   C174      1.0  0.44520  0.96540  0.89610  1.0000 0.0498269063
C   C175      1.0  0.45520  0.61250  0.42930  1.0000 -0.239735752
C   C176      1.0  0.84270  0.45520  0.92930  1.0000 -0.239735752
C   C177      1.0  0.38750  0.84270  0.42930  1.0000 -0.239735752
C   C178      1.0  0.54480  0.38750  0.92930  1.0000 -0.239735752
C   C179      1.0  0.15730  0.54480  0.42930  1.0000 -0.239735752
C   C180      1.0  0.61250  0.15730  0.92930  1.0000 -0.239735752
C   C181      1.0  0.62470  0.68780  0.20400  1.0000 0.1379568175
C   C182      1.0  0.93690  0.62470  0.70400  1.0000 0.1379568175
C   C183      1.0  0.31220  0.93690  0.20400  1.0000 0.1379568175
C   C184      1.0  0.37530  0.31220  0.70400  1.0000 0.1379568175
C   C185      1.0  0.06310  0.37530  0.20400  1.0000 0.1379568175
C   C186      1.0  0.68780  0.06310  0.70400  1.0000 0.1379568175
C   C187      1.0  0.46810  0.54640  0.43145  1.0000 -0.0308891023
C   C188      1.0  0.92170  0.46810  0.93145  1.0000 -0.0308891023
C   C189      1.0  0.45360  0.92170  0.43145  1.0000 -0.0308891023
C   C190      1.0  0.53190  0.45360  0.93145  1.0000 -0.0308891023
C   C191      1.0  0.07830  0.53190  0.43145  1.0000 -0.0308891023
C   C192      1.0  0.54640  0.07830  0.93145  1.0000 -0.0308891023
C   C193      1.0  0.63280  0.76640  0.37110  1.0000 0.0593857276
C   C194      1.0  0.86640  0.63280  0.87110  1.0000 0.0593857276
C   C195      1.0  0.23360  0.86640  0.37110  1.0000 0.0593857276
C   C196      1.0  0.36720  0.23360  0.87110  1.0000 0.0593857276
C   C197      1.0  0.13360  0.36720  0.37110  1.0000 0.0593857276
C   C198      1.0  0.76640  0.13360  0.87110  1.0000 0.0593857276
C   C199      1.0  0.74600  0.61380  0.40160  1.0000 0.149382797
C   C200      1.0  0.13220  0.74600  0.90160  1.0000 0.149382797
C   C201      1.0  0.38620  0.13220  0.40160  1.0000 0.149382797
C   C202      1.0  0.25400  0.38620  0.90160  1.0000 0.149382797
C   C203      1.0  0.86780  0.25400  0.40160  1.0000 0.149382797
C   C204      1.0  0.61380  0.86780  0.90160  1.0000 0.149382797
C   C205      1.0  0.51080  0.80450  0.75220  1.0000 -0.1402021012
C   C206      1.0  0.70630  0.51080  0.25220  1.0000 -0.1402021012
C   C207      1.0  0.19550  0.70630  0.75220  1.0000 -0.1402021012
C   C208      1.0  0.48920  0.19550  0.25220  1.0000 -0.1402021012
C   C209      1.0  0.29370  0.48920  0.75220  1.0000 -0.1402021012
C   C210      1.0  0.80450  0.29370  0.25220  1.0000 -0.1402021012
C   C211      1.0  0.73010  0.58880  0.48000  1.0000 0.1309900919
C   C212      1.0  0.14130  0.73010  0.98000  1.0000 0.1309900919
C   C213      1.0  0.41120  0.14130  0.48000  1.0000 0.1309900919
C   C214      1.0  0.26990  0.41120  0.98000  1.0000 0.1309900919
C   C215      1.0  0.85870  0.26990  0.48000  1.0000 0.1309900919
C   C216      1.0  0.58880  0.85870  0.98000  1.0000 0.1309900919
C   C217      1.0  0.73870  0.80550  0.58190  1.0000 -0.1402021012
C   C218      1.0  0.93320  0.73870  0.08190  1.0000 -0.1402021012
C   C219      1.0  0.19450  0.93320  0.58190  1.0000 -0.1402021012
C   C220      1.0  0.26130  0.19450  0.08190  1.0000 -0.1402021012
C   C221      1.0  0.06680  0.26130  0.58190  1.0000 -0.1402021012
C   C222      1.0  0.80550  0.06680  0.08190  1.0000 -0.1402021012
C   C223      1.0  0.54940  0.64820  0.13530  1.0000 -0.0753689007
C   C224      1.0  0.90120  0.54940  0.63530  1.0000 -0.0753689007
C   C225      1.0  0.35180  0.90120  0.13530  1.0000 -0.0753689007
C   C226      1.0  0.45060  0.35180  0.63530  1.0000 -0.0753689007
C   C227      1.0  0.09880  0.45060  0.13530  1.0000 -0.0753689007
C   C228      1.0  0.64820  0.09880  0.63530  1.0000 -0.0753689007
C   C229      1.0  0.47380  0.40380  0.35770  1.0000 -0.1497924274
C   C230      1.0  0.07000  0.47380  0.85770  1.0000 -0.1497924274
C   C231      1.0  0.59620  0.07000  0.35770  1.0000 -0.1497924274
C   C232      1.0  0.52620  0.59620  0.85770  1.0000 -0.1497924274
C   C233      1.0  0.93000  0.52620  0.35770  1.0000 -0.1497924274
C   C234      1.0  0.40380  0.93000  0.85770  1.0000 -0.1497924274
C   C235      1.0  0.73530  0.87210  0.58390  1.0000 0.0593857276
C   C236      1.0  0.86320  0.73530  0.08390  1.0000 0.0593857276
C   C237      1.0  0.12790  0.86320  0.58390  1.0000 0.0593857276
C   C238      1.0  0.26470  0.12790  0.08390  1.0000 0.0593857276
C   C239      1.0  0.13680  0.26470  0.58390  1.0000 0.0593857276
C   C240      1.0  0.87210  0.13680  0.08390  1.0000 0.0593857276
C   C241      1.0  0.52590  0.74820  0.75720  1.0000 -0.1074635015
C   C242      1.0  0.77770  0.52590  0.25720  1.0000 -0.1074635015
C   C243      1.0  0.25180  0.77770  0.75720  1.0000 -0.1074635015
C   C244      1.0  0.47410  0.25180  0.25720  1.0000 -0.1074635015
C   C245      1.0  0.22230  0.47410  0.75720  1.0000 -0.1074635015
C   C246      1.0  0.74820  0.22230  0.25720  1.0000 -0.1074635015
C   C247      1.0  0.52960  0.73660  0.67880  1.0000 -0.1199677881
C   C248      1.0  0.79300  0.52960  0.17880  1.0000 -0.1199677881
C   C249      1.0  0.26340  0.79300  0.67880  1.0000 -0.1199677881
C   C250      1.0  0.47040  0.26340  0.17880  1.0000 -0.1199677881
C   C251      1.0  0.20700  0.47040  0.67880  1.0000 -0.1199677881
C   C252      1.0  0.73660  0.20700  0.17880  1.0000 -0.1199677881
C   C253      1.0  0.71220  0.80430  0.37590  1.0000 -0.1497924274
C   C254      1.0  0.90790  0.71220  0.87590  1.0000 -0.1497924274
C   C255      1.0  0.19570  0.90790  0.37590  1.0000 -0.1497924274
C   C256      1.0  0.28780  0.19570  0.87590  1.0000 -0.1497924274
C   C257      1.0  0.09210  0.28780  0.37590  1.0000 -0.1497924274
C   C258      1.0  0.80430  0.09210  0.87590  1.0000 -0.1497924274
C   C259      1.0  0.53610  0.68410  0.10290  1.0000 -0.0423444394
C   C260      1.0  0.85200  0.53610  0.60290  1.0000 -0.0423444394
C   C261      1.0  0.31590  0.85200  0.10290  1.0000 -0.0423444394
C   C262      1.0  0.46390  0.31590  0.60290  1.0000 -0.0423444394
C   C263      1.0  0.14800  0.46390  0.10290  1.0000 -0.0423444394
C   C264      1.0  0.68410  0.14800  0.60290  1.0000 -0.0423444394
C   C265      1.0  0.66200  0.93610  0.58470  1.0000 -0.1292074766
C   C266      1.0  0.72590  0.66200  0.08470  1.0000 -0.1292074766
C   C267      1.0  0.06390  0.72590  0.58470  1.0000 -0.1292074766
C   C268      1.0  0.33800  0.06390  0.08470  1.0000 -0.1292074766
C   C269      1.0  0.27410  0.33800  0.58470  1.0000 -0.1292074766
C   C270      1.0  0.93610  0.27410  0.08470  1.0000 -0.1292074766
C   C271      1.0  0.67560  0.66010  0.28070  1.0000 0.0693197944
C   C272      1.0  0.01550  0.67560  0.78070  1.0000 0.0693197944
C   C273      1.0  0.33990  0.01550  0.28070  1.0000 0.0693197944
C   C274      1.0  0.32440  0.33990  0.78070  1.0000 0.0693197944
C   C275      1.0  0.98450  0.32440  0.28070  1.0000 0.0693197944
C   C276      1.0  0.66010  0.98450  0.78070  1.0000 0.0693197944
C   C277      1.0  0.42750  0.47040  0.31750  1.0000 -0.0706675434
C   C278      1.0  0.95710  0.42750  0.81750  1.0000 -0.0706675434
C   C279      1.0  0.52960  0.95710  0.31750  1.0000 -0.0706675434
C   C280      1.0  0.57250  0.52960  0.81750  1.0000 -0.0706675434
C   C281      1.0  0.04290  0.57250  0.31750  1.0000 -0.0706675434
C   C282      1.0  0.47040  0.04290  0.81750  1.0000 -0.0706675434
C   C283      1.0  0.74180  0.79290  0.41330  1.0000 -0.1074635015
C   C284      1.0  0.94890  0.74180  0.91330  1.0000 -0.1074635015
C   C285      1.0  0.20710  0.94890  0.41330  1.0000 -0.1074635015
C   C286      1.0  0.25820  0.20710  0.91330  1.0000 -0.1074635015
C   C287      1.0  0.05110  0.25820  0.41330  1.0000 -0.1074635015
C   C288      1.0  0.79290  0.05110  0.91330  1.0000 -0.1074635015
C   C289      1.0  0.53700  0.71470  0.72010  1.0000 -0.091058424
C   C290      1.0  0.82230  0.53700  0.22010  1.0000 -0.091058424
C   C291      1.0  0.28530  0.82230  0.72010  1.0000 -0.091058424
C   C292      1.0  0.46300  0.28530  0.22010  1.0000 -0.091058424
C   C293      1.0  0.17770  0.46300  0.72010  1.0000 -0.091058424
C   C294      1.0  0.71470  0.17770  0.22010  1.0000 -0.091058424
C   C295      1.0  0.45080  0.41700  0.32000  1.0000 -0.091058424
C   C296      1.0  0.03380  0.45080  0.82000  1.0000 -0.091058424
C   C297      1.0  0.58300  0.03380  0.32000  1.0000 -0.091058424
C   C298      1.0  0.54920  0.58300  0.82000  1.0000 -0.091058424
C   C299      1.0  0.96620  0.54920  0.32000  1.0000 -0.091058424
C   C300      1.0  0.41700  0.96620  0.82000  1.0000 -0.091058424
C   C301      1.0  0.57600  0.63790  0.23250  1.0000 -0.1292074766
C   C302      1.0  0.93810  0.57600  0.73250  1.0000 -0.1292074766
C   C303      1.0  0.36210  0.93810  0.23250  1.0000 -0.1292074766
C   C304      1.0  0.42400  0.36210  0.73250  1.0000 -0.1292074766
C   C305      1.0  0.06190  0.42400  0.23250  1.0000 -0.1292074766
C   C306      1.0  0.63790  0.06190  0.73250  1.0000 -0.1292074766
C   C307      1.0  0.60140  0.62590  0.27060  1.0000 -0.1292074766
C   C308      1.0  0.97550  0.60140  0.77060  1.0000 -0.1292074766
C   C309      1.0  0.37410  0.97550  0.27060  1.0000 -0.1292074766
C   C310      1.0  0.39860  0.37410  0.77060  1.0000 -0.1292074766
C   C311      1.0  0.02450  0.39860  0.27060  1.0000 -0.1292074766
C   C312      1.0  0.62590  0.02450  0.77060  1.0000 -0.1292074766
C   C313      1.0  0.80020  0.66240  0.37260  1.0000 -0.1724010851
C   C314      1.0  0.13780  0.80020  0.87260  1.0000 -0.1724010851
C   C315      1.0  0.33760  0.13780  0.37260  1.0000 -0.1724010851
C   C316      1.0  0.19980  0.33760  0.87260  1.0000 -0.1724010851
C   C317      1.0  0.86220  0.19980  0.37260  1.0000 -0.1724010851
C   C318      1.0  0.66240  0.86220  0.87260  1.0000 -0.1724010851
C   C319      1.0  0.77570  0.67520  0.33290  1.0000 -0.1292074766
C   C320      1.0  0.10050  0.77570  0.83290  1.0000 -0.1292074766
C   C321      1.0  0.32480  0.10050  0.33290  1.0000 -0.1292074766
C   C322      1.0  0.22430  0.32480  0.83290  1.0000 -0.1292074766
C   C323      1.0  0.89950  0.22430  0.33290  1.0000 -0.1292074766
C   C324      1.0  0.67520  0.89950  0.83290  1.0000 -0.1292074766
C   C325      1.0  0.83580  0.60420  0.45370  1.0000 -0.1199677881
C   C326      1.0  0.23160  0.83580  0.95370  1.0000 -0.1199677881
C   C327      1.0  0.39580  0.23160  0.45370  1.0000 -0.1199677881
C   C328      1.0  0.16420  0.39580  0.95370  1.0000 -0.1199677881
C   C329      1.0  0.76840  0.16420  0.45370  1.0000 -0.1199677881
C   C330      1.0  0.60420  0.76840  0.95370  1.0000 -0.1199677881
C   C331      1.0  0.80160  0.94430  0.58490  1.0000 -0.1402021012
C   C332      1.0  0.85730  0.80160  0.08490  1.0000 -0.1402021012
C   C333      1.0  0.05570  0.85730  0.58490  1.0000 -0.1402021012
C   C334      1.0  0.19840  0.05570  0.08490  1.0000 -0.1402021012
C   C335      1.0  0.14270  0.19840  0.58490  1.0000 -0.1402021012
C   C336      1.0  0.94430  0.14270  0.08490  1.0000 -0.1402021012
C   C337      1.0  0.83110  0.58830  0.49680  1.0000 -0.0115475241
C   C338      1.0  0.24280  0.83110  0.99680  1.0000 -0.0115475241
C   C339      1.0  0.41170  0.24280  0.49680  1.0000 -0.0115475241
C   C340      1.0  0.16890  0.41170  0.99680  1.0000 -0.0115475241
C   C341      1.0  0.75720  0.16890  0.49680  1.0000 -0.0115475241
C   C342      1.0  0.58830  0.75720  0.99680  1.0000 -0.0115475241
C   C343      1.0  0.79720  0.00670  0.58580  1.0000 -0.1043592166
C   C344      1.0  0.79050  0.79720  0.08580  1.0000 -0.1074635015
C   C345      1.0  0.99330  0.79050  0.58580  1.0000 -0.1074635015
C   C346      1.0  0.20280  0.99330  0.08580  1.0000 -0.1074635015
C   C347      1.0  0.20950  0.20280  0.58580  1.0000 -0.1074635015
C   C348      1.0  0.00670  0.20950  0.08580  1.0000 -0.1074635015
C   C349      1.0  0.67330  0.58460  0.39300  1.0000 -0.1497924274
C   C350      1.0  0.08870  0.67330  0.89300  1.0000 -0.1497924274
C   C351      1.0  0.41540  0.08870  0.39300  1.0000 -0.1497924274
C   C352      1.0  0.32670  0.41540  0.89300  1.0000 -0.1497924274
C   C353      1.0  0.91130  0.32670  0.39300  1.0000 -0.1497924274
C   C354      1.0  0.58460  0.91130  0.89300  1.0000 -0.1497924274
C   C355      1.0  0.65030  0.60100  0.35280  1.0000 -0.1074635015
C   C356      1.0  0.04930  0.65030  0.85280  1.0000 -0.1074635015
C   C357      1.0  0.39900  0.04930  0.35280  1.0000 -0.1074635015
C   C358      1.0  0.34970  0.39900  0.85280  1.0000 -0.1074635015
C   C359      1.0  0.95070  0.34970  0.35280  1.0000 -0.1074635015
C   C360      1.0  0.60100  0.95070  0.85280  1.0000 -0.1074635015
C   C361      1.0  0.72170  0.71490  0.25330  1.0000 -0.1402021012
C   C362      1.0  0.00680  0.72170  0.75330  1.0000 -0.1402021012
C   C363      1.0  0.28510  0.00680  0.25330  1.0000 -0.1402021012
C   C364      1.0  0.27830  0.28510  0.75330  1.0000 -0.1402021012
C   C365      1.0  0.99320  0.27830  0.25330  1.0000 -0.1402021012
C   C366      1.0  0.71490  0.99320  0.75330  1.0000 -0.1402021012
C   C367      1.0  0.69920  0.72360  0.21150  1.0000 -0.1567398306
C   C368      1.0  0.97560  0.69920  0.71150  1.0000 -0.1567398306
C   C369      1.0  0.27640  0.97560  0.21150  1.0000 -0.1567398306
C   C370      1.0  0.30080  0.27640  0.71150  1.0000 -0.1567398306
C   C371      1.0  0.02440  0.30080  0.21150  1.0000 -0.1567398306
C   C372      1.0  0.72360  0.02440  0.71150  1.0000 -0.1567398306
C   C373      1.0  0.50750  0.82070  0.63034  1.0000 -0.0223247141
C   C374      1.0  0.68680  0.50750  0.13034  1.0000 -0.0223247141
C   C375      1.0  0.17930  0.68680  0.63034  1.0000 -0.0223247141
C   C376      1.0  0.49250  0.17930  0.13034  1.0000 -0.0223247141
C   C377      1.0  0.31320  0.49250  0.63034  1.0000 -0.0223247141
C   C378      1.0  0.82070  0.31320  0.13034  1.0000 -0.0223247141
C   C379      1.0  0.52140  0.78890  0.58925  1.0000 -0.247459523
C   C380      1.0  0.73250  0.52140  0.08925  1.0000 -0.247459523
C   C381      1.0  0.21110  0.73250  0.58925  1.0000 -0.247459523
C   C382      1.0  0.47860  0.21110  0.08925  1.0000 -0.247459523
C   C383      1.0  0.26750  0.47860  0.58925  1.0000 -0.247459523
C   C384      1.0  0.78890  0.26750  0.08925  1.0000 -0.247459523
N   N1        1.0  0.76450  0.57830  0.51340  1.0000 -0.2875065651
N   N2        1.0  0.18620  0.76450  0.01340  1.0000 -0.2875065651
N   N3        1.0  0.42170  0.18620  0.51340  1.0000 -0.2875065651
N   N4        1.0  0.23550  0.42170  0.01340  1.0000 -0.2875065651
N   N5        1.0  0.81380  0.23550  0.51340  1.0000 -0.2875065651
N   N6        1.0  0.57830  0.81380  0.01340  1.0000 -0.2875065651
N   N7        1.0  0.76750  0.59990  0.44380  1.0000 0.0089855813
N   N8        1.0  0.16760  0.76750  0.94380  1.0000 0.0089855813
N   N9        1.0  0.40010  0.16760  0.44380  1.0000 0.0089855813
N   N10       1.0  0.23250  0.40010  0.94380  1.0000 0.0089855813
N   N11       1.0  0.83240  0.23250  0.44380  1.0000 0.0089855813
N   N12       1.0  0.59990  0.83240  0.94380  1.0000 0.0089855813
N   N13       1.0  0.64530  0.48520  0.59940  1.0000 -0.7714810069
N   N14       1.0  0.16010  0.64530  0.09940  1.0000 -0.7714810069
N   N15       1.0  0.51480  0.16010  0.59940  1.0000 -0.7714810069
N   N16       1.0  0.35470  0.51480  0.09940  1.0000 -0.7714810069
N   N17       1.0  0.83990  0.35470  0.59940  1.0000 -0.7714810069
N   N18       1.0  0.48520  0.83990  0.09940  1.0000 -0.7714810069
N   N19       1.0  0.59820  0.70090  0.16344  1.0000 0.0177317284
N   N20       1.0  0.89730  0.59820  0.66344  1.0000 0.0177317284
N   N21       1.0  0.29910  0.89730  0.16344  1.0000 0.0177317284
N   N22       1.0  0.40180  0.29910  0.66344  1.0000 0.0177317284
N   N23       1.0  0.10270  0.40180  0.16344  1.0000 0.0177317284
N   N24       1.0  0.70090  0.10270  0.66344  1.0000 0.0177317284
N   N25       1.0  0.57760  0.75980  0.11064  1.0000 -0.2875065651
N   N26       1.0  0.81780  0.57760  0.61064  1.0000 -0.2875065651
N   N27       1.0  0.24020  0.81780  0.11064  1.0000 -0.2875065651
N   N28       1.0  0.42240  0.24020  0.61064  1.0000 -0.2875065651
N   N29       1.0  0.18220  0.42240  0.11064  1.0000 -0.2875065651
N   N30       1.0  0.75980  0.18220  0.61064  1.0000 -0.2875065651
O   O1        1.0  0.51510  0.47230  0.55108  1.0000 -0.6375991102
O   O2        1.0  0.04280  0.51510  0.05108  1.0000 -0.6375991102
O   O3        1.0  0.52770  0.04280  0.55108  1.0000 -0.6375991102
O   O4        1.0  0.48490  0.52770  0.05108  1.0000 -0.6375991102
O   O5        1.0  0.95720  0.48490  0.55108  1.0000 -0.6375991102
O   O6        1.0  0.47230  0.95720  0.05108  1.0000 -0.6375991102
O   O7        1.0  0.49380  0.56830  0.50650  1.0000 -0.6282959875
O   O8        1.0  0.92550  0.49380  0.00650  1.0000 -0.6282959875
O   O9        1.0  0.43170  0.92550  0.50650  1.0000 -0.6282959875
O   O10       1.0  0.50620  0.43170  0.00650  1.0000 -0.6282959875
O   O11       1.0  0.07450  0.50620  0.50650  1.0000 -0.6282959875
O   O12       1.0  0.56830  0.07450  0.00650  1.0000 -0.6282959875
O   O13       1.0  0.54160  0.66560  0.57767  1.0000 -0.6101641254
O   O14       1.0  0.87600  0.54160  0.07767  1.0000 -0.6101641254
O   O15       1.0  0.33440  0.87600  0.57767  1.0000 -0.6101641254
O   O16       1.0  0.45840  0.33440  0.07767  1.0000 -0.6101641254
O   O17       1.0  0.12400  0.45840  0.57767  1.0000 -0.6101641254
O   O18       1.0  0.66560  0.12400  0.07767  1.0000 -0.6101641254
O   O19       1.0  0.74050  0.67180  0.58475  1.0000 -0.5112563368
O   O20       1.0  0.06870  0.74050  0.08475  1.0000 -0.5112563368
O   O21       1.0  0.32820  0.06870  0.58475  1.0000 -0.5112563368
O   O22       1.0  0.25950  0.32820  0.08475  1.0000 -0.5112563368
O   O23       1.0  0.93130  0.25950  0.58475  1.0000 -0.5112563368
O   O24       1.0  0.67180  0.93130  0.08475  1.0000 -0.5112563368
O   O25       1.0  0.62950  0.61230  0.55499  1.0000 -0.6039946075
O   O26       1.0  0.01720  0.62950  0.05499  1.0000 -0.6039946075
O   O27       1.0  0.38770  0.01720  0.55499  1.0000 -0.6039946075
O   O28       1.0  0.37050  0.38770  0.05499  1.0000 -0.6039946075
O   O29       1.0  0.98280  0.37050  0.55499  1.0000 -0.6039946075
O   O30       1.0  0.61230  0.98280  0.05499  1.0000 -0.6039946075
O   O31       1.0  0.44410  0.99280  0.69781  1.0000 -0.516195267
O   O32       1.0  0.45130  0.44410  0.19781  1.0000 -0.516195267
O   O33       1.0  0.00720  0.45130  0.69781  1.0000 -0.516195267
O   O34       1.0  0.55590  0.00720  0.19781  1.0000 -0.516195267
O   O35       1.0  0.54870  0.55590  0.69781  1.0000 -0.516195267
O   O36       1.0  0.99280  0.54870  0.19781  1.0000 -0.516195267
O   O37       1.0  0.40260  0.65420  0.35752  1.0000 -0.5915519889
O   O38       1.0  0.74840  0.40260  0.85752  1.0000 -0.5915519889
O   O39       1.0  0.34580  0.74840  0.35752  1.0000 -0.5915519889
O   O40       1.0  0.59740  0.34580  0.85752  1.0000 -0.5915519889
O   O41       1.0  0.25160  0.59740  0.35752  1.0000 -0.5915519889
O   O42       1.0  0.65420  0.25160  0.85752  1.0000 -0.5915519889
O   O43       1.0  0.55750  0.40950  0.51441  1.0000 -0.516195267
O   O44       1.0  0.14800  0.55750  0.01441  1.0000 -0.516195267
O   O45       1.0  0.59050  0.14800  0.51441  1.0000 -0.516195267
O   O46       1.0  0.44250  0.59050  0.01441  1.0000 -0.516195267
O   O47       1.0  0.85200  0.44250  0.51441  1.0000 -0.516195267
O   O48       1.0  0.40950  0.85200  0.01441  1.0000 -0.516195267
O   O49       1.0  0.53540  0.79440  0.25932  1.0000 -0.5332733786
O   O50       1.0  0.74100  0.53540  0.75932  1.0000 -0.5332733786
O   O51       1.0  0.20560  0.74100  0.25932  1.0000 -0.5332733786
O   O52       1.0  0.46460  0.20560  0.75932  1.0000 -0.5332733786
O   O53       1.0  0.25900  0.46460  0.25932  1.0000 -0.5332733786
O   O54       1.0  0.79440  0.25900  0.75932  1.0000 -0.5332733786
O   O55       1.0  0.47590  0.89460  0.58761  1.0000 -0.6101641254
O   O56       1.0  0.58130  0.47590  0.08761  1.0000 -0.6101641254
O   O57       1.0  0.10540  0.58130  0.58761  1.0000 -0.6101641254
O   O58       1.0  0.52410  0.10540  0.08761  1.0000 -0.6101641254
O   O59       1.0  0.41870  0.52410  0.58761  1.0000 -0.6101641254
O   O60       1.0  0.89460  0.41870  0.08761  1.0000 -0.6101641254
O   O61       1.0  0.44820  0.99230  0.62601  1.0000 -0.6375991102
O   O62       1.0  0.45590  0.44820  0.12601  1.0000 -0.6375991102
O   O63       1.0  0.00770  0.45590  0.62601  1.0000 -0.6375991102
O   O64       1.0  0.55180  0.00770  0.12601  1.0000 -0.6375991102
O   O65       1.0  0.54410  0.55180  0.62601  1.0000 -0.6375991102
O   O66       1.0  0.99230  0.54410  0.12601  1.0000 -0.6375991102
O   O67       1.0  0.42090  0.72600  0.28456  1.0000 -0.6101641254
O   O68       1.0  0.69490  0.42090  0.78456  1.0000 -0.6101641254
O   O69       1.0  0.27400  0.69490  0.28456  1.0000 -0.6101641254
O   O70       1.0  0.57910  0.27400  0.78456  1.0000 -0.6101641254
O   O71       1.0  0.30510  0.57910  0.28456  1.0000 -0.6101641254
O   O72       1.0  0.72600  0.30510  0.78456  1.0000 -0.6101641254
