# DDEC6 charges by PACMAN v1.1 (https://github.com/mtap-research/PACMAN-charge/)
data_2023[Tb][nan]3[ASR]3
_chemical_formula_sum              "Tb4 H12 C36 O24"
_cell_length_a       10.2492
_cell_length_b       10.2492
_cell_length_c       14.5034
_cell_angle_alpha    90
_cell_angle_beta     90
_cell_angle_gamma    90

_symmetry_space_group_name_H-M    "P 1"
_symmetry_Int_Tables_number       1

loop_
  _symmetry_equiv_pos_as_xyz
  'x, y, z'

loop_
  _atom_site_type_symbol
  _atom_site_label
  _atom_site_symmetry_multiplicity
  _atom_site_fract_x
  _atom_site_fract_y
  _atom_site_fract_z
  _atom_site_occupancy
  _atom_site_charge
Tb  Tb1       1.0  0.14955  0.85045  0.62500  1.0000 2.0863023585
Tb  Tb2       1.0  0.85045  0.14955  0.12500  1.0000 2.0863023585
Tb  Tb3       1.0  0.14955  0.14955  0.87500  1.0000 2.0863023585
Tb  Tb4       1.0  0.85045  0.85045  0.37500  1.0000 2.0863023585
H   H1        1.0  0.92948  0.43879  0.37073  1.0000 0.1329825704
H   H2        1.0  0.07052  0.56121  0.87073  1.0000 0.1329825704
H   H3        1.0  0.56121  0.92948  0.62073  1.0000 0.1329825704
H   H4        1.0  0.43879  0.07052  0.12073  1.0000 0.1329825704
H   H5        1.0  0.07052  0.43879  0.62927  1.0000 0.1329825704
H   H6        1.0  0.92948  0.56121  0.12927  1.0000 0.1329825704
H   H7        1.0  0.43879  0.92948  0.37927  1.0000 0.1329825704
H   H8        1.0  0.56121  0.07052  0.87927  1.0000 0.1329825704
H   H9        1.0  0.00000  0.10163  0.50000  1.0000 0.1030060349
H   H10       1.0  0.00000  0.89837  0.00000  1.0000 0.1030060349
H   H11       1.0  0.89837  0.00000  0.75000  1.0000 0.1030060349
H   H12       1.0  0.10163  0.00000  0.25000  1.0000 0.1030060349
C   C1        1.0  0.00000  0.46270  0.50000  1.0000 -0.0487197826
C   C2        1.0  0.00000  0.53730  0.00000  1.0000 -0.0487197826
C   C3        1.0  0.53730  0.00000  0.75000  1.0000 -0.0487197826
C   C4        1.0  0.46270  0.00000  0.25000  1.0000 -0.0487197826
C   C5        1.0  0.95770  0.39370  0.42270  1.0000 -0.097584042
C   C6        1.0  0.04230  0.60630  0.92270  1.0000 -0.097584042
C   C7        1.0  0.60630  0.95770  0.67270  1.0000 -0.097584042
C   C8        1.0  0.39370  0.04230  0.17270  1.0000 -0.097584042
C   C9        1.0  0.04230  0.39370  0.57730  1.0000 -0.097584042
C   C10       1.0  0.95770  0.60630  0.07730  1.0000 -0.097584042
C   C11       1.0  0.39370  0.95770  0.32730  1.0000 -0.097584042
C   C12       1.0  0.60630  0.04230  0.82730  1.0000 -0.097584042
C   C13       1.0  0.91470  0.18490  0.33930  1.0000 0.6171803881
C   C14       1.0  0.08530  0.81510  0.83930  1.0000 0.6171803881
C   C15       1.0  0.81510  0.91470  0.58930  1.0000 0.6171803881
C   C16       1.0  0.18490  0.08530  0.08930  1.0000 0.6171803881
C   C17       1.0  0.08530  0.18490  0.66070  1.0000 0.6171803881
C   C18       1.0  0.91470  0.81510  0.16070  1.0000 0.6171803881
C   C19       1.0  0.18490  0.91470  0.41070  1.0000 0.6171803881
C   C20       1.0  0.81510  0.08530  0.91070  1.0000 0.6171803881
C   C21       1.0  0.95760  0.25940  0.42280  1.0000 -0.0331861402
C   C22       1.0  0.04240  0.74060  0.92280  1.0000 -0.0331861402
C   C23       1.0  0.74060  0.95760  0.67280  1.0000 -0.0331861402
C   C24       1.0  0.25940  0.04240  0.17280  1.0000 -0.0331861402
C   C25       1.0  0.04240  0.25940  0.57720  1.0000 -0.0331861402
C   C26       1.0  0.95760  0.74060  0.07720  1.0000 -0.0331861402
C   C27       1.0  0.25940  0.95760  0.32720  1.0000 -0.0331861402
C   C28       1.0  0.74060  0.04240  0.82720  1.0000 -0.0331861402
C   C29       1.0  0.00000  0.60900  0.50000  1.0000 0.6712915784
C   C30       1.0  0.00000  0.39100  0.00000  1.0000 0.6712915784
C   C31       1.0  0.39100  0.00000  0.75000  1.0000 0.6712915784
C   C32       1.0  0.60900  0.00000  0.25000  1.0000 0.6712915784
C   C33       1.0  0.00000  0.19240  0.50000  1.0000 -0.1275174434
C   C34       1.0  0.00000  0.80760  0.00000  1.0000 -0.1275174434
C   C35       1.0  0.80760  0.00000  0.75000  1.0000 -0.1275174434
C   C36       1.0  0.19240  0.00000  0.25000  1.0000 -0.1275174434
O   O1        1.0  0.90760  0.24210  0.26440  1.0000 -0.635712784
O   O2        1.0  0.09240  0.75790  0.76440  1.0000 -0.635712784
O   O3        1.0  0.75790  0.90760  0.51440  1.0000 -0.635712784
O   O4        1.0  0.24210  0.09240  0.01440  1.0000 -0.635712784
O   O5        1.0  0.09240  0.24210  0.73560  1.0000 -0.635712784
O   O6        1.0  0.90760  0.75790  0.23560  1.0000 -0.635712784
O   O7        1.0  0.24210  0.90760  0.48560  1.0000 -0.635712784
O   O8        1.0  0.75790  0.09240  0.98560  1.0000 -0.635712784
O   O9        1.0  0.88170  0.07440  0.34850  1.0000 -0.6236990506
O   O10       1.0  0.11830  0.92560  0.84850  1.0000 -0.6236990506
O   O11       1.0  0.92560  0.88170  0.59850  1.0000 -0.6236990506
O   O12       1.0  0.07440  0.11830  0.09850  1.0000 -0.6236990506
O   O13       1.0  0.11830  0.07440  0.65150  1.0000 -0.6236990506
O   O14       1.0  0.88170  0.92560  0.15150  1.0000 -0.6236990506
O   O15       1.0  0.07440  0.88170  0.40150  1.0000 -0.6236990506
O   O16       1.0  0.92560  0.11830  0.90150  1.0000 -0.6236990506
O   O17       1.0  0.07540  0.66230  0.55700  1.0000 -0.7021623145
O   O18       1.0  0.92460  0.33770  0.05700  1.0000 -0.7021623145
O   O19       1.0  0.33770  0.07540  0.80700  1.0000 -0.7021623145
O   O20       1.0  0.66230  0.92460  0.30700  1.0000 -0.7021623145
O   O21       1.0  0.92460  0.66230  0.44300  1.0000 -0.7021623145
O   O22       1.0  0.07540  0.33770  0.94300  1.0000 -0.7021623145
O   O23       1.0  0.66230  0.07540  0.19300  1.0000 -0.7021623145
O   O24       1.0  0.33770  0.92460  0.69300  1.0000 -0.7021623145
