# DDEC6 charges by PACMAN v1.1 (https://github.com/mtap-research/PACMAN-charge/)
data_2023[Zn][sra]3[ASR]1
_chemical_formula_sum              "Zn4 H64 C104 N16 O32"
_cell_length_a       8.92
_cell_length_b       17.576
_cell_length_c       22.3765
_cell_angle_alpha    90
_cell_angle_beta     104.827
_cell_angle_gamma    90

_symmetry_space_group_name_H-M    "P 1"
_symmetry_Int_Tables_number       1

loop_
  _symmetry_equiv_pos_as_xyz
  'x, y, z'

loop_
  _atom_site_type_symbol
  _atom_site_label
  _atom_site_symmetry_multiplicity
  _atom_site_fract_x
  _atom_site_fract_y
  _atom_site_fract_z
  _atom_site_occupancy
  _atom_site_charge
Zn  Zn1       1.0  0.97173  0.57722  0.63410  1.0000 0.8116922262
Zn  Zn2       1.0  0.02827  0.07722  0.86590  1.0000 0.8116922262
Zn  Zn3       1.0  0.02827  0.42278  0.36590  1.0000 0.8116922262
Zn  Zn4       1.0  0.97173  0.92278  0.13410  1.0000 0.8116922262
H   H1        1.0  0.27960  0.56071  0.13326  1.0000 0.365880906
H   H2        1.0  0.72040  0.06071  0.36674  1.0000 0.365880906
H   H3        1.0  0.72040  0.43929  0.86674  1.0000 0.365880906
H   H4        1.0  0.27960  0.93929  0.63326  1.0000 0.365880906
H   H5        1.0  0.04019  0.73442  0.51064  1.0000 0.365880906
H   H6        1.0  0.95981  0.23442  0.98936  1.0000 0.365880906
H   H7        1.0  0.95981  0.26558  0.48936  1.0000 0.365880906
H   H8        1.0  0.04019  0.76558  0.01064  1.0000 0.365880906
H   H9        1.0  0.89072  0.55682  0.49423  1.0000 0.1193708053
H   H10       1.0  0.10928  0.05682  0.00577  1.0000 0.1193708053
H   H11       1.0  0.10928  0.44318  0.50577  1.0000 0.1193708053
H   H12       1.0  0.89072  0.94318  0.99423  1.0000 0.1193708053
H   H13       1.0  0.72820  0.55176  0.38351  1.0000 0.1400153334
H   H14       1.0  0.27180  0.05176  0.11649  1.0000 0.1400153334
H   H15       1.0  0.27180  0.44824  0.61649  1.0000 0.1400153334
H   H16       1.0  0.72820  0.94824  0.88351  1.0000 0.1400153334
H   H17       1.0  0.55009  0.54243  0.37668  1.0000 0.1298695909
H   H18       1.0  0.44991  0.04243  0.12332  1.0000 0.1298695909
H   H19       1.0  0.44991  0.45757  0.62332  1.0000 0.1298695909
H   H20       1.0  0.55009  0.95757  0.87668  1.0000 0.1298695909
H   H21       1.0  0.58165  0.59571  0.63872  1.0000 0.1400153334
H   H22       1.0  0.41835  0.09571  0.86128  1.0000 0.1400153334
H   H23       1.0  0.41835  0.40429  0.36128  1.0000 0.1400153334
H   H24       1.0  0.58165  0.90429  0.13872  1.0000 0.1400153334
H   H25       1.0  0.80496  0.70317  0.40578  1.0000 0.1193708053
H   H26       1.0  0.19504  0.20317  0.09422  1.0000 0.1193708053
H   H27       1.0  0.19504  0.29683  0.59422  1.0000 0.1193708053
H   H28       1.0  0.80496  0.79683  0.90578  1.0000 0.1193708053
H   H29       1.0  0.08331  0.72303  0.14564  1.0000 0.1400153334
H   H30       1.0  0.91669  0.22303  0.35436  1.0000 0.1400153334
H   H31       1.0  0.91669  0.27697  0.85436  1.0000 0.1400153334
H   H32       1.0  0.08331  0.77697  0.64564  1.0000 0.1400153334
H   H33       1.0  0.97597  0.67144  0.33703  1.0000 0.1400153334
H   H34       1.0  0.02403  0.17144  0.16297  1.0000 0.1400153334
H   H35       1.0  0.02403  0.32856  0.66297  1.0000 0.1400153334
H   H36       1.0  0.97597  0.82856  0.83703  1.0000 0.1400153334
H   H37       1.0  0.85483  0.91770  0.24456  1.0000 0.1193708053
H   H38       1.0  0.14517  0.41770  0.25544  1.0000 0.1193708053
H   H39       1.0  0.14517  0.08230  0.75544  1.0000 0.1193708053
H   H40       1.0  0.85483  0.58230  0.74456  1.0000 0.1193708053
H   H41       1.0  0.91911  0.81472  0.38065  1.0000 0.1298695909
H   H42       1.0  0.08089  0.31472  0.11935  1.0000 0.1298695909
H   H43       1.0  0.08089  0.18528  0.61935  1.0000 0.1298695909
H   H44       1.0  0.91911  0.68528  0.88065  1.0000 0.1298695909
H   H45       1.0  0.80631  0.87831  0.34547  1.0000 0.1298695909
H   H46       1.0  0.19369  0.37831  0.15453  1.0000 0.1298695909
H   H47       1.0  0.19369  0.12169  0.65453  1.0000 0.1298695909
H   H48       1.0  0.80631  0.62169  0.84547  1.0000 0.1298695909
H   H49       1.0  0.35106  0.62318  0.42546  1.0000 0.146869793
H   H50       1.0  0.64894  0.12318  0.07454  1.0000 0.146869793
H   H51       1.0  0.64894  0.37682  0.57454  1.0000 0.146869793
H   H52       1.0  0.35106  0.87682  0.92546  1.0000 0.146869793
H   H53       1.0  0.56475  0.82470  0.26090  1.0000 0.1298695909
H   H54       1.0  0.43525  0.32470  0.23910  1.0000 0.1298695909
H   H55       1.0  0.43525  0.17530  0.73910  1.0000 0.1298695909
H   H56       1.0  0.56475  0.67530  0.76090  1.0000 0.1298695909
H   H57       1.0  0.40380  0.62221  0.29987  1.0000 0.1193708053
H   H58       1.0  0.59620  0.12221  0.20013  1.0000 0.1193708053
H   H59       1.0  0.59620  0.37779  0.70013  1.0000 0.1193708053
H   H60       1.0  0.40380  0.87779  0.79987  1.0000 0.1193708053
H   H61       1.0  0.37488  0.73213  0.24066  1.0000 0.1146801817
H   H62       1.0  0.62512  0.23213  0.25934  1.0000 0.1146801817
H   H63       1.0  0.62512  0.26787  0.75934  1.0000 0.1146801817
H   H64       1.0  0.37488  0.76787  0.74066  1.0000 0.1146801817
C   C1        1.0  0.09349  0.54870  0.30119  1.0000 0.5600424193
C   C2        1.0  0.90651  0.04870  0.19881  1.0000 0.5600424193
C   C3        1.0  0.90651  0.45130  0.69881  1.0000 0.5600424193
C   C4        1.0  0.09349  0.95130  0.80119  1.0000 0.5600424193
C   C5        1.0  0.79734  0.56880  0.50324  1.0000 0.1400153334
C   C6        1.0  0.20266  0.06880  0.99676  1.0000 0.1400153334
C   C7        1.0  0.20266  0.43120  0.49676  1.0000 0.1400153334
C   C8        1.0  0.79734  0.93120  0.00324  1.0000 0.1400153334
C   C9        1.0  0.70595  0.77220  0.33495  1.0000 0.1041089329
C   C10       1.0  0.29405  0.27220  0.16505  1.0000 0.1041089329
C   C11       1.0  0.29405  0.22780  0.66505  1.0000 0.1041089329
C   C12       1.0  0.70595  0.72780  0.83495  1.0000 0.1041089329
C   C13       1.0  0.62394  0.59210  0.55344  1.0000 0.1400153334
C   C14       1.0  0.37606  0.09210  0.94656  1.0000 0.1400153334
C   C15       1.0  0.37606  0.40790  0.44656  1.0000 0.1400153334
C   C16       1.0  0.62394  0.90790  0.05344  1.0000 0.1400153334
C   C17       1.0  0.05527  0.62490  0.26777  1.0000 -0.0019780675
C   C18       1.0  0.94473  0.12490  0.23223  1.0000 -0.0019780675
C   C19       1.0  0.94473  0.37510  0.73223  1.0000 -0.0019780675
C   C20       1.0  0.05527  0.87510  0.76777  1.0000 -0.0019780675
C   C21       1.0  0.96797  0.75190  0.27087  1.0000 0.086586501
C   C22       1.0  0.03203  0.25190  0.22913  1.0000 0.086586501
C   C23       1.0  0.03203  0.24810  0.72913  1.0000 0.086586501
C   C24       1.0  0.96797  0.74810  0.77087  1.0000 0.086586501
C   C25       1.0  0.08688  0.64060  0.21028  1.0000 -0.0602321113
C   C26       1.0  0.91312  0.14060  0.28972  1.0000 -0.0602321113
C   C27       1.0  0.91312  0.35940  0.78972  1.0000 -0.0602321113
C   C28       1.0  0.08688  0.85940  0.71028  1.0000 -0.0602321113
C   C29       1.0  0.63825  0.57560  0.39245  1.0000 -0.1513901097
C   C30       1.0  0.36175  0.07560  0.10755  1.0000 -0.1513901097
C   C31       1.0  0.36175  0.42440  0.60755  1.0000 -0.1513901097
C   C32       1.0  0.63825  0.92440  0.89245  1.0000 -0.1513901097
C   C33       1.0  0.38069  0.61900  0.57519  1.0000 -0.0368164411
C   C34       1.0  0.61931  0.11900  0.92481  1.0000 -0.0368164411
C   C35       1.0  0.61931  0.38100  0.42481  1.0000 -0.0368164411
C   C36       1.0  0.38069  0.88100  0.07519  1.0000 -0.0368164411
C   C37       1.0  0.99670  0.76800  0.21350  1.0000 0.1400153334
C   C38       1.0  0.00330  0.26800  0.28650  1.0000 0.1400153334
C   C39       1.0  0.00330  0.23200  0.78650  1.0000 0.1400153334
C   C40       1.0  0.99670  0.73200  0.71350  1.0000 0.1400153334
C   C41       1.0  0.53634  0.60130  0.59664  1.0000 -0.1692475138
C   C42       1.0  0.46366  0.10130  0.90336  1.0000 -0.1692475138
C   C43       1.0  0.46366  0.39870  0.40336  1.0000 -0.1692475138
C   C44       1.0  0.53634  0.89870  0.09664  1.0000 -0.1692475138
C   C45       1.0  0.72014  0.70810  0.37174  1.0000 -0.2118307916
C   C46       1.0  0.27986  0.20810  0.12826  1.0000 -0.2118307916
C   C47       1.0  0.27986  0.29190  0.62826  1.0000 -0.2118307916
C   C48       1.0  0.72014  0.79190  0.87174  1.0000 -0.2118307916
C   C49       1.0  0.55227  0.59810  0.49007  1.0000 0.086586501
C   C50       1.0  0.44773  0.09810  0.00993  1.0000 0.086586501
C   C51       1.0  0.44773  0.40190  0.50993  1.0000 0.086586501
C   C52       1.0  0.55227  0.90190  0.99007  1.0000 0.086586501
C   C53       1.0  0.60859  0.65070  0.35829  1.0000 0.1193708053
C   C54       1.0  0.39141  0.15070  0.14171  1.0000 0.1193708053
C   C55       1.0  0.39141  0.34930  0.64171  1.0000 0.1193708053
C   C56       1.0  0.60859  0.84930  0.85829  1.0000 0.1193708053
C   C57       1.0  0.05978  0.71260  0.18298  1.0000 -0.178401807
C   C58       1.0  0.94022  0.21260  0.31702  1.0000 -0.178401807
C   C59       1.0  0.94022  0.28740  0.81702  1.0000 -0.1692475138
C   C60       1.0  0.05978  0.78740  0.68298  1.0000 -0.178401807
C   C61       1.0  0.99603  0.68090  0.29893  1.0000 -0.178401807
C   C62       1.0  0.00397  0.18090  0.20107  1.0000 -0.178401807
C   C63       1.0  0.00397  0.31910  0.70107  1.0000 -0.178401807
C   C64       1.0  0.99603  0.81910  0.79893  1.0000 -0.178401807
C   C65       1.0  0.89573  0.86920  0.24363  1.0000 0.146869793
C   C66       1.0  0.10427  0.36920  0.25637  1.0000 0.146869793
C   C67       1.0  0.10427  0.13080  0.75637  1.0000 0.146869793
C   C68       1.0  0.89573  0.63080  0.74363  1.0000 0.146869793
C   C69       1.0  0.31394  0.63060  0.51104  1.0000 -0.0335421027
C   C70       1.0  0.68606  0.13060  0.98896  1.0000 -0.0335421027
C   C71       1.0  0.68606  0.36940  0.48896  1.0000 -0.0335421027
C   C72       1.0  0.31394  0.86940  0.01104  1.0000 -0.0335421027
C   C73       1.0  0.84097  0.82640  0.34287  1.0000 -0.1513901097
C   C74       1.0  0.15903  0.32640  0.15713  1.0000 -0.1513901097
C   C75       1.0  0.15903  0.17360  0.65713  1.0000 -0.1513901097
C   C76       1.0  0.84097  0.67360  0.84287  1.0000 -0.1513901097
C   C77       1.0  0.39668  0.61830  0.46758  1.0000 -0.178401807
C   C78       1.0  0.60332  0.11830  0.03242  1.0000 -0.178401807
C   C79       1.0  0.60332  0.38170  0.53242  1.0000 -0.178401807
C   C80       1.0  0.39668  0.88170  0.96758  1.0000 -0.178401807
C   C81       1.0  0.27571  0.61700  0.61881  1.0000 0.5547240557
C   C82       1.0  0.72429  0.11700  0.88119  1.0000 0.5600424193
C   C83       1.0  0.72429  0.38300  0.38119  1.0000 0.5600424193
C   C84       1.0  0.27571  0.88300  0.11881  1.0000 0.5600424193
C   C85       1.0  0.14194  0.57690  0.17704  1.0000 0.5600424193
C   C86       1.0  0.85806  0.07690  0.32296  1.0000 0.5600424193
C   C87       1.0  0.85806  0.42310  0.82296  1.0000 0.5600424193
C   C88       1.0  0.14194  0.92310  0.67704  1.0000 0.5600424193
C   C89       1.0  0.57560  0.78130  0.28550  1.0000 -0.1569056069
C   C90       1.0  0.42440  0.28130  0.21450  1.0000 -0.1569056069
C   C91       1.0  0.42440  0.21870  0.71450  1.0000 -0.1569056069
C   C92       1.0  0.57560  0.71870  0.78550  1.0000 -0.1569056069
C   C93       1.0  0.47940  0.65990  0.30900  1.0000 -0.1569056069
C   C94       1.0  0.52060  0.15990  0.19100  1.0000 -0.1569056069
C   C95       1.0  0.52060  0.34010  0.69100  1.0000 -0.1569056069
C   C96       1.0  0.47940  0.84010  0.80900  1.0000 -0.1569056069
C   C97       1.0  0.15170  0.66160  0.48870  1.0000 0.5600424193
C   C98       1.0  0.84830  0.16160  0.01130  1.0000 0.5600424193
C   C99       1.0  0.84830  0.33840  0.51130  1.0000 0.5600424193
C   C100      1.0  0.15170  0.83840  0.98870  1.0000 0.5600424193
C   C101      1.0  0.46280  0.72570  0.27320  1.0000 -0.0602321113
C   C102      1.0  0.53720  0.22570  0.22680  1.0000 -0.0602321113
C   C103      1.0  0.53720  0.27430  0.72680  1.0000 -0.0602321113
C   C104      1.0  0.46280  0.77430  0.77320  1.0000 -0.0602321113
N   N1        1.0  0.94904  0.84352  0.19734  1.0000 -0.3608680671
N   N2        1.0  0.05096  0.34352  0.30266  1.0000 -0.3608680671
N   N3        1.0  0.05096  0.15648  0.80266  1.0000 -0.3608680671
N   N4        1.0  0.94904  0.65648  0.69734  1.0000 -0.3608680671
N   N5        1.0  0.78146  0.57484  0.56016  1.0000 -0.3608680671
N   N6        1.0  0.21854  0.07484  0.93984  1.0000 -0.3608680671
N   N7        1.0  0.21854  0.42516  0.43984  1.0000 -0.3608680671
N   N8        1.0  0.78146  0.92516  0.06016  1.0000 -0.3608680671
N   N9        1.0  0.66455  0.58162  0.45955  1.0000 -0.0019780675
N   N10       1.0  0.33545  0.08162  0.04045  1.0000 -0.0019780675
N   N11       1.0  0.33545  0.41838  0.54045  1.0000 -0.0019780675
N   N12       1.0  0.66455  0.91838  0.95955  1.0000 -0.0019780675
N   N13       1.0  0.90670  0.81796  0.28910  1.0000 -0.0019780675
N   N14       1.0  0.09330  0.31796  0.21090  1.0000 -0.0019780675
N   N15       1.0  0.09330  0.18204  0.71090  1.0000 -0.0019780675
N   N16       1.0  0.90670  0.68204  0.78910  1.0000 -0.0019780675
O   O1        1.0  0.13830  0.59152  0.59310  1.0000 -0.5804142622
O   O2        1.0  0.86170  0.09152  0.90690  1.0000 -0.5804142622
O   O3        1.0  0.86170  0.40848  0.40690  1.0000 -0.5804142622
O   O4        1.0  0.13830  0.90848  0.09310  1.0000 -0.5804142622
O   O5        1.0  0.98144  0.51737  0.31734  1.0000 -0.5439509717
O   O6        1.0  0.01856  0.01737  0.18266  1.0000 -0.5439509717
O   O7        1.0  0.01856  0.48263  0.68266  1.0000 -0.5439509717
O   O8        1.0  0.98144  0.98263  0.81734  1.0000 -0.5439509717
O   O9        1.0  0.22665  0.52369  0.31095  1.0000 -0.5535532055
O   O10       1.0  0.77335  0.02369  0.18905  1.0000 -0.5535532055
O   O11       1.0  0.77335  0.47631  0.68905  1.0000 -0.5535532055
O   O12       1.0  0.22665  0.97631  0.81095  1.0000 -0.5535532055
O   O13       1.0  0.09136  0.51298  0.17526  1.0000 -0.4971210999
O   O14       1.0  0.90864  0.01298  0.32474  1.0000 -0.4971210999
O   O15       1.0  0.90864  0.48702  0.82474  1.0000 -0.4971210999
O   O16       1.0  0.09136  0.98702  0.67526  1.0000 -0.4971210999
O   O17       1.0  0.32391  0.63460  0.67261  1.0000 -0.5190552888
O   O18       1.0  0.67609  0.13460  0.82739  1.0000 -0.5190552888
O   O19       1.0  0.67609  0.36540  0.32739  1.0000 -0.5190552888
O   O20       1.0  0.32391  0.86540  0.17261  1.0000 -0.5190552888
O   O21       1.0  0.24772  0.59820  0.14802  1.0000 -0.4591943739
O   O22       1.0  0.75228  0.09820  0.35198  1.0000 -0.4591943739
O   O23       1.0  0.75228  0.40180  0.85198  1.0000 -0.4591943739
O   O24       1.0  0.24772  0.90180  0.64802  1.0000 -0.4591943739
O   O25       1.0  0.05542  0.63310  0.44662  1.0000 -0.5120582996
O   O26       1.0  0.94458  0.13310  0.05338  1.0000 -0.5120582996
O   O27       1.0  0.94458  0.36690  0.55338  1.0000 -0.5120582996
O   O28       1.0  0.05542  0.86690  0.94662  1.0000 -0.5120582996
O   O29       1.0  0.13284  0.72410  0.51814  1.0000 -0.4500083593
O   O30       1.0  0.86716  0.22410  0.98186  1.0000 -0.4500083593
O   O31       1.0  0.86716  0.27590  0.48186  1.0000 -0.4500083593
O   O32       1.0  0.13284  0.77590  0.01814  1.0000 -0.4500083593
