# DDEC6 charges by PACMAN v1.1 (https://github.com/mtap-research/PACMAN-charge/)
data_2023[ZnTi][nan]3[ASR]11
_chemical_formula_sum              "Ti8 Zn6 H246 C384 N30 O72"
_cell_length_a       20.9618
_cell_length_b       20.9618
_cell_length_c       30.636
_cell_angle_alpha    90
_cell_angle_beta     90
_cell_angle_gamma    120

_symmetry_space_group_name_H-M    "P 1"
_symmetry_Int_Tables_number       1

loop_
  _symmetry_equiv_pos_as_xyz
  'x, y, z'

loop_
  _atom_site_type_symbol
  _atom_site_label
  _atom_site_symmetry_multiplicity
  _atom_site_fract_x
  _atom_site_fract_y
  _atom_site_fract_z
  _atom_site_occupancy
  _atom_site_charge
Ti  Ti1       1.0  0.43462  0.48939  0.44810  1.0000 1.9070213922
Ti  Ti2       1.0  0.51061  0.94523  0.44810  1.0000 1.9070213922
Ti  Ti3       1.0  0.05477  0.56538  0.44810  1.0000 1.9070213922
Ti  Ti4       1.0  0.56538  0.51061  0.94810  1.0000 1.9070213922
Ti  Ti5       1.0  0.48939  0.05477  0.94810  1.0000 1.9070213922
Ti  Ti6       1.0  0.94523  0.43462  0.94810  1.0000 1.9070213922
Ti  Ti7       1.0  0.33333  0.66667  0.20608  1.0000 1.8949247885
Ti  Ti8       1.0  0.66667  0.33333  0.70608  1.0000 1.8949247885
Zn  Zn1       1.0  0.42991  0.27097  0.45621  1.0000 0.7368648339
Zn  Zn2       1.0  0.72903  0.15894  0.45621  1.0000 0.7368648339
Zn  Zn3       1.0  0.84106  0.57009  0.45621  1.0000 0.7368648339
Zn  Zn4       1.0  0.57009  0.72903  0.95621  1.0000 0.7368648339
Zn  Zn5       1.0  0.27097  0.84106  0.95621  1.0000 0.7368648339
Zn  Zn6       1.0  0.15894  0.42991  0.95621  1.0000 0.7368648339
H   H1        1.0  0.52204  0.39975  0.46836  1.0000 0.3013440359
H   H2        1.0  0.60025  0.12229  0.46836  1.0000 0.3013440359
H   H3        1.0  0.87771  0.47796  0.46836  1.0000 0.3013440359
H   H4        1.0  0.47796  0.60025  0.96836  1.0000 0.3013440359
H   H5        1.0  0.39975  0.87771  0.96836  1.0000 0.3013440359
H   H6        1.0  0.12229  0.52204  0.96836  1.0000 0.3013440359
H   H7        1.0  0.50299  0.36308  0.51050  1.0000 0.3186877954
H   H8        1.0  0.63692  0.13991  0.51050  1.0000 0.3186877954
H   H9        1.0  0.86009  0.49701  0.51050  1.0000 0.3186877954
H   H10       1.0  0.49701  0.63692  0.01050  1.0000 0.3186877954
H   H11       1.0  0.36308  0.86009  0.01050  1.0000 0.3186877954
H   H12       1.0  0.13991  0.50299  0.01050  1.0000 0.3186877954
H   H13       1.0  0.55417  0.35553  0.48198  1.0000 0.3057324726
H   H14       1.0  0.64447  0.19864  0.48198  1.0000 0.3057324726
H   H15       1.0  0.80136  0.44583  0.48198  1.0000 0.3057324726
H   H16       1.0  0.44583  0.64447  0.98198  1.0000 0.3057324726
H   H17       1.0  0.35553  0.80136  0.98198  1.0000 0.3057324726
H   H18       1.0  0.19864  0.55417  0.98198  1.0000 0.3057324726
H   H19       1.0  0.31425  0.91671  0.86585  1.0000 0.131222287
H   H20       1.0  0.08329  0.39754  0.86585  1.0000 0.131222287
H   H21       1.0  0.60246  0.68575  0.86585  1.0000 0.131222287
H   H22       1.0  0.68575  0.08329  0.36585  1.0000 0.131222287
H   H23       1.0  0.91671  0.60246  0.36585  1.0000 0.131222287
H   H24       1.0  0.39754  0.31425  0.36585  1.0000 0.131222287
H   H25       1.0  0.18986  0.48644  0.44611  1.0000 0.131222287
H   H26       1.0  0.51356  0.70342  0.44611  1.0000 0.131222287
H   H27       1.0  0.29658  0.81014  0.44611  1.0000 0.131222287
H   H28       1.0  0.81014  0.51356  0.94611  1.0000 0.131222287
H   H29       1.0  0.48644  0.29658  0.94611  1.0000 0.131222287
H   H30       1.0  0.70342  0.18986  0.94611  1.0000 0.131222287
H   H31       1.0  0.26606  0.51612  0.46919  1.0000 0.131222287
H   H32       1.0  0.48388  0.74994  0.46919  1.0000 0.131222287
H   H33       1.0  0.25006  0.73394  0.46919  1.0000 0.131222287
H   H34       1.0  0.73394  0.48388  0.96919  1.0000 0.131222287
H   H35       1.0  0.51612  0.25006  0.96919  1.0000 0.131222287
H   H36       1.0  0.74994  0.26606  0.96919  1.0000 0.131222287
H   H37       1.0  0.25706  0.28831  0.35486  1.0000 0.1102395165
H   H38       1.0  0.71169  0.96875  0.35486  1.0000 0.1102395165
H   H39       1.0  0.03125  0.74294  0.35486  1.0000 0.1102395165
H   H40       1.0  0.74294  0.71169  0.85486  1.0000 0.1102395165
H   H41       1.0  0.28831  0.03125  0.85486  1.0000 0.1102395165
H   H42       1.0  0.96875  0.25706  0.85486  1.0000 0.1102395165
H   H43       1.0  0.40326  0.59770  0.30279  1.0000 0.131222287
H   H44       1.0  0.40230  0.80556  0.30279  1.0000 0.131222287
H   H45       1.0  0.19444  0.59674  0.30279  1.0000 0.131222287
H   H46       1.0  0.59674  0.40230  0.80279  1.0000 0.131222287
H   H47       1.0  0.59770  0.19444  0.80279  1.0000 0.131222287
H   H48       1.0  0.80556  0.40326  0.80279  1.0000 0.131222287
H   H49       1.0  0.36519  0.54020  0.34039  1.0000 0.131222287
H   H50       1.0  0.45980  0.82499  0.34039  1.0000 0.131222287
H   H51       1.0  0.17501  0.63481  0.34039  1.0000 0.131222287
H   H52       1.0  0.63481  0.45980  0.84039  1.0000 0.131222287
H   H53       1.0  0.54020  0.17501  0.84039  1.0000 0.131222287
H   H54       1.0  0.82499  0.36519  0.84039  1.0000 0.131222287
H   H55       1.0  0.46470  0.06642  0.51346  1.0000 0.1485166004
H   H56       1.0  0.93358  0.39828  0.51346  1.0000 0.1485166004
H   H57       1.0  0.60172  0.53530  0.51346  1.0000 0.1485166004
H   H58       1.0  0.53530  0.93358  0.01346  1.0000 0.1485166004
H   H59       1.0  0.06642  0.60172  0.01346  1.0000 0.1485166004
H   H60       1.0  0.39828  0.46470  0.01346  1.0000 0.1485166004
H   H61       1.0  0.35960  0.17375  0.54139  1.0000 0.131222287
H   H62       1.0  0.82625  0.18585  0.54139  1.0000 0.131222287
H   H63       1.0  0.81415  0.64040  0.54139  1.0000 0.131222287
H   H64       1.0  0.64040  0.82625  0.04139  1.0000 0.131222287
H   H65       1.0  0.17375  0.81415  0.04139  1.0000 0.131222287
H   H66       1.0  0.18585  0.35960  0.04139  1.0000 0.131222287
H   H67       1.0  0.32417  0.41365  0.34691  1.0000 0.1198667117
H   H68       1.0  0.58635  0.91052  0.34691  1.0000 0.1198667117
H   H69       1.0  0.08948  0.67583  0.34691  1.0000 0.1198667117
H   H70       1.0  0.67583  0.58635  0.84691  1.0000 0.1198667117
H   H71       1.0  0.41365  0.08948  0.84691  1.0000 0.1198667117
H   H72       1.0  0.91052  0.32417  0.84691  1.0000 0.1198667117
H   H73       1.0  0.09788  0.52202  0.61275  1.0000 0.1198667117
H   H74       1.0  0.47798  0.57586  0.61275  1.0000 0.1198667117
H   H75       1.0  0.42414  0.90212  0.61275  1.0000 0.1198667117
H   H76       1.0  0.90212  0.47798  0.11275  1.0000 0.1198667117
H   H77       1.0  0.52202  0.42414  0.11275  1.0000 0.1102395165
H   H78       1.0  0.57586  0.09788  0.11275  1.0000 0.1102395165
H   H79       1.0  0.45154  0.58721  0.23247  1.0000 0.131222287
H   H80       1.0  0.41279  0.86433  0.23247  1.0000 0.131222287
H   H81       1.0  0.13567  0.54846  0.23247  1.0000 0.131222287
H   H82       1.0  0.54846  0.41279  0.73247  1.0000 0.131222287
H   H83       1.0  0.58721  0.13567  0.73247  1.0000 0.131222287
H   H84       1.0  0.86433  0.45154  0.73247  1.0000 0.131222287
H   H85       1.0  0.19767  0.37468  0.19289  1.0000 0.1198667117
H   H86       1.0  0.62532  0.82299  0.19289  1.0000 0.1198667117
H   H87       1.0  0.17701  0.80233  0.19289  1.0000 0.1198667117
H   H88       1.0  0.80233  0.62532  0.69289  1.0000 0.1198667117
H   H89       1.0  0.37468  0.17701  0.69289  1.0000 0.1198667117
H   H90       1.0  0.82299  0.19767  0.69289  1.0000 0.1198667117
H   H91       1.0  0.96106  0.27590  0.46408  1.0000 0.1102395165
H   H92       1.0  0.72410  0.68516  0.46408  1.0000 0.1102395165
H   H93       1.0  0.31484  0.03894  0.46408  1.0000 0.1102395165
H   H94       1.0  0.03894  0.72410  0.96408  1.0000 0.1102395165
H   H95       1.0  0.27590  0.31484  0.96408  1.0000 0.1102395165
H   H96       1.0  0.68516  0.96106  0.96408  1.0000 0.1102395165
H   H97       1.0  0.47652  0.08180  0.59942  1.0000 0.1485166004
H   H98       1.0  0.91820  0.39472  0.59942  1.0000 0.1485166004
H   H99       1.0  0.60528  0.52348  0.59942  1.0000 0.1485166004
H   H100      1.0  0.52348  0.91820  0.09942  1.0000 0.1485166004
H   H101      1.0  0.08180  0.60528  0.09942  1.0000 0.1485166004
H   H102      1.0  0.39472  0.47652  0.09942  1.0000 0.1485166004
H   H103      1.0  0.18402  0.21238  0.29788  1.0000 0.1198667117
H   H104      1.0  0.78762  0.97164  0.29788  1.0000 0.1198667117
H   H105      1.0  0.02836  0.81598  0.29788  1.0000 0.1198667117
H   H106      1.0  0.81598  0.78762  0.79788  1.0000 0.1198667117
H   H107      1.0  0.21238  0.02836  0.79788  1.0000 0.1198667117
H   H108      1.0  0.97164  0.18402  0.79788  1.0000 0.1198667117
H   H109      1.0  0.48865  0.15462  0.45518  1.0000 0.131222287
H   H110      1.0  0.84538  0.33403  0.45518  1.0000 0.131222287
H   H111      1.0  0.66597  0.51135  0.45518  1.0000 0.131222287
H   H112      1.0  0.51135  0.84538  0.95518  1.0000 0.131222287
H   H113      1.0  0.15462  0.66597  0.95518  1.0000 0.131222287
H   H114      1.0  0.33403  0.48865  0.95518  1.0000 0.131222287
H   H115      1.0  0.60375  0.48975  0.31924  1.0000 0.1102395165
H   H116      1.0  0.51025  0.11400  0.31924  1.0000 0.1102395165
H   H117      1.0  0.88600  0.39625  0.31924  1.0000 0.1102395165
H   H118      1.0  0.39625  0.51025  0.81924  1.0000 0.1102395165
H   H119      1.0  0.48975  0.88600  0.81924  1.0000 0.1102395165
H   H120      1.0  0.11400  0.60375  0.81924  1.0000 0.1102395165
H   H121      1.0  0.29181  0.46765  0.53631  1.0000 0.1198667117
H   H122      1.0  0.53235  0.82416  0.53631  1.0000 0.1198667117
H   H123      1.0  0.17584  0.70819  0.53631  1.0000 0.1198667117
H   H124      1.0  0.70819  0.53235  0.03631  1.0000 0.1198667117
H   H125      1.0  0.46765  0.17584  0.03631  1.0000 0.1198667117
H   H126      1.0  0.82416  0.29181  0.03631  1.0000 0.1198667117
H   H127      1.0  0.06990  0.38223  0.46776  1.0000 0.1198667117
H   H128      1.0  0.61777  0.68767  0.46776  1.0000 0.1198667117
H   H129      1.0  0.31233  0.93010  0.46776  1.0000 0.1198667117
H   H130      1.0  0.93010  0.61777  0.96776  1.0000 0.1198667117
H   H131      1.0  0.38223  0.31233  0.96776  1.0000 0.1198667117
H   H132      1.0  0.68767  0.06990  0.96776  1.0000 0.1198667117
H   H133      1.0  0.32771  0.45546  0.60473  1.0000 0.1198667117
H   H134      1.0  0.54454  0.87225  0.60473  1.0000 0.1198667117
H   H135      1.0  0.12775  0.67229  0.60473  1.0000 0.1198667117
H   H136      1.0  0.67229  0.54454  0.10473  1.0000 0.1198667117
H   H137      1.0  0.45546  0.12775  0.10473  1.0000 0.1198667117
H   H138      1.0  0.87225  0.32771  0.10473  1.0000 0.1198667117
H   H139      1.0  0.37788  0.94329  0.79595  1.0000 0.1198667117
H   H140      1.0  0.05671  0.43459  0.79595  1.0000 0.1198667117
H   H141      1.0  0.56541  0.62212  0.79595  1.0000 0.1198667117
H   H142      1.0  0.62212  0.05671  0.29595  1.0000 0.1198667117
H   H143      1.0  0.94329  0.56541  0.29595  1.0000 0.1198667117
H   H144      1.0  0.43459  0.37788  0.29595  1.0000 0.1198667117
H   H145      1.0  0.52232  0.59734  0.17400  1.0000 0.131222287
H   H146      1.0  0.40266  0.92498  0.17400  1.0000 0.131222287
H   H147      1.0  0.07502  0.47768  0.17400  1.0000 0.131222287
H   H148      1.0  0.47768  0.40266  0.67400  1.0000 0.131222287
H   H149      1.0  0.59734  0.07502  0.67400  1.0000 0.131222287
H   H150      1.0  0.92498  0.52232  0.67400  1.0000 0.131222287
H   H151      1.0  0.16934  0.82310  0.75604  1.0000 0.131222287
H   H152      1.0  0.17690  0.34624  0.75604  1.0000 0.131222287
H   H153      1.0  0.65376  0.83066  0.75604  1.0000 0.131222287
H   H154      1.0  0.83066  0.17690  0.25604  1.0000 0.131222287
H   H155      1.0  0.82310  0.65376  0.25604  1.0000 0.131222287
H   H156      1.0  0.34624  0.16934  0.25604  1.0000 0.131222287
H   H157      1.0  0.19787  0.22045  0.46298  1.0000 0.1198667117
H   H158      1.0  0.77955  0.97742  0.46298  1.0000 0.1198667117
H   H159      1.0  0.02258  0.80213  0.46298  1.0000 0.1198667117
H   H160      1.0  0.80213  0.77955  0.96298  1.0000 0.1198667117
H   H161      1.0  0.22045  0.02258  0.96298  1.0000 0.1198667117
H   H162      1.0  0.97742  0.19787  0.96298  1.0000 0.1198667117
H   H163      1.0  0.63037  0.51779  0.24090  1.0000 0.1102395165
H   H164      1.0  0.48221  0.11258  0.24090  1.0000 0.1102395165
H   H165      1.0  0.88742  0.36963  0.24090  1.0000 0.1102395165
H   H166      1.0  0.36963  0.48221  0.74090  1.0000 0.1102395165
H   H167      1.0  0.51779  0.88742  0.74090  1.0000 0.1102395165
H   H168      1.0  0.11258  0.63037  0.74090  1.0000 0.1102395165
H   H169      1.0  0.17866  0.49584  0.65993  1.0000 0.1198667117
H   H170      1.0  0.50416  0.68282  0.65993  1.0000 0.1198667117
H   H171      1.0  0.31718  0.82134  0.65993  1.0000 0.1198667117
H   H172      1.0  0.82134  0.50416  0.15993  1.0000 0.1198667117
H   H173      1.0  0.49584  0.31718  0.15993  1.0000 0.1198667117
H   H174      1.0  0.68282  0.17866  0.15993  1.0000 0.1198667117
H   H175      1.0  0.60603  0.55605  0.17627  1.0000 0.1198667117
H   H176      1.0  0.44395  0.04998  0.17627  1.0000 0.1198667117
H   H177      1.0  0.95002  0.39397  0.17627  1.0000 0.1198667117
H   H178      1.0  0.39397  0.44395  0.67627  1.0000 0.1198667117
H   H179      1.0  0.55605  0.95002  0.67627  1.0000 0.1198667117
H   H180      1.0  0.04998  0.60603  0.67627  1.0000 0.1198667117
H   H181      1.0  0.27258  0.47162  0.66667  1.0000 0.1102395165
H   H182      1.0  0.52838  0.80096  0.66667  1.0000 0.1102395165
H   H183      1.0  0.19904  0.72742  0.66667  1.0000 0.1102395165
H   H184      1.0  0.72742  0.52838  0.16667  1.0000 0.1102395165
H   H185      1.0  0.47162  0.19904  0.16667  1.0000 0.1102395165
H   H186      1.0  0.80096  0.27258  0.16667  1.0000 0.1102395165
H   H187      1.0  0.41039  0.00434  0.73014  1.0000 0.1102395165
H   H188      1.0  0.99566  0.40605  0.73014  1.0000 0.1102395165
H   H189      1.0  0.59395  0.58961  0.73014  1.0000 0.1102395165
H   H190      1.0  0.58961  0.99566  0.23014  1.0000 0.1102395165
H   H191      1.0  0.00434  0.59395  0.23014  1.0000 0.1102395165
H   H192      1.0  0.40605  0.41039  0.23014  1.0000 0.1102395165
H   H193      1.0  0.17293  0.26404  0.23499  1.0000 0.1198667117
H   H194      1.0  0.73596  0.90889  0.23499  1.0000 0.1198667117
H   H195      1.0  0.09111  0.82707  0.23499  1.0000 0.1198667117
H   H196      1.0  0.82707  0.73596  0.73499  1.0000 0.1198667117
H   H197      1.0  0.26404  0.09111  0.73499  1.0000 0.1198667117
H   H198      1.0  0.90889  0.17293  0.73499  1.0000 0.1198667117
H   H199      1.0  0.20103  0.88725  0.69034  1.0000 0.1198667117
H   H200      1.0  0.11275  0.31378  0.69034  1.0000 0.1198667117
H   H201      1.0  0.68622  0.79897  0.69034  1.0000 0.1198667117
H   H202      1.0  0.79897  0.11275  0.19034  1.0000 0.1198667117
H   H203      1.0  0.88725  0.68622  0.19034  1.0000 0.1198667117
H   H204      1.0  0.31378  0.20103  0.19034  1.0000 0.1198667117
H   H205      1.0  0.43783  0.01824  0.66428  1.0000 0.1198667117
H   H206      1.0  0.98176  0.41959  0.66428  1.0000 0.1198667117
H   H207      1.0  0.58041  0.56217  0.66428  1.0000 0.1198667117
H   H208      1.0  0.56217  0.98176  0.16428  1.0000 0.1198667117
H   H209      1.0  0.01824  0.58041  0.16428  1.0000 0.1198667117
H   H210      1.0  0.41959  0.43783  0.16428  1.0000 0.1198667117
H   H211      1.0  0.95450  0.16120  0.46526  1.0000 0.1198667117
H   H212      1.0  0.83880  0.79330  0.46526  1.0000 0.1198667117
H   H213      1.0  0.20670  0.04550  0.46526  1.0000 0.1198667117
H   H214      1.0  0.04550  0.83880  0.96526  1.0000 0.1198667117
H   H215      1.0  0.16120  0.20670  0.96526  1.0000 0.1198667117
H   H216      1.0  0.79330  0.95450  0.96526  1.0000 0.1198667117
H   H217      1.0  0.06288  0.15745  0.46314  1.0000 0.1102395165
H   H218      1.0  0.84255  0.90543  0.46314  1.0000 0.1102395165
H   H219      1.0  0.09457  0.93712  0.46314  1.0000 0.1102395165
H   H220      1.0  0.93712  0.84255  0.96314  1.0000 0.1102395165
H   H221      1.0  0.15745  0.09457  0.96314  1.0000 0.1102395165
H   H222      1.0  0.90543  0.06288  0.96314  1.0000 0.1102395165
H   H223      1.0  0.23445  0.97802  0.64285  1.0000 0.1198667117
H   H224      1.0  0.02198  0.25643  0.64285  1.0000 0.1198667117
H   H225      1.0  0.74357  0.76555  0.64285  1.0000 0.1198667117
H   H226      1.0  0.76555  0.02198  0.14285  1.0000 0.1198667117
H   H227      1.0  0.97802  0.74357  0.14285  1.0000 0.1198667117
H   H228      1.0  0.25643  0.23445  0.14285  1.0000 0.1198667117
H   H229      1.0  0.27290  0.04200  0.57682  1.0000 0.131222287
H   H230      1.0  0.95800  0.23090  0.57682  1.0000 0.131222287
H   H231      1.0  0.76910  0.72710  0.57682  1.0000 0.131222287
H   H232      1.0  0.72710  0.95800  0.07682  1.0000 0.131222287
H   H233      1.0  0.04200  0.76910  0.07682  1.0000 0.131222287
H   H234      1.0  0.23090  0.27290  0.07682  1.0000 0.131222287
H   H235      1.0  0.18867  0.70749  0.88545  1.0000 0.131222287
H   H236      1.0  0.29251  0.48118  0.88545  1.0000 0.131222287
H   H237      1.0  0.51882  0.81133  0.88545  1.0000 0.131222287
H   H238      1.0  0.81133  0.29251  0.38545  1.0000 0.131222287
H   H239      1.0  0.70749  0.51882  0.38545  1.0000 0.131222287
H   H240      1.0  0.48118  0.18867  0.38545  1.0000 0.131222287
H   H241      1.0  0.18809  0.72935  0.80728  1.0000 0.131222287
H   H242      1.0  0.27065  0.45874  0.80728  1.0000 0.131222287
H   H243      1.0  0.54126  0.81191  0.80728  1.0000 0.131222287
H   H244      1.0  0.81191  0.27065  0.30728  1.0000 0.131222287
H   H245      1.0  0.72935  0.54126  0.30728  1.0000 0.131222287
H   H246      1.0  0.45874  0.18809  0.30728  1.0000 0.131222287
C   C1        1.0  0.54830  0.47550  0.39674  1.0000 0.5901606469
C   C2        1.0  0.52450  0.07280  0.39674  1.0000 0.5901606469
C   C3        1.0  0.92720  0.45170  0.39674  1.0000 0.5901606469
C   C4        1.0  0.45170  0.52450  0.89674  1.0000 0.5901606469
C   C5        1.0  0.47550  0.92720  0.89674  1.0000 0.5901606469
C   C6        1.0  0.07280  0.54830  0.89674  1.0000 0.5901606469
C   C7        1.0  0.28730  0.41870  0.28600  1.0000 0.0402433562
C   C8        1.0  0.58130  0.86860  0.28600  1.0000 0.0402433562
C   C9        1.0  0.13140  0.71270  0.28600  1.0000 0.0402433562
C   C10       1.0  0.71270  0.58130  0.78600  1.0000 0.0402433562
C   C11       1.0  0.41870  0.13140  0.78600  1.0000 0.0402433562
C   C12       1.0  0.86860  0.28730  0.78600  1.0000 0.0402433562
C   C13       1.0  0.32680  0.49580  0.27987  1.0000 -0.0182541928
C   C14       1.0  0.50420  0.83100  0.27987  1.0000 -0.0182541928
C   C15       1.0  0.16900  0.67320  0.27987  1.0000 -0.0182541928
C   C16       1.0  0.67320  0.50420  0.77987  1.0000 -0.0182541928
C   C17       1.0  0.49580  0.16900  0.77987  1.0000 -0.0182541928
C   C18       1.0  0.83100  0.32680  0.77987  1.0000 -0.0182541928
C   C19       1.0  0.26150  0.47980  0.21015  1.0000 -0.1410294758
C   C20       1.0  0.52020  0.78170  0.21015  1.0000 -0.1410294758
C   C21       1.0  0.21830  0.73850  0.21015  1.0000 -0.1410294758
C   C22       1.0  0.73850  0.52020  0.71015  1.0000 -0.1410294758
C   C23       1.0  0.47980  0.21830  0.71015  1.0000 -0.1410294758
C   C24       1.0  0.78170  0.26150  0.71015  1.0000 -0.1410294758
C   C25       1.0  0.52760  0.49720  0.35511  1.0000 -0.1677056836
C   C26       1.0  0.50280  0.03040  0.35511  1.0000 -0.1677056836
C   C27       1.0  0.96960  0.47240  0.35511  1.0000 -0.1677056836
C   C28       1.0  0.47240  0.50280  0.85511  1.0000 -0.1677056836
C   C29       1.0  0.49720  0.96960  0.85511  1.0000 -0.1677056836
C   C30       1.0  0.03040  0.52760  0.85511  1.0000 -0.1677056836
C   C31       1.0  0.28040  0.86720  0.86120  1.0000 0.1198667117
C   C32       1.0  0.13280  0.41320  0.86120  1.0000 0.1198667117
C   C33       1.0  0.58680  0.71960  0.86120  1.0000 0.1198667117
C   C34       1.0  0.71960  0.13280  0.36120  1.0000 0.1198667117
C   C35       1.0  0.86720  0.58680  0.36120  1.0000 0.1198667117
C   C36       1.0  0.41320  0.28040  0.36120  1.0000 0.1198667117
C   C37       1.0  0.31160  0.52640  0.24302  1.0000 0.2481973756
C   C38       1.0  0.47360  0.78520  0.24302  1.0000 0.2481973756
C   C39       1.0  0.21480  0.68840  0.24302  1.0000 0.2481973756
C   C40       1.0  0.68840  0.47360  0.74302  1.0000 0.2481973756
C   C41       1.0  0.52640  0.21480  0.74302  1.0000 0.2481973756
C   C42       1.0  0.78520  0.31160  0.74302  1.0000 0.2481973756
C   C43       1.0  0.18260  0.49220  0.51250  1.0000 -0.0182541928
C   C44       1.0  0.50780  0.69040  0.51250  1.0000 -0.0182541928
C   C45       1.0  0.30960  0.81740  0.51250  1.0000 -0.0182541928
C   C46       1.0  0.81740  0.50780  0.01250  1.0000 -0.0182541928
C   C47       1.0  0.49220  0.30960  0.01250  1.0000 -0.0182541928
C   C48       1.0  0.69040  0.18260  0.01250  1.0000 -0.0182541928
C   C49       1.0  0.21430  0.47910  0.47088  1.0000 -0.2469313578
C   C50       1.0  0.52090  0.73520  0.47088  1.0000 -0.2469313578
C   C51       1.0  0.26480  0.78570  0.47088  1.0000 -0.2469313578
C   C52       1.0  0.78570  0.52090  0.97088  1.0000 -0.2469313578
C   C53       1.0  0.47910  0.26480  0.97088  1.0000 -0.2469313578
C   C54       1.0  0.73520  0.21430  0.97088  1.0000 -0.2469313578
C   C55       1.0  0.25400  0.30950  0.32890  1.0000 -0.102042842
C   C56       1.0  0.69050  0.94450  0.32890  1.0000 -0.102042842
C   C57       1.0  0.05550  0.74600  0.32890  1.0000 -0.102042842
C   C58       1.0  0.74600  0.69050  0.82890  1.0000 -0.102042842
C   C59       1.0  0.30950  0.05550  0.82890  1.0000 -0.102042842
C   C60       1.0  0.94450  0.25400  0.82890  1.0000 -0.102042842
C   C61       1.0  0.46980  0.51500  0.35301  1.0000 0.2583725068
C   C62       1.0  0.48500  0.95480  0.35301  1.0000 0.2583725068
C   C63       1.0  0.04520  0.53020  0.35301  1.0000 0.2583725068
C   C64       1.0  0.53020  0.48500  0.85301  1.0000 0.2583725068
C   C65       1.0  0.51500  0.04520  0.85301  1.0000 0.2583725068
C   C66       1.0  0.95480  0.46980  0.85301  1.0000 0.2583725068
C   C67       1.0  0.33400  0.32410  0.45410  1.0000 0.6121249088
C   C68       1.0  0.67590  0.00990  0.45410  1.0000 0.6121249088
C   C69       1.0  0.99010  0.66600  0.45410  1.0000 0.6121249088
C   C70       1.0  0.66600  0.67590  0.95410  1.0000 0.6121249088
C   C71       1.0  0.32410  0.99010  0.95410  1.0000 0.6121249088
C   C72       1.0  0.00990  0.33400  0.95410  1.0000 0.6121249088
C   C73       1.0  0.17550  0.49710  0.59281  1.0000 0.0625905979
C   C74       1.0  0.50290  0.67840  0.59281  1.0000 0.0625905979
C   C75       1.0  0.32160  0.82450  0.59281  1.0000 0.0625905979
C   C76       1.0  0.82450  0.50290  0.09281  1.0000 0.0625905979
C   C77       1.0  0.49710  0.32160  0.09281  1.0000 0.0625905979
C   C78       1.0  0.67840  0.17550  0.09281  1.0000 0.0625905979
C   C79       1.0  0.38640  0.54720  0.31142  1.0000 -0.2469313578
C   C80       1.0  0.45280  0.83920  0.31142  1.0000 -0.2469313578
C   C81       1.0  0.16080  0.61360  0.31142  1.0000 -0.2469313578
C   C82       1.0  0.61360  0.45280  0.81142  1.0000 -0.2469313578
C   C83       1.0  0.54720  0.16080  0.81142  1.0000 -0.2469313578
C   C84       1.0  0.83920  0.38640  0.81142  1.0000 -0.2469313578
C   C85       1.0  0.09740  0.52510  0.54758  1.0000 -0.148165484
C   C86       1.0  0.47490  0.57230  0.54758  1.0000 -0.148165484
C   C87       1.0  0.42770  0.90260  0.54758  1.0000 -0.148165484
C   C88       1.0  0.90260  0.47490  0.04758  1.0000 -0.148165484
C   C89       1.0  0.52510  0.42770  0.04758  1.0000 -0.148165484
C   C90       1.0  0.57230  0.09740  0.04758  1.0000 -0.148165484
C   C91       1.0  0.20790  0.48580  0.55442  1.0000 0.0510667691
C   C92       1.0  0.51420  0.72210  0.55442  1.0000 0.0510667691
C   C93       1.0  0.27790  0.79210  0.55442  1.0000 0.0510667691
C   C94       1.0  0.79210  0.51420  0.05442  1.0000 0.0510667691
C   C95       1.0  0.48580  0.27790  0.05442  1.0000 0.0510667691
C   C96       1.0  0.72210  0.20790  0.05442  1.0000 0.0510667691
C   C97       1.0  0.27060  0.39930  0.46164  1.0000 0.2583725068
C   C98       1.0  0.60070  0.87130  0.46164  1.0000 0.2583725068
C   C99       1.0  0.12870  0.72940  0.46164  1.0000 0.2583725068
C   C100      1.0  0.72940  0.60070  0.96164  1.0000 0.2583725068
C   C101      1.0  0.39930  0.12870  0.96164  1.0000 0.2583725068
C   C102      1.0  0.87130  0.27060  0.96164  1.0000 0.2583725068
C   C103      1.0  0.27150  0.87620  0.78120  1.0000 0.1485166004
C   C104      1.0  0.12380  0.39530  0.78120  1.0000 0.1485166004
C   C105      1.0  0.60470  0.72850  0.78120  1.0000 0.1485166004
C   C106      1.0  0.72850  0.12380  0.28120  1.0000 0.1485166004
C   C107      1.0  0.87620  0.60470  0.28120  1.0000 0.1485166004
C   C108      1.0  0.39530  0.27150  0.28120  1.0000 0.1485166004
C   C109      1.0  0.03640  0.54300  0.54591  1.0000 0.5964904913
C   C110      1.0  0.45700  0.49340  0.54591  1.0000 0.5964904913
C   C111      1.0  0.50660  0.96360  0.54591  1.0000 0.5964904913
C   C112      1.0  0.96360  0.45700  0.04591  1.0000 0.5964904913
C   C113      1.0  0.54300  0.50660  0.04591  1.0000 0.5964904913
C   C114      1.0  0.49340  0.03640  0.04591  1.0000 0.5964904913
C   C115      1.0  0.13020  0.51490  0.50939  1.0000 0.2481973756
C   C116      1.0  0.48510  0.61530  0.50939  1.0000 0.2481973756
C   C117      1.0  0.38470  0.86980  0.50939  1.0000 0.2481973756
C   C118      1.0  0.86980  0.48510  0.00939  1.0000 0.2481973756
C   C119      1.0  0.51490  0.38470  0.00939  1.0000 0.2481973756
C   C120      1.0  0.61530  0.13020  0.00939  1.0000 0.2481973756
C   C121      1.0  0.44650  0.09880  0.51180  1.0000 -0.0800098565
C   C122      1.0  0.90120  0.34770  0.51180  1.0000 -0.0800098565
C   C123      1.0  0.65230  0.55350  0.51180  1.0000 -0.0800098565
C   C124      1.0  0.55350  0.90120  0.01180  1.0000 -0.0800098565
C   C125      1.0  0.09880  0.65230  0.01180  1.0000 -0.0800098565
C   C126      1.0  0.34770  0.44650  0.01180  1.0000 -0.0800098565
C   C127      1.0  0.38840  0.15810  0.52699  1.0000 0.1102395165
C   C128      1.0  0.84190  0.23030  0.52699  1.0000 0.1102395165
C   C129      1.0  0.76970  0.61160  0.52699  1.0000 0.1102395165
C   C130      1.0  0.61160  0.84190  0.02699  1.0000 0.1102395165
C   C131      1.0  0.15810  0.76970  0.02699  1.0000 0.1102395165
C   C132      1.0  0.23030  0.38840  0.02699  1.0000 0.1102395165
C   C133      1.0  0.49550  0.54430  0.27578  1.0000 0.0402433562
C   C134      1.0  0.45570  0.95120  0.27578  1.0000 0.0402433562
C   C135      1.0  0.04880  0.50450  0.27578  1.0000 0.0402433562
C   C136      1.0  0.50450  0.45570  0.77578  1.0000 0.0402433562
C   C137      1.0  0.54430  0.04880  0.77578  1.0000 0.0402433562
C   C138      1.0  0.95120  0.49550  0.77578  1.0000 0.0402433562
C   C139      1.0  0.26690  0.32960  0.45980  1.0000 -0.1612154903
C   C140      1.0  0.67040  0.93730  0.45980  1.0000 -0.1612154903
C   C141      1.0  0.06270  0.73310  0.45980  1.0000 -0.1612154903
C   C142      1.0  0.73310  0.67040  0.95980  1.0000 -0.1612154903
C   C143      1.0  0.32960  0.06270  0.95980  1.0000 -0.1612154903
C   C144      1.0  0.93730  0.26690  0.95980  1.0000 -0.1612154903
C   C145      1.0  0.29330  0.38480  0.32450  1.0000 -0.1310679209
C   C146      1.0  0.61520  0.90850  0.32450  1.0000 -0.1310679209
C   C147      1.0  0.09150  0.70670  0.32450  1.0000 -0.1310679209
C   C148      1.0  0.70670  0.61520  0.82450  1.0000 -0.1310679209
C   C149      1.0  0.38480  0.09150  0.82450  1.0000 -0.1310679209
C   C150      1.0  0.90850  0.29330  0.82450  1.0000 -0.1310679209
C   C151      1.0  0.11980  0.51580  0.58797  1.0000 -0.148165484
C   C152      1.0  0.48420  0.60400  0.58797  1.0000 -0.148165484
C   C153      1.0  0.39600  0.88020  0.58797  1.0000 -0.148165484
C   C154      1.0  0.88020  0.48420  0.08797  1.0000 -0.148165484
C   C155      1.0  0.51580  0.39600  0.08797  1.0000 -0.148165484
C   C156      1.0  0.60400  0.11980  0.08797  1.0000 -0.148165484
C   C157      1.0  0.48650  0.57240  0.23493  1.0000 -0.1310679209
C   C158      1.0  0.42760  0.91410  0.23493  1.0000 -0.1310679209
C   C159      1.0  0.08590  0.51350  0.23493  1.0000 -0.1310679209
C   C160      1.0  0.51350  0.42760  0.73493  1.0000 -0.1310679209
C   C161      1.0  0.57240  0.08590  0.73493  1.0000 -0.1310679209
C   C162      1.0  0.91410  0.48650  0.73493  1.0000 -0.1310679209
C   C163      1.0  0.20750  0.40440  0.46655  1.0000 -0.028760517
C   C164      1.0  0.59560  0.80310  0.46655  1.0000 -0.028760517
C   C165      1.0  0.19690  0.79250  0.46655  1.0000 -0.028760517
C   C166      1.0  0.79250  0.59560  0.96655  1.0000 -0.028760517
C   C167      1.0  0.40440  0.19690  0.96655  1.0000 -0.028760517
C   C168      1.0  0.80310  0.20750  0.96655  1.0000 -0.028760517
C   C169      1.0  0.55200  0.52420  0.27760  1.0000 0.0510667691
C   C170      1.0  0.47580  0.02780  0.27760  1.0000 0.0510667691
C   C171      1.0  0.97220  0.44800  0.27760  1.0000 0.0510667691
C   C172      1.0  0.44800  0.47580  0.77760  1.0000 0.0510667691
C   C173      1.0  0.52420  0.97220  0.77760  1.0000 0.0510667691
C   C174      1.0  0.02780  0.55200  0.77760  1.0000 0.0510667691
C   C175      1.0  0.37660  0.06610  0.58220  1.0000 0.1485166004
C   C176      1.0  0.93390  0.31050  0.58220  1.0000 0.1485166004
C   C177      1.0  0.68950  0.62340  0.58220  1.0000 0.1485166004
C   C178      1.0  0.62340  0.93390  0.08220  1.0000 0.1485166004
C   C179      1.0  0.06610  0.68950  0.08220  1.0000 0.1485166004
C   C180      1.0  0.31050  0.37660  0.08220  1.0000 0.1485166004
C   C181      1.0  0.24660  0.51020  0.16968  1.0000 0.6164198804
C   C182      1.0  0.48980  0.73640  0.16968  1.0000 0.6164198804
C   C183      1.0  0.26360  0.75340  0.16968  1.0000 0.6164198804
C   C184      1.0  0.75340  0.48980  0.66968  1.0000 0.6164198804
C   C185      1.0  0.51020  0.26360  0.66968  1.0000 0.6164198804
C   C186      1.0  0.73640  0.24660  0.66968  1.0000 0.6164198804
C   C187      1.0  0.22810  0.40490  0.21500  1.0000 -0.148165484
C   C188      1.0  0.59510  0.82320  0.21500  1.0000 -0.148165484
C   C189      1.0  0.17680  0.77190  0.21500  1.0000 -0.148165484
C   C190      1.0  0.77190  0.59510  0.71500  1.0000 -0.148165484
C   C191      1.0  0.40490  0.17680  0.71500  1.0000 -0.148165484
C   C192      1.0  0.82320  0.22810  0.71500  1.0000 -0.148165484
C   C193      1.0  0.33130  0.99070  0.66060  1.0000 0.0625905979
C   C194      1.0  0.00930  0.34060  0.66060  1.0000 0.0625905979
C   C195      1.0  0.65940  0.66870  0.66060  1.0000 0.0625905979
C   C196      1.0  0.66870  0.00930  0.16060  1.0000 0.0625905979
C   C197      1.0  0.99070  0.65940  0.16060  1.0000 0.0625905979
C   C198      1.0  0.34060  0.33130  0.16060  1.0000 0.0625905979
C   C199      1.0  0.00440  0.27390  0.46500  1.0000 -0.0902460544
C   C200      1.0  0.72610  0.73050  0.46500  1.0000 -0.0902460544
C   C201      1.0  0.26950  0.99560  0.46500  1.0000 -0.0902460544
C   C202      1.0  0.99560  0.72610  0.96500  1.0000 -0.0902460544
C   C203      1.0  0.27390  0.26950  0.96500  1.0000 -0.0902460544
C   C204      1.0  0.73050  0.00440  0.96500  1.0000 -0.0902460544
C   C205      1.0  0.42750  0.06050  0.60800  1.0000 -0.1410294758
C   C206      1.0  0.93950  0.36700  0.60800  1.0000 -0.1410294758
C   C207      1.0  0.63300  0.57250  0.60800  1.0000 -0.1410294758
C   C208      1.0  0.57250  0.93950  0.10800  1.0000 -0.1410294758
C   C209      1.0  0.06050  0.63300  0.10800  1.0000 -0.1410294758
C   C210      1.0  0.36700  0.42750  0.10800  1.0000 -0.1410294758
C   C211      1.0  0.13710  0.33720  0.46610  1.0000 0.0510667691
C   C212      1.0  0.66280  0.79990  0.46610  1.0000 0.0510667691
C   C213      1.0  0.20010  0.86290  0.46610  1.0000 0.0510667691
C   C214      1.0  0.86290  0.66280  0.96610  1.0000 0.0510667691
C   C215      1.0  0.33720  0.20010  0.96610  1.0000 0.0510667691
C   C216      1.0  0.79990  0.13710  0.96610  1.0000 0.0510667691
C   C217      1.0  0.20870  0.26330  0.29470  1.0000 -0.102042842
C   C218      1.0  0.73670  0.94540  0.29470  1.0000 -0.102042842
C   C219      1.0  0.05460  0.79130  0.29470  1.0000 -0.102042842
C   C220      1.0  0.79130  0.73670  0.79470  1.0000 -0.102042842
C   C221      1.0  0.26330  0.05460  0.79470  1.0000 -0.102042842
C   C222      1.0  0.94540  0.20870  0.79470  1.0000 -0.102042842
C   C223      1.0  0.45950  0.14730  0.47967  1.0000 -0.0476207248
C   C224      1.0  0.85270  0.31220  0.47967  1.0000 -0.0476207248
C   C225      1.0  0.68780  0.54050  0.47967  1.0000 -0.0476207248
C   C226      1.0  0.54050  0.85270  0.97967  1.0000 -0.0476207248
C   C227      1.0  0.14730  0.68780  0.97967  1.0000 -0.0476207248
C   C228      1.0  0.31220  0.45950  0.97967  1.0000 -0.0476207248
C   C229      1.0  0.56670  0.50180  0.31770  1.0000 -0.1677056836
C   C230      1.0  0.49820  0.06490  0.31770  1.0000 -0.1677056836
C   C231      1.0  0.93510  0.43330  0.31770  1.0000 -0.1677056836
C   C232      1.0  0.43330  0.49820  0.81770  1.0000 -0.1677056836
C   C233      1.0  0.50180  0.93510  0.81770  1.0000 -0.1677056836
C   C234      1.0  0.06490  0.56670  0.81770  1.0000 -0.1677056836
C   C235      1.0  0.30870  0.95030  0.70260  1.0000 0.0699155543
C   C236      1.0  0.04970  0.35840  0.70260  1.0000 0.0699155543
C   C237      1.0  0.64160  0.69130  0.70260  1.0000 0.0699155543
C   C238      1.0  0.69130  0.04970  0.20260  1.0000 0.0699155543
C   C239      1.0  0.95030  0.64160  0.20260  1.0000 0.0699155543
C   C240      1.0  0.35840  0.30870  0.20260  1.0000 0.0699155543
C   C241      1.0  0.23850  0.37220  0.25260  1.0000 0.0510667691
C   C242      1.0  0.62780  0.86630  0.25260  1.0000 0.0510667691
C   C243      1.0  0.13370  0.76150  0.25260  1.0000 0.0510667691
C   C244      1.0  0.76150  0.62780  0.75260  1.0000 0.0510667691
C   C245      1.0  0.37220  0.13370  0.75260  1.0000 0.0510667691
C   C246      1.0  0.86630  0.23850  0.75260  1.0000 0.0510667691
C   C247      1.0  0.45210  0.53530  0.31338  1.0000 -0.028760517
C   C248      1.0  0.46470  0.91680  0.31338  1.0000 -0.028760517
C   C249      1.0  0.08320  0.54790  0.31338  1.0000 -0.028760517
C   C250      1.0  0.54790  0.46470  0.81338  1.0000 -0.028760517
C   C251      1.0  0.53530  0.08320  0.81338  1.0000 -0.028760517
C   C252      1.0  0.91680  0.45210  0.81338  1.0000 -0.028760517
C   C253      1.0  0.26770  0.47230  0.56050  1.0000 -0.1189175111
C   C254      1.0  0.52770  0.79540  0.56050  1.0000 -0.1189175111
C   C255      1.0  0.20460  0.73230  0.56050  1.0000 -0.1189175111
C   C256      1.0  0.73230  0.52770  0.06050  1.0000 -0.1189175111
C   C257      1.0  0.47230  0.20460  0.06050  1.0000 -0.1189175111
C   C258      1.0  0.79540  0.26770  0.06050  1.0000 -0.1189175111
C   C259      1.0  0.06930  0.33760  0.46650  1.0000 -0.1310679209
C   C260      1.0  0.66240  0.73170  0.46650  1.0000 -0.1310679209
C   C261      1.0  0.26830  0.93070  0.46650  1.0000 -0.1310679209
C   C262      1.0  0.93070  0.66240  0.96650  1.0000 -0.1310679209
C   C263      1.0  0.33760  0.26830  0.96650  1.0000 -0.1310679209
C   C264      1.0  0.73170  0.06930  0.96650  1.0000 -0.1310679209
C   C265      1.0  0.28990  0.46610  0.60150  1.0000 -0.0902460544
C   C266      1.0  0.53390  0.82380  0.60150  1.0000 -0.0902460544
C   C267      1.0  0.17620  0.71010  0.60150  1.0000 -0.0902460544
C   C268      1.0  0.71010  0.53390  0.10150  1.0000 -0.0902460544
C   C269      1.0  0.46610  0.17620  0.10150  1.0000 -0.0902460544
C   C270      1.0  0.82380  0.28990  0.10150  1.0000 -0.0902460544
C   C271      1.0  0.34270  0.93100  0.77420  1.0000 -0.148165484
C   C272      1.0  0.06900  0.41170  0.77420  1.0000 -0.148165484
C   C273      1.0  0.58830  0.65730  0.77420  1.0000 -0.148165484
C   C274      1.0  0.65730  0.06900  0.27420  1.0000 -0.148165484
C   C275      1.0  0.93100  0.58830  0.27420  1.0000 -0.148165484
C   C276      1.0  0.41170  0.34270  0.27420  1.0000 -0.148165484
C   C277      1.0  0.52840  0.57780  0.19990  1.0000 -0.0719965534
C   C278      1.0  0.42220  0.95060  0.19990  1.0000 -0.0719965534
C   C279      1.0  0.04940  0.47160  0.19990  1.0000 -0.0719965534
C   C280      1.0  0.47160  0.42220  0.69990  1.0000 -0.0719965534
C   C281      1.0  0.57780  0.04940  0.69990  1.0000 -0.0719965534
C   C282      1.0  0.95060  0.52840  0.69990  1.0000 -0.0719965534
C   C283      1.0  0.21780  0.85930  0.75060  1.0000 -0.1677056836
C   C284      1.0  0.14070  0.35850  0.75060  1.0000 -0.1677056836
C   C285      1.0  0.64150  0.78220  0.75060  1.0000 -0.1677056836
C   C286      1.0  0.78220  0.14070  0.25060  1.0000 -0.1677056836
C   C287      1.0  0.85930  0.64150  0.25060  1.0000 -0.1677056836
C   C288      1.0  0.35850  0.21780  0.25060  1.0000 -0.1677056836
C   C289      1.0  0.19980  0.26570  0.46260  1.0000 -0.1410294758
C   C290      1.0  0.73430  0.93410  0.46260  1.0000 -0.1410294758
C   C291      1.0  0.06590  0.80020  0.46260  1.0000 -0.1410294758
C   C292      1.0  0.80020  0.73430  0.96260  1.0000 -0.1410294758
C   C293      1.0  0.26570  0.06590  0.96260  1.0000 -0.1410294758
C   C294      1.0  0.93410  0.19980  0.96260  1.0000 -0.1410294758
C   C295      1.0  0.59370  0.53040  0.23960  1.0000 -0.1677056836
C   C296      1.0  0.46960  0.06330  0.23960  1.0000 -0.1677056836
C   C297      1.0  0.93670  0.40630  0.23960  1.0000 -0.1677056836
C   C298      1.0  0.40630  0.46960  0.73960  1.0000 -0.1677056836
C   C299      1.0  0.53040  0.93670  0.73960  1.0000 -0.1677056836
C   C300      1.0  0.06330  0.59370  0.73960  1.0000 -0.1677056836
C   C301      1.0  0.20080  0.49020  0.63500  1.0000 -0.148165484
C   C302      1.0  0.50980  0.71060  0.63500  1.0000 -0.148165484
C   C303      1.0  0.28940  0.79920  0.63500  1.0000 -0.148165484
C   C304      1.0  0.79920  0.50980  0.13500  1.0000 -0.148165484
C   C305      1.0  0.49020  0.28940  0.13500  1.0000 -0.148165484
C   C306      1.0  0.71060  0.20080  0.13500  1.0000 -0.148165484
C   C307      1.0  0.58050  0.55480  0.20140  1.0000 -0.0902460544
C   C308      1.0  0.44520  0.02570  0.20140  1.0000 -0.0902460544
C   C309      1.0  0.97430  0.41950  0.20140  1.0000 -0.0902460544
C   C310      1.0  0.41950  0.44520  0.70140  1.0000 -0.0902460544
C   C311      1.0  0.55480  0.97430  0.70140  1.0000 -0.0902460544
C   C312      1.0  0.02570  0.58050  0.70140  1.0000 -0.0902460544
C   C313      1.0  0.13400  0.26830  0.46480  1.0000 0.0510667691
C   C314      1.0  0.73170  0.86570  0.46480  1.0000 0.0510667691
C   C315      1.0  0.13430  0.86600  0.46480  1.0000 0.0510667691
C   C316      1.0  0.86600  0.73170  0.96480  1.0000 0.0510667691
C   C317      1.0  0.26830  0.13430  0.96480  1.0000 0.0510667691
C   C318      1.0  0.86570  0.13400  0.96480  1.0000 0.0510667691
C   C319      1.0  0.25640  0.47550  0.63910  1.0000 -0.102042842
C   C320      1.0  0.52450  0.78090  0.63910  1.0000 -0.102042842
C   C321      1.0  0.21910  0.74360  0.63910  1.0000 -0.102042842
C   C322      1.0  0.74360  0.52450  0.13910  1.0000 -0.102042842
C   C323      1.0  0.47550  0.21910  0.13910  1.0000 -0.102042842
C   C324      1.0  0.78090  0.25640  0.13910  1.0000 -0.102042842
C   C325      1.0  0.36190  0.96780  0.73510  1.0000 -0.1096449034
C   C326      1.0  0.03220  0.39410  0.73510  1.0000 -0.1096449034
C   C327      1.0  0.60590  0.63810  0.73510  1.0000 -0.1096449034
C   C328      1.0  0.63810  0.03220  0.23510  1.0000 -0.1096449034
C   C329      1.0  0.96780  0.60590  0.23510  1.0000 -0.1096449034
C   C330      1.0  0.39410  0.36190  0.23510  1.0000 -0.1096449034
C   C331      1.0  0.20190  0.29420  0.25760  1.0000 -0.1410294758
C   C332      1.0  0.70580  0.90770  0.25760  1.0000 -0.1410294758
C   C333      1.0  0.09230  0.79810  0.25760  1.0000 -0.1410294758
C   C334      1.0  0.79810  0.70580  0.75760  1.0000 -0.1410294758
C   C335      1.0  0.29420  0.09230  0.75760  1.0000 -0.1410294758
C   C336      1.0  0.90770  0.20190  0.75760  1.0000 -0.1410294758
C   C337      1.0  0.23720  0.89760  0.71120  1.0000 -0.1310679209
C   C338      1.0  0.10240  0.33960  0.71120  1.0000 -0.1310679209
C   C339      1.0  0.66040  0.76280  0.71120  1.0000 -0.1310679209
C   C340      1.0  0.76280  0.10240  0.21120  1.0000 -0.1310679209
C   C341      1.0  0.89760  0.66040  0.21120  1.0000 -0.1310679209
C   C342      1.0  0.33960  0.23720  0.21120  1.0000 -0.1310679209
C   C343      1.0  0.40400  0.02260  0.64680  1.0000 -0.1189175111
C   C344      1.0  0.97740  0.38140  0.64680  1.0000 -0.1189175111
C   C345      1.0  0.61860  0.59600  0.64680  1.0000 -0.1189175111
C   C346      1.0  0.59600  0.97740  0.14680  1.0000 -0.1189175111
C   C347      1.0  0.02260  0.61860  0.14680  1.0000 -0.1189175111
C   C348      1.0  0.38140  0.40400  0.14680  1.0000 -0.1189175111
C   C349      1.0  0.99990  0.20450  0.46490  1.0000 -0.1096449034
C   C350      1.0  0.79550  0.79540  0.46490  1.0000 -0.1096449034
C   C351      1.0  0.20460  0.00010  0.46490  1.0000 -0.1096449034
C   C352      1.0  0.00010  0.79550  0.96490  1.0000 -0.1096449034
C   C353      1.0  0.20450  0.20460  0.96490  1.0000 -0.1096449034
C   C354      1.0  0.79540  0.99990  0.96490  1.0000 -0.1096449034
C   C355      1.0  0.06470  0.20270  0.46410  1.0000 -0.1410294758
C   C356      1.0  0.79730  0.86200  0.46410  1.0000 -0.1410294758
C   C357      1.0  0.13800  0.93530  0.46410  1.0000 -0.1410294758
C   C358      1.0  0.93530  0.79730  0.96410  1.0000 -0.1410294758
C   C359      1.0  0.20270  0.13800  0.96410  1.0000 -0.1410294758
C   C360      1.0  0.86200  0.06470  0.96410  1.0000 -0.1410294758
C   C361      1.0  0.28340  0.99850  0.63430  1.0000 -0.1310679209
C   C362      1.0  0.00150  0.28490  0.63430  1.0000 -0.1310679209
C   C363      1.0  0.71510  0.71660  0.63430  1.0000 -0.1310679209
C   C364      1.0  0.71660  0.00150  0.13430  1.0000 -0.1310679209
C   C365      1.0  0.99850  0.71510  0.13430  1.0000 -0.1310679209
C   C366      1.0  0.28490  0.28340  0.13430  1.0000 -0.1310679209
C   C367      1.0  0.30630  0.03700  0.59440  1.0000 -0.1612154903
C   C368      1.0  0.96300  0.26930  0.59440  1.0000 -0.1612154903
C   C369      1.0  0.73070  0.69370  0.59440  1.0000 -0.1612154903
C   C370      1.0  0.69370  0.96300  0.09440  1.0000 -0.1612154903
C   C371      1.0  0.03700  0.73070  0.09440  1.0000 -0.1612154903
C   C372      1.0  0.26930  0.30630  0.09440  1.0000 -0.1612154903
C   C373      1.0  0.21290  0.75330  0.87190  1.0000 -0.0182541928
C   C374      1.0  0.24670  0.45960  0.87190  1.0000 -0.0182541928
C   C375      1.0  0.54040  0.78710  0.87190  1.0000 -0.0182541928
C   C376      1.0  0.78710  0.24670  0.37190  1.0000 -0.0182541928
C   C377      1.0  0.75330  0.54040  0.37190  1.0000 -0.0182541928
C   C378      1.0  0.45960  0.21290  0.37190  1.0000 -0.0182541928
C   C379      1.0  0.21230  0.76500  0.82870  1.0000 -0.102042842
C   C380      1.0  0.23500  0.44730  0.82870  1.0000 -0.102042842
C   C381      1.0  0.55270  0.78770  0.82870  1.0000 -0.102042842
C   C382      1.0  0.78770  0.23500  0.32870  1.0000 -0.102042842
C   C383      1.0  0.76500  0.55270  0.32870  1.0000 -0.102042842
C   C384      1.0  0.44730  0.21230  0.32870  1.0000 -0.102042842
N   N1        1.0  0.42210  0.18480  0.48920  1.0000 -0.2945705366
N   N2        1.0  0.81520  0.23730  0.48920  1.0000 -0.2945705366
N   N3        1.0  0.76270  0.57790  0.48920  1.0000 -0.2945705366
N   N4        1.0  0.57790  0.81520  0.98920  1.0000 -0.2950623941
N   N5        1.0  0.18480  0.76270  0.98920  1.0000 -0.2950623941
N   N6        1.0  0.23730  0.42210  0.98920  1.0000 -0.2950623941
N   N7        1.0  0.25360  0.81760  0.89246  1.0000 -0.2731239509
N   N8        1.0  0.18240  0.43600  0.89246  1.0000 -0.2731239509
N   N9        1.0  0.56400  0.74640  0.89246  1.0000 -0.2731239509
N   N10       1.0  0.74640  0.18240  0.39246  1.0000 -0.2731239509
N   N11       1.0  0.81760  0.56400  0.39246  1.0000 -0.2731239509
N   N12       1.0  0.43600  0.25360  0.39246  1.0000 -0.2731239509
N   N13       1.0  0.40160  0.10550  0.54163  1.0000 0.0128095641
N   N14       1.0  0.89450  0.29610  0.54163  1.0000 0.0128095641
N   N15       1.0  0.70390  0.59840  0.54163  1.0000 0.0128095641
N   N16       1.0  0.59840  0.89450  0.04163  1.0000 0.0128095641
N   N17       1.0  0.10550  0.70390  0.04163  1.0000 0.0128095641
N   N18       1.0  0.29610  0.40160  0.04163  1.0000 0.0128095641
N   N19       1.0  0.51390  0.35960  0.48286  1.0000 -0.7610606265
N   N20       1.0  0.64040  0.15430  0.48286  1.0000 -0.7610606265
N   N21       1.0  0.84570  0.48610  0.48286  1.0000 -0.7610606265
N   N22       1.0  0.48610  0.64040  0.98286  1.0000 -0.7610606265
N   N23       1.0  0.35960  0.84570  0.98286  1.0000 -0.7610606265
N   N24       1.0  0.15430  0.51390  0.98286  1.0000 -0.7610606265
N   N25       1.0  0.25390  0.83860  0.82244  1.0000 0.0128095641
N   N26       1.0  0.16140  0.41530  0.82244  1.0000 0.0128095641
N   N27       1.0  0.58470  0.74610  0.82244  1.0000 0.0128095641
N   N28       1.0  0.74610  0.16140  0.32244  1.0000 0.0128095641
N   N29       1.0  0.83860  0.58470  0.32244  1.0000 0.0128095641
N   N30       1.0  0.41530  0.25390  0.32244  1.0000 0.0128095641
O   O1        1.0  0.52752  0.49100  0.43300  1.0000 -0.6356803109
O   O2        1.0  0.50900  0.03652  0.43300  1.0000 -0.6356803109
O   O3        1.0  0.96348  0.47248  0.43300  1.0000 -0.6356803109
O   O4        1.0  0.47248  0.50900  0.93300  1.0000 -0.6356803109
O   O5        1.0  0.49100  0.96348  0.93300  1.0000 -0.6356803109
O   O6        1.0  0.03652  0.52752  0.93300  1.0000 -0.6356803109
O   O7        1.0  0.43156  0.50977  0.38886  1.0000 -0.6121675715
O   O8        1.0  0.49023  0.92179  0.38886  1.0000 -0.6121675715
O   O9        1.0  0.07821  0.56844  0.38886  1.0000 -0.6121675715
O   O10       1.0  0.56844  0.49023  0.88886  1.0000 -0.6121675715
O   O11       1.0  0.50977  0.07821  0.88886  1.0000 -0.6121675715
O   O12       1.0  0.92179  0.43156  0.88886  1.0000 -0.6121675715
O   O13       1.0  0.11011  0.52490  0.46948  1.0000 -0.6121675715
O   O14       1.0  0.47510  0.58521  0.46948  1.0000 -0.6121675715
O   O15       1.0  0.41479  0.88989  0.46948  1.0000 -0.6121675715
O   O16       1.0  0.88989  0.47510  0.96948  1.0000 -0.6121675715
O   O17       1.0  0.52490  0.41479  0.96948  1.0000 -0.6121675715
O   O18       1.0  0.58521  0.11011  0.96948  1.0000 -0.6121675715
O   O19       1.0  0.39188  0.37770  0.43769  1.0000 -0.621660189
O   O20       1.0  0.62230  0.01418  0.43769  1.0000 -0.621660189
O   O21       1.0  0.98582  0.60812  0.43769  1.0000 -0.621660189
O   O22       1.0  0.60812  0.62230  0.93769  1.0000 -0.621660189
O   O23       1.0  0.37770  0.98582  0.93769  1.0000 -0.621660189
O   O24       1.0  0.01418  0.39188  0.93769  1.0000 -0.621660189
O   O25       1.0  0.58650  0.44590  0.39626  1.0000 -0.5195771103
O   O26       1.0  0.55410  0.14060  0.39626  1.0000 -0.5195771103
O   O27       1.0  0.85940  0.41350  0.39626  1.0000 -0.5195771103
O   O28       1.0  0.41350  0.55410  0.89626  1.0000 -0.5195771103
O   O29       1.0  0.44590  0.85940  0.89626  1.0000 -0.5195771103
O   O30       1.0  0.14060  0.58650  0.89626  1.0000 -0.5195771103
O   O31       1.0  0.33675  0.46120  0.46067  1.0000 -0.621660189
O   O32       1.0  0.53880  0.87555  0.46067  1.0000 -0.621660189
O   O33       1.0  0.12445  0.66325  0.46067  1.0000 -0.621660189
O   O34       1.0  0.66325  0.53880  0.96067  1.0000 -0.621660189
O   O35       1.0  0.46120  0.12445  0.96067  1.0000 -0.621660189
O   O36       1.0  0.87555  0.33675  0.96067  1.0000 -0.621660189
O   O37       1.0  0.34683  0.59951  0.23826  1.0000 -0.590546172
O   O38       1.0  0.40049  0.74732  0.23826  1.0000 -0.590546172
O   O39       1.0  0.25268  0.65317  0.23826  1.0000 -0.590546172
O   O40       1.0  0.65317  0.40049  0.73826  1.0000 -0.590546172
O   O41       1.0  0.59951  0.25268  0.73826  1.0000 -0.590546172
O   O42       1.0  0.74732  0.34683  0.73826  1.0000 -0.590546172
O   O43       1.0  0.01120  0.54710  0.50844  1.0000 -0.6356803109
O   O44       1.0  0.45290  0.46410  0.50844  1.0000 -0.6356803109
O   O45       1.0  0.53590  0.98880  0.50844  1.0000 -0.6356803109
O   O46       1.0  0.98880  0.45290  0.00844  1.0000 -0.6356803109
O   O47       1.0  0.54710  0.53590  0.00844  1.0000 -0.6345162105
O   O48       1.0  0.46410  0.01120  0.00844  1.0000 -0.6356803109
O   O49       1.0  0.27480  0.58030  0.16551  1.0000 -0.6121675715
O   O50       1.0  0.41970  0.69450  0.16551  1.0000 -0.6121675715
O   O51       1.0  0.30550  0.72520  0.16551  1.0000 -0.6121675715
O   O52       1.0  0.72520  0.41970  0.66551  1.0000 -0.6121675715
O   O53       1.0  0.58030  0.30550  0.66551  1.0000 -0.6121675715
O   O54       1.0  0.69450  0.27480  0.66551  1.0000 -0.6121675715
O   O55       1.0  0.33220  0.26450  0.46392  1.0000 -0.5195771103
O   O56       1.0  0.73550  0.06770  0.46392  1.0000 -0.5195771103
O   O57       1.0  0.93230  0.66780  0.46392  1.0000 -0.5195771103
O   O58       1.0  0.66780  0.73550  0.96392  1.0000 -0.5195771103
O   O59       1.0  0.26450  0.93230  0.96392  1.0000 -0.5195771103
O   O60       1.0  0.06770  0.33220  0.96392  1.0000 -0.5195771103
O   O61       1.0  0.01050  0.55020  0.58069  1.0000 -0.5195771103
O   O62       1.0  0.44980  0.46030  0.58069  1.0000 -0.5195771103
O   O63       1.0  0.53970  0.98950  0.58069  1.0000 -0.5195771103
O   O64       1.0  0.98950  0.44980  0.08069  1.0000 -0.5195771103
O   O65       1.0  0.55020  0.53970  0.08069  1.0000 -0.5195771103
O   O66       1.0  0.46030  0.01050  0.08069  1.0000 -0.5195771103
O   O67       1.0  0.20950  0.46780  0.13963  1.0000 -0.5369173697
O   O68       1.0  0.53220  0.74170  0.13963  1.0000 -0.5369173697
O   O69       1.0  0.25830  0.79050  0.13963  1.0000 -0.5369173697
O   O70       1.0  0.79050  0.53220  0.63963  1.0000 -0.5369173697
O   O71       1.0  0.46780  0.25830  0.63963  1.0000 -0.5369173697
O   O72       1.0  0.74170  0.20950  0.63963  1.0000 -0.5369173697
