# DDEC6 charges by PACMAN v1.1 (https://github.com/mtap-research/PACMAN-charge/)
data_2023[Cd][nan]3[ASR]2
_chemical_formula_sum              "Cd28 H292 C484 N48 O156"
_cell_length_a       14.6954
_cell_length_b       42.2913
_cell_length_c       36.5516
_cell_angle_alpha    90
_cell_angle_beta     112.047
_cell_angle_gamma    90

_symmetry_space_group_name_H-M    "P 1"
_symmetry_Int_Tables_number       1

loop_
  _symmetry_equiv_pos_as_xyz
  'x, y, z'

loop_
  _atom_site_type_symbol
  _atom_site_label
  _atom_site_symmetry_multiplicity
  _atom_site_fract_x
  _atom_site_fract_y
  _atom_site_fract_z
  _atom_site_occupancy
  _atom_site_charge
Cd  Cd1       1.0  0.75698  0.40718  0.92763  1.0000 1.0568808508
Cd  Cd2       1.0  0.75698  0.09282  0.42763  1.0000 1.0568808508
Cd  Cd3       1.0  0.15084  0.40894  0.91353  1.0000 1.0170573784
Cd  Cd4       1.0  0.15084  0.09106  0.41353  1.0000 1.0170573784
Cd  Cd5       1.0  0.98916  0.36533  0.94814  1.0000 1.1018200708
Cd  Cd6       1.0  0.98916  0.13467  0.44814  1.0000 1.1018200708
Cd  Cd7       1.0  0.91031  0.92897  0.92161  1.0000 1.0409531189
Cd  Cd8       1.0  0.91031  0.57103  0.42161  1.0000 1.0409531189
Cd  Cd9       1.0  0.66450  0.89575  0.88076  1.0000 1.0720189852
Cd  Cd10      1.0  0.66450  0.60425  0.38076  1.0000 1.0720189852
Cd  Cd11      1.0  0.86966  0.84612  0.92095  1.0000 1.0720189852
Cd  Cd12      1.0  0.86966  0.65388  0.42095  1.0000 1.0720189852
Cd  Cd13      1.0  0.09457  0.62420  0.39749  1.0000 1.0327973259
Cd  Cd14      1.0  0.09457  0.87580  0.89749  1.0000 1.0327973259
Cd  Cd15      1.0  0.24302  0.90718  0.57237  1.0000 1.0568808508
Cd  Cd16      1.0  0.24302  0.59282  0.07237  1.0000 1.0568808508
Cd  Cd17      1.0  0.84916  0.90894  0.58647  1.0000 1.0170573784
Cd  Cd18      1.0  0.84916  0.59106  0.08647  1.0000 1.0170573784
Cd  Cd19      1.0  0.01084  0.86533  0.55186  1.0000 1.1018200708
Cd  Cd20      1.0  0.01084  0.63467  0.05186  1.0000 1.1018200708
Cd  Cd21      1.0  0.08969  0.42897  0.57839  1.0000 1.0409531189
Cd  Cd22      1.0  0.08969  0.07103  0.07839  1.0000 1.0409531189
Cd  Cd23      1.0  0.33550  0.39575  0.61924  1.0000 1.0720189852
Cd  Cd24      1.0  0.33550  0.10425  0.11924  1.0000 1.0720189852
Cd  Cd25      1.0  0.13034  0.34612  0.57905  1.0000 1.0720189852
Cd  Cd26      1.0  0.13034  0.15388  0.07905  1.0000 1.0720189852
Cd  Cd27      1.0  0.90543  0.12420  0.10251  1.0000 1.0327973259
Cd  Cd28      1.0  0.90543  0.37580  0.60251  1.0000 1.0327973259
H   H1        1.0  0.04065  0.43688  0.28827  1.0000 0.2799858886
H   H2        1.0  0.04065  0.06312  0.78827  1.0000 0.2799858886
H   H3        1.0  0.05136  0.27665  0.29764  1.0000 0.2799858886
H   H4        1.0  0.05136  0.22335  0.79764  1.0000 0.2799858886
H   H5        1.0  0.96471  0.39439  0.18937  1.0000 0.2799858886
H   H6        1.0  0.96471  0.10561  0.68937  1.0000 0.2799858886
H   H7        1.0  0.60525  0.20709  0.83119  1.0000 0.2799858886
H   H8        1.0  0.60525  0.29291  0.33119  1.0000 0.2799858886
H   H9        1.0  0.41647  0.12588  0.66885  1.0000 0.2799858886
H   H10       1.0  0.41647  0.37412  0.16885  1.0000 0.2799858886
H   H11       1.0  0.52325  0.07829  0.76370  1.0000 0.2799858886
H   H12       1.0  0.52325  0.42171  0.26370  1.0000 0.2799858886
H   H13       1.0  0.36743  0.72150  0.77080  1.0000 0.2799858886
H   H14       1.0  0.36743  0.77850  0.27080  1.0000 0.2799858886
H   H15       1.0  0.15587  0.61664  0.65030  1.0000 0.2799858886
H   H16       1.0  0.15587  0.88336  0.15030  1.0000 0.2799858886
H   H17       1.0  0.29435  0.58816  0.82707  1.0000 0.2799858886
H   H18       1.0  0.29435  0.91184  0.32707  1.0000 0.2799858886
H   H19       1.0  0.76105  0.84952  0.13377  1.0000 0.2799858886
H   H20       1.0  0.76105  0.65048  0.63377  1.0000 0.2799858886
H   H21       1.0  0.81260  0.80513  0.30078  1.0000 0.2799858886
H   H22       1.0  0.81260  0.69487  0.80078  1.0000 0.2799858886
H   H23       1.0  0.72294  0.94584  0.25717  1.0000 0.2745090318
H   H24       1.0  0.72294  0.55416  0.75717  1.0000 0.2745090318
H   H25       1.0  0.18280  0.52834  0.35390  1.0000 0.119894268
H   H26       1.0  0.18280  0.97166  0.85390  1.0000 0.119894268
H   H27       1.0  0.17094  0.47597  0.33210  1.0000 0.1293954363
H   H28       1.0  0.17094  0.02403  0.83210  1.0000 0.1293954363
H   H29       1.0  0.89092  0.47334  0.32269  1.0000 0.1293954363
H   H30       1.0  0.89092  0.02666  0.82269  1.0000 0.1293954363
H   H31       1.0  0.90617  0.52487  0.34745  1.0000 0.119894268
H   H32       1.0  0.90617  0.97513  0.84745  1.0000 0.119894268
H   H33       1.0  0.96524  0.40188  0.24393  1.0000 0.1093958227
H   H34       1.0  0.96524  0.09812  0.74393  1.0000 0.1093958227
H   H35       1.0  0.95609  0.30699  0.24698  1.0000 0.119894268
H   H36       1.0  0.95609  0.19301  0.74698  1.0000 0.119894268
H   H37       1.0  0.99300  0.35719  0.34440  1.0000 0.119894268
H   H38       1.0  0.99300  0.14281  0.84440  1.0000 0.119894268
H   H39       1.0  0.15055  0.23305  0.31355  1.0000 0.1379549999
H   H40       1.0  0.15055  0.26695  0.81355  1.0000 0.1379549999
H   H41       1.0  0.18827  0.18373  0.34262  1.0000 0.119894268
H   H42       1.0  0.18827  0.31627  0.84262  1.0000 0.119894268
H   H43       1.0  0.97626  0.19423  0.38589  1.0000 0.119894268
H   H44       1.0  0.97626  0.30577  0.88589  1.0000 0.119894268
H   H45       1.0  0.94175  0.24418  0.35813  1.0000 0.1293954363
H   H46       1.0  0.94175  0.25582  0.85813  1.0000 0.1293954363
H   H47       1.0  0.85067  0.41653  0.12344  1.0000 0.119894268
H   H48       1.0  0.85067  0.08347  0.62344  1.0000 0.119894268
H   H49       1.0  0.82895  0.42110  0.05778  1.0000 0.1293954363
H   H50       1.0  0.82895  0.07890  0.55778  1.0000 0.1293954363
H   H51       1.0  0.99769  0.34464  0.06856  1.0000 0.119894268
H   H52       1.0  0.99769  0.15536  0.56856  1.0000 0.119894268
H   H53       1.0  0.01499  0.33893  0.13369  1.0000 0.1379549999
H   H54       1.0  0.01499  0.16107  0.63369  1.0000 0.1379549999
H   H55       1.0  0.88657  0.44839  0.89405  1.0000 0.1037180839
H   H56       1.0  0.88657  0.05161  0.39405  1.0000 0.1093958227
H   H57       1.0  0.59053  0.32665  0.85808  1.0000 0.119894268
H   H58       1.0  0.59053  0.17335  0.35808  1.0000 0.1293954363
H   H59       1.0  0.50373  0.28265  0.82606  1.0000 0.1379549999
H   H60       1.0  0.50373  0.21735  0.32606  1.0000 0.1379549999
H   H61       1.0  0.75025  0.23075  0.86879  1.0000 0.1379549999
H   H62       1.0  0.75025  0.26925  0.36879  1.0000 0.1379549999
H   H63       1.0  0.83614  0.27493  0.90073  1.0000 0.119894268
H   H64       1.0  0.83614  0.22507  0.40073  1.0000 0.119894268
H   H65       1.0  0.38045  0.20592  0.72322  1.0000 0.119894268
H   H66       1.0  0.38045  0.29408  0.22322  1.0000 0.119894268
H   H67       1.0  0.42733  0.11169  0.72684  1.0000 0.1093958227
H   H68       1.0  0.42733  0.38831  0.22684  1.0000 0.1093958227
H   H69       1.0  0.52572  0.16321  0.82671  1.0000 0.119894268
H   H70       1.0  0.52572  0.33679  0.32671  1.0000 0.119894268
H   H71       1.0  0.18254  0.12730  0.60872  1.0000 0.1293954363
H   H72       1.0  0.18254  0.37270  0.10872  1.0000 0.1293954363
H   H73       1.0  0.12158  0.11394  0.54240  1.0000 0.119894268
H   H74       1.0  0.12158  0.38606  0.04240  1.0000 0.119894268
H   H75       1.0  0.39304  0.11705  0.54142  1.0000 0.119894268
H   H76       1.0  0.39304  0.38295  0.04142  1.0000 0.119894268
H   H77       1.0  0.45321  0.13099  0.60736  1.0000 0.1293954363
H   H78       1.0  0.45321  0.36901  0.10736  1.0000 0.1293954363
H   H79       1.0  0.49208  0.02036  0.77826  1.0000 0.1293954363
H   H80       1.0  0.49208  0.47964  0.27826  1.0000 0.1293954363
H   H81       1.0  0.56421  0.97648  0.81586  1.0000 0.119894268
H   H82       1.0  0.56421  0.52352  0.31586  1.0000 0.119894268
H   H83       1.0  0.79123  0.02886  0.87879  1.0000 0.1293954363
H   H84       1.0  0.79123  0.47114  0.37879  1.0000 0.1293954363
H   H85       1.0  0.71313  0.07367  0.84651  1.0000 0.1293954363
H   H86       1.0  0.71313  0.42633  0.34651  1.0000 0.1293954363
H   H87       1.0  0.48478  0.81725  0.82018  1.0000 0.119894268
H   H88       1.0  0.48478  0.68275  0.32018  1.0000 0.119894268
H   H89       1.0  0.38222  0.77639  0.78825  1.0000 0.1379549999
H   H90       1.0  0.38222  0.72361  0.28825  1.0000 0.1379549999
H   H91       1.0  0.58605  0.71416  0.85042  1.0000 0.1293954363
H   H92       1.0  0.58605  0.78584  0.35042  1.0000 0.1293954363
H   H93       1.0  0.68951  0.75557  0.88125  1.0000 0.1293954363
H   H94       1.0  0.68951  0.74443  0.38125  1.0000 0.1293954363
H   H95       1.0  0.32987  0.68808  0.72591  1.0000 0.119894268
H   H96       1.0  0.32987  0.81192  0.22591  1.0000 0.119894268
H   H97       1.0  0.23034  0.59882  0.70434  1.0000 0.1093958227
H   H98       1.0  0.23034  0.90118  0.20434  1.0000 0.1093958227
H   H99       1.0  0.35545  0.62944  0.81587  1.0000 0.119894268
H   H100      1.0  0.35545  0.87056  0.31587  1.0000 0.119894268
H   H101      1.0  0.01510  0.62345  0.58433  1.0000 0.1293954363
H   H102      1.0  0.01510  0.87655  0.08433  1.0000 0.1293954363
H   H103      1.0  0.97513  0.61862  0.51687  1.0000 0.1093958227
H   H104      1.0  0.97513  0.88138  0.01687  1.0000 0.1093958227
H   H105      1.0  0.25955  0.62581  0.53378  1.0000 0.119894268
H   H106      1.0  0.25955  0.87419  0.03378  1.0000 0.119894268
H   H107      1.0  0.29950  0.63114  0.60106  1.0000 0.1379549999
H   H108      1.0  0.29950  0.86886  0.10106  1.0000 0.1379549999
H   H109      1.0  0.18640  0.51880  0.77786  1.0000 0.1379549999
H   H110      1.0  0.18640  0.98120  0.27786  1.0000 0.1379549999
H   H111      1.0  0.16549  0.47364  0.80889  1.0000 0.1293954363
H   H112      1.0  0.16549  0.02636  0.30889  1.0000 0.1293954363
H   H113      1.0  0.28934  0.51481  0.91435  1.0000 0.119894268
H   H114      1.0  0.28934  0.98519  0.41435  1.0000 0.119894268
H   H115      1.0  0.31910  0.55955  0.88390  1.0000 0.1293954363
H   H116      1.0  0.31910  0.94045  0.38390  1.0000 0.1293954363
H   H117      1.0  0.66434  0.91380  0.00833  1.0000 0.1293954363
H   H118      1.0  0.66434  0.58620  0.50833  1.0000 0.1293954363
H   H119      1.0  0.67137  0.91133  0.07361  1.0000 0.1379549999
H   H120      1.0  0.67137  0.58867  0.57361  1.0000 0.1379549999
H   H121      1.0  0.83104  0.83372  0.08987  1.0000 0.1379549999
H   H122      1.0  0.83104  0.66628  0.58987  1.0000 0.1379549999
H   H123      1.0  0.83327  0.83851  0.02770  1.0000 0.1293954363
H   H124      1.0  0.83327  0.66149  0.52770  1.0000 0.1293954363
H   H125      1.0  0.78510  0.83160  0.18501  1.0000 0.119894268
H   H126      1.0  0.78510  0.66840  0.68501  1.0000 0.119894268
H   H127      1.0  0.82480  0.85344  0.29683  1.0000 0.119894268
H   H128      1.0  0.82480  0.64656  0.79683  1.0000 0.119894268
H   H129      1.0  0.76068  0.92149  0.21448  1.0000 0.119894268
H   H130      1.0  0.76068  0.57851  0.71448  1.0000 0.119894268
H   H131      1.0  0.92307  0.74671  0.26401  1.0000 0.1293954363
H   H132      1.0  0.92307  0.75329  0.76401  1.0000 0.1293954363
H   H133      1.0  0.97994  0.69892  0.29415  1.0000 0.1293954363
H   H134      1.0  0.97994  0.80108  0.79415  1.0000 0.1293954363
H   H135      1.0  0.88493  0.71927  0.37810  1.0000 0.119894268
H   H136      1.0  0.88493  0.78073  0.87810  1.0000 0.119894268
H   H137      1.0  0.82208  0.76651  0.34688  1.0000 0.1379549999
H   H138      1.0  0.82208  0.73349  0.84688  1.0000 0.1379549999
H   H139      1.0  0.68115  0.99652  0.26325  1.0000 0.119894268
H   H140      1.0  0.68115  0.50348  0.76325  1.0000 0.119894268
H   H141      1.0  0.66406  0.03773  0.30299  1.0000 0.1293954363
H   H142      1.0  0.66406  0.46227  0.80299  1.0000 0.1293954363
H   H143      1.0  0.77135  0.98279  0.39788  1.0000 0.1293954363
H   H144      1.0  0.77135  0.51721  0.89788  1.0000 0.1293954363
H   H145      1.0  0.77063  0.93963  0.35761  1.0000 0.1379549999
H   H146      1.0  0.77063  0.56037  0.85761  1.0000 0.1379549999
H   H147      1.0  0.95935  0.93688  0.21173  1.0000 0.2799858886
H   H148      1.0  0.95935  0.56312  0.71173  1.0000 0.2799858886
H   H149      1.0  0.94864  0.77665  0.20236  1.0000 0.2799858886
H   H150      1.0  0.94864  0.72335  0.70236  1.0000 0.2799858886
H   H151      1.0  0.03529  0.89439  0.31063  1.0000 0.2799858886
H   H152      1.0  0.03529  0.60561  0.81063  1.0000 0.2799858886
H   H153      1.0  0.39475  0.70709  0.66881  1.0000 0.2799858886
H   H154      1.0  0.39475  0.79291  0.16881  1.0000 0.2799858886
H   H155      1.0  0.58353  0.62588  0.83115  1.0000 0.2799858886
H   H156      1.0  0.58353  0.87412  0.33115  1.0000 0.2799858886
H   H157      1.0  0.47675  0.57829  0.73630  1.0000 0.2799858886
H   H158      1.0  0.47675  0.92171  0.23630  1.0000 0.2799858886
H   H159      1.0  0.63257  0.22150  0.72920  1.0000 0.2799858886
H   H160      1.0  0.63257  0.27850  0.22920  1.0000 0.2799858886
H   H161      1.0  0.84413  0.11664  0.84970  1.0000 0.2799858886
H   H162      1.0  0.84413  0.38336  0.34970  1.0000 0.2799858886
H   H163      1.0  0.70565  0.08816  0.67293  1.0000 0.2799858886
H   H164      1.0  0.70565  0.41184  0.17293  1.0000 0.2799858886
H   H165      1.0  0.23895  0.34952  0.36623  1.0000 0.2745090318
H   H166      1.0  0.23895  0.15048  0.86623  1.0000 0.2799858886
H   H167      1.0  0.18740  0.30513  0.19922  1.0000 0.2799858886
H   H168      1.0  0.18740  0.19487  0.69922  1.0000 0.2799858886
H   H169      1.0  0.27706  0.44584  0.24283  1.0000 0.2799858886
H   H170      1.0  0.27706  0.05416  0.74283  1.0000 0.2745090318
H   H171      1.0  0.81720  0.02834  0.14610  1.0000 0.119894268
H   H172      1.0  0.81720  0.47166  0.64610  1.0000 0.119894268
H   H173      1.0  0.82906  0.97597  0.16790  1.0000 0.1293954363
H   H174      1.0  0.82906  0.52403  0.66790  1.0000 0.1293954363
H   H175      1.0  0.10908  0.97334  0.17731  1.0000 0.1293954363
H   H176      1.0  0.10908  0.52666  0.67731  1.0000 0.1293954363
H   H177      1.0  0.09383  0.02487  0.15255  1.0000 0.119894268
H   H178      1.0  0.09383  0.47513  0.65255  1.0000 0.119894268
H   H179      1.0  0.03476  0.90188  0.25607  1.0000 0.1093958227
H   H180      1.0  0.03476  0.59812  0.75607  1.0000 0.1093958227
H   H181      1.0  0.04391  0.80699  0.25302  1.0000 0.119894268
H   H182      1.0  0.04391  0.69301  0.75302  1.0000 0.119894268
H   H183      1.0  0.00700  0.85719  0.15560  1.0000 0.119894268
H   H184      1.0  0.00700  0.64281  0.65560  1.0000 0.119894268
H   H185      1.0  0.84945  0.73305  0.18645  1.0000 0.1379549999
H   H186      1.0  0.84945  0.76695  0.68645  1.0000 0.1379549999
H   H187      1.0  0.81173  0.68373  0.15738  1.0000 0.119894268
H   H188      1.0  0.81173  0.81627  0.65738  1.0000 0.119894268
H   H189      1.0  0.02374  0.69423  0.11411  1.0000 0.119894268
H   H190      1.0  0.02374  0.80577  0.61411  1.0000 0.119894268
H   H191      1.0  0.05825  0.74418  0.14187  1.0000 0.1293954363
H   H192      1.0  0.05825  0.75582  0.64187  1.0000 0.1293954363
H   H193      1.0  0.14933  0.91653  0.37656  1.0000 0.119894268
H   H194      1.0  0.14933  0.58347  0.87656  1.0000 0.119894268
H   H195      1.0  0.17105  0.92110  0.44222  1.0000 0.1293954363
H   H196      1.0  0.17105  0.57890  0.94222  1.0000 0.1293954363
H   H197      1.0  0.00231  0.84464  0.43144  1.0000 0.119894268
H   H198      1.0  0.00231  0.65536  0.93144  1.0000 0.119894268
H   H199      1.0  0.98501  0.83893  0.36631  1.0000 0.1379549999
H   H200      1.0  0.98501  0.66107  0.86631  1.0000 0.1379549999
H   H201      1.0  0.11343  0.94839  0.60595  1.0000 0.1093958227
H   H202      1.0  0.11343  0.55161  0.10595  1.0000 0.1093958227
H   H203      1.0  0.40947  0.82665  0.64192  1.0000 0.1293954363
H   H204      1.0  0.40947  0.67335  0.14192  1.0000 0.119894268
H   H205      1.0  0.49627  0.78265  0.67394  1.0000 0.1379549999
H   H206      1.0  0.49627  0.71735  0.17394  1.0000 0.1379549999
H   H207      1.0  0.24975  0.73075  0.63121  1.0000 0.1379549999
H   H208      1.0  0.24975  0.76925  0.13121  1.0000 0.1379549999
H   H209      1.0  0.16386  0.77493  0.59927  1.0000 0.119894268
H   H210      1.0  0.16386  0.72507  0.09927  1.0000 0.119894268
H   H211      1.0  0.61955  0.70592  0.77678  1.0000 0.119894268
H   H212      1.0  0.61955  0.79408  0.27678  1.0000 0.119894268
H   H213      1.0  0.57267  0.61169  0.77316  1.0000 0.1093958227
H   H214      1.0  0.57267  0.88831  0.27316  1.0000 0.1093958227
H   H215      1.0  0.47428  0.66321  0.67329  1.0000 0.119894268
H   H216      1.0  0.47428  0.83679  0.17329  1.0000 0.119894268
H   H217      1.0  0.81746  0.62730  0.89128  1.0000 0.1293954363
H   H218      1.0  0.81746  0.87270  0.39128  1.0000 0.1293954363
H   H219      1.0  0.87842  0.61394  0.95760  1.0000 0.119894268
H   H220      1.0  0.87842  0.88606  0.45760  1.0000 0.119894268
H   H221      1.0  0.60696  0.61705  0.95858  1.0000 0.119894268
H   H222      1.0  0.60696  0.88295  0.45858  1.0000 0.119894268
H   H223      1.0  0.54679  0.63099  0.89264  1.0000 0.1293954363
H   H224      1.0  0.54679  0.86901  0.39264  1.0000 0.1293954363
H   H225      1.0  0.50792  0.52036  0.72174  1.0000 0.1293954363
H   H226      1.0  0.50792  0.97964  0.22174  1.0000 0.1293954363
H   H227      1.0  0.43579  0.47648  0.68414  1.0000 0.119894268
H   H228      1.0  0.43579  0.02352  0.18414  1.0000 0.119894268
H   H229      1.0  0.20877  0.52886  0.62121  1.0000 0.1293954363
H   H230      1.0  0.20877  0.97114  0.12121  1.0000 0.1293954363
H   H231      1.0  0.28687  0.57367  0.65349  1.0000 0.1293954363
H   H232      1.0  0.28687  0.92633  0.15349  1.0000 0.1293954363
H   H233      1.0  0.51522  0.31725  0.67982  1.0000 0.119894268
H   H234      1.0  0.51522  0.18275  0.17982  1.0000 0.119894268
H   H235      1.0  0.61778  0.27639  0.71175  1.0000 0.1379549999
H   H236      1.0  0.61778  0.22361  0.21175  1.0000 0.1379549999
H   H237      1.0  0.41395  0.21416  0.64958  1.0000 0.1293954363
H   H238      1.0  0.41395  0.28584  0.14958  1.0000 0.1293954363
H   H239      1.0  0.31049  0.25557  0.61875  1.0000 0.1293954363
H   H240      1.0  0.31049  0.24443  0.11875  1.0000 0.1293954363
H   H241      1.0  0.67013  0.18808  0.77409  1.0000 0.119894268
H   H242      1.0  0.67013  0.31192  0.27409  1.0000 0.119894268
H   H243      1.0  0.76966  0.09882  0.79566  1.0000 0.1093958227
H   H244      1.0  0.76966  0.40118  0.29566  1.0000 0.1093958227
H   H245      1.0  0.64455  0.12944  0.68413  1.0000 0.119894268
H   H246      1.0  0.64455  0.37056  0.18413  1.0000 0.119894268
H   H247      1.0  0.98490  0.12345  0.91567  1.0000 0.1293954363
H   H248      1.0  0.98490  0.37655  0.41567  1.0000 0.1293954363
H   H249      1.0  0.02487  0.11862  0.98313  1.0000 0.1093958227
H   H250      1.0  0.02487  0.38138  0.48313  1.0000 0.1093958227
H   H251      1.0  0.74045  0.12581  0.96622  1.0000 0.119894268
H   H252      1.0  0.74045  0.37419  0.46622  1.0000 0.119894268
H   H253      1.0  0.70050  0.13114  0.89894  1.0000 0.1379549999
H   H254      1.0  0.70050  0.36886  0.39894  1.0000 0.1379549999
H   H255      1.0  0.81360  0.01880  0.72214  1.0000 0.1379549999
H   H256      1.0  0.81360  0.48120  0.22214  1.0000 0.1379549999
H   H257      1.0  0.83451  0.97364  0.69111  1.0000 0.1293954363
H   H258      1.0  0.83451  0.52636  0.19111  1.0000 0.1293954363
H   H259      1.0  0.71066  0.01481  0.58565  1.0000 0.119894268
H   H260      1.0  0.71066  0.48519  0.08565  1.0000 0.119894268
H   H261      1.0  0.68090  0.05955  0.61610  1.0000 0.1293954363
H   H262      1.0  0.68090  0.44045  0.11610  1.0000 0.1293954363
H   H263      1.0  0.33566  0.41380  0.49167  1.0000 0.1293954363
H   H264      1.0  0.33566  0.08620  0.99167  1.0000 0.1293954363
H   H265      1.0  0.32863  0.41133  0.42639  1.0000 0.1379549999
H   H266      1.0  0.32863  0.08867  0.92639  1.0000 0.1379549999
H   H267      1.0  0.16896  0.33372  0.41013  1.0000 0.1379549999
H   H268      1.0  0.16896  0.16628  0.91013  1.0000 0.1379549999
H   H269      1.0  0.16673  0.33851  0.47230  1.0000 0.1293954363
H   H270      1.0  0.16673  0.16149  0.97230  1.0000 0.1293954363
H   H271      1.0  0.21490  0.33160  0.31499  1.0000 0.119894268
H   H272      1.0  0.21490  0.16840  0.81499  1.0000 0.119894268
H   H273      1.0  0.17520  0.35344  0.20317  1.0000 0.119894268
H   H274      1.0  0.17520  0.14656  0.70317  1.0000 0.119894268
H   H275      1.0  0.23932  0.42149  0.28552  1.0000 0.119894268
H   H276      1.0  0.23932  0.07851  0.78552  1.0000 0.119894268
H   H277      1.0  0.07693  0.24671  0.23599  1.0000 0.1293954363
H   H278      1.0  0.07693  0.25329  0.73599  1.0000 0.1293954363
H   H279      1.0  0.02006  0.19892  0.20585  1.0000 0.1293954363
H   H280      1.0  0.02006  0.30108  0.70585  1.0000 0.1293954363
H   H281      1.0  0.11507  0.21927  0.12190  1.0000 0.119894268
H   H282      1.0  0.11507  0.28073  0.62190  1.0000 0.119894268
H   H283      1.0  0.17792  0.26651  0.15312  1.0000 0.1379549999
H   H284      1.0  0.17792  0.23349  0.65312  1.0000 0.1379549999
H   H285      1.0  0.31885  0.49652  0.23675  1.0000 0.119894268
H   H286      1.0  0.31885  0.00348  0.73675  1.0000 0.119894268
H   H287      1.0  0.33594  0.53773  0.19701  1.0000 0.1293954363
H   H288      1.0  0.33594  0.96227  0.69701  1.0000 0.1293954363
H   H289      1.0  0.22865  0.48279  0.10212  1.0000 0.1293954363
H   H290      1.0  0.22865  0.01721  0.60212  1.0000 0.1293954363
H   H291      1.0  0.22937  0.43963  0.14239  1.0000 0.1379549999
H   H292      1.0  0.22937  0.06037  0.64239  1.0000 0.1379549999
C   C1        1.0  0.05810  0.56426  0.36960  1.0000 0.5796695104
C   C2        1.0  0.05810  0.93574  0.86960  1.0000 0.5796695104
C   C3        1.0  0.04760  0.53131  0.35430  1.0000 -0.0489789961
C   C4        1.0  0.04760  0.96869  0.85430  1.0000 -0.0489789961
C   C5        1.0  0.12470  0.51720  0.34850  1.0000 -0.0716595309
C   C6        1.0  0.12470  0.98280  0.84850  1.0000 -0.0716595309
C   C7        1.0  0.11690  0.48601  0.33430  1.0000 -0.1994198711
C   C8        1.0  0.11690  0.01399  0.83430  1.0000 -0.1994198711
C   C9        1.0  0.02910  0.47067  0.32390  1.0000 0.2314598724
C   C10       1.0  0.02910  0.02933  0.82390  1.0000 0.2314598724
C   C11       1.0  0.94970  0.48433  0.32910  1.0000 -0.1906674416
C   C12       1.0  0.94970  0.01567  0.82910  1.0000 -0.1906674416
C   C13       1.0  0.95940  0.51516  0.34420  1.0000 -0.0716595309
C   C14       1.0  0.95940  0.98484  0.84420  1.0000 -0.0716595309
C   C15       1.0  0.98110  0.41481  0.31880  1.0000 0.4606394736
C   C16       1.0  0.98110  0.08519  0.81880  1.0000 0.4606394736
C   C17       1.0  0.97829  0.38435  0.29709  1.0000 -0.0199364047
C   C18       1.0  0.97829  0.11565  0.79709  1.0000 -0.0199364047
C   C19       1.0  0.96639  0.38318  0.25749  1.0000 -0.1906674416
C   C20       1.0  0.96639  0.11682  0.75749  1.0000 -0.1906674416
C   C21       1.0  0.95637  0.35439  0.23797  1.0000 -0.011572813
C   C22       1.0  0.95637  0.14561  0.73797  1.0000 -0.011572813
C   C23       1.0  0.96141  0.32648  0.25941  1.0000 -0.1404506052
C   C24       1.0  0.96141  0.17352  0.75941  1.0000 -0.1404506052
C   C25       1.0  0.97422  0.32766  0.29862  1.0000 -0.011572813
C   C26       1.0  0.97422  0.17234  0.79862  1.0000 -0.011572813
C   C27       1.0  0.98347  0.35653  0.31777  1.0000 -0.1404506052
C   C28       1.0  0.98347  0.14347  0.81777  1.0000 -0.1404506052
C   C29       1.0  0.97530  0.29813  0.32190  1.0000 0.4509706454
C   C30       1.0  0.97530  0.20187  0.82190  1.0000 0.4509706454
C   C31       1.0  0.04349  0.24391  0.33339  1.0000 0.2314598724
C   C32       1.0  0.04349  0.25609  0.83339  1.0000 0.2314598724
C   C33       1.0  0.11620  0.22539  0.32850  1.0000 -0.1994198711
C   C34       1.0  0.11620  0.27461  0.82850  1.0000 -0.1994198711
C   C35       1.0  0.13840  0.19569  0.34560  1.0000 -0.0716595309
C   C36       1.0  0.13840  0.30431  0.84560  1.0000 -0.0716595309
C   C37       1.0  0.08480  0.18374  0.36730  1.0000 -0.0287872806
C   C38       1.0  0.08480  0.31626  0.86730  1.0000 -0.0287872806
C   C39       1.0  0.01200  0.20204  0.37160  1.0000 -0.0903609129
C   C40       1.0  0.01200  0.29796  0.87160  1.0000 -0.0903609129
C   C41       1.0  0.99110  0.23208  0.35490  1.0000 -0.1800078987
C   C42       1.0  0.99110  0.26792  0.85490  1.0000 -0.1800078987
C   C43       1.0  0.10707  0.15125  0.38487  1.0000 0.5796695104
C   C44       1.0  0.10707  0.34875  0.88487  1.0000 0.5796695104
C   C45       1.0  0.94220  0.35080  0.19560  1.0000 0.4509706454
C   C46       1.0  0.94220  0.14920  0.69560  1.0000 0.4509706454
C   C47       1.0  0.93655  0.37778  0.13535  1.0000 0.2403824651
C   C48       1.0  0.93655  0.12222  0.63535  1.0000 0.2403824651
C   C49       1.0  0.88000  0.40193  0.11230  1.0000 -0.2068198356
C   C50       1.0  0.88000  0.09807  0.61230  1.0000 -0.2068198356
C   C51       1.0  0.86640  0.40461  0.07290  1.0000 -0.0716595309
C   C52       1.0  0.86640  0.09539  0.57290  1.0000 -0.0716595309
C   C53       1.0  0.90860  0.38264  0.05580  1.0000 -0.0489789961
C   C54       1.0  0.90860  0.11736  0.55580  1.0000 -0.0489789961
C   C55       1.0  0.96640  0.35883  0.07940  1.0000 -0.0803816662
C   C56       1.0  0.96640  0.14117  0.57940  1.0000 -0.0803816662
C   C57       1.0  0.97880  0.35567  0.11870  1.0000 -0.1710890057
C   C58       1.0  0.97880  0.14433  0.61870  1.0000 -0.1710890057
C   C59       1.0  0.89110  0.38476  0.01270  1.0000 0.601772397
C   C60       1.0  0.89110  0.11524  0.51270  1.0000 0.601772397
C   C61       1.0  0.93120  0.43180  0.90230  1.0000 0.5295138699
C   C62       1.0  0.93120  0.06820  0.40230  1.0000 0.5295138699
C   C63       1.0  0.77840  0.33397  0.90330  1.0000 0.601772397
C   C64       1.0  0.77840  0.16603  0.40330  1.0000 0.601772397
C   C65       1.0  0.72160  0.30537  0.88270  1.0000 -0.041347346
C   C66       1.0  0.72160  0.19463  0.38270  1.0000 -0.041347346
C   C67       1.0  0.62270  0.30739  0.86030  1.0000 -0.0803816662
C   C68       1.0  0.62270  0.19261  0.36030  1.0000 -0.0803816662
C   C69       1.0  0.57060  0.28108  0.84100  1.0000 -0.1800078987
C   C70       1.0  0.57060  0.21892  0.34100  1.0000 -0.1800078987
C   C71       1.0  0.61900  0.25210  0.84400  1.0000 0.2314598724
C   C72       1.0  0.61900  0.24790  0.34400  1.0000 0.2314598724
C   C73       1.0  0.71790  0.24999  0.86650  1.0000 -0.1906674416
C   C74       1.0  0.71790  0.25001  0.36650  1.0000 -0.1906674416
C   C75       1.0  0.76932  0.27647  0.88572  1.0000 -0.0803816662
C   C76       1.0  0.76932  0.22353  0.38572  1.0000 -0.0803816662
C   C77       1.0  0.47950  0.22144  0.79680  1.0000 0.4509706454
C   C78       1.0  0.47950  0.27856  0.29680  1.0000 0.4509706454
C   C79       1.0  0.45808  0.18911  0.77808  1.0000 -0.011572813
C   C80       1.0  0.45808  0.31089  0.27808  1.0000 -0.011572813
C   C81       1.0  0.40578  0.18764  0.73758  1.0000 -0.1404506052
C   C82       1.0  0.40578  0.31236  0.23758  1.0000 -0.1404506052
C   C83       1.0  0.39183  0.15848  0.71893  1.0000 -0.0199364047
C   C84       1.0  0.39183  0.34152  0.21893  1.0000 -0.0199364047
C   C85       1.0  0.43240  0.13086  0.73990  1.0000 -0.1994198711
C   C86       1.0  0.43240  0.36914  0.23990  1.0000 -0.1994198711
C   C87       1.0  0.48060  0.13259  0.78070  1.0000 -0.011572813
C   C88       1.0  0.48060  0.36741  0.28070  1.0000 -0.011572813
C   C89       1.0  0.49317  0.16199  0.79947  1.0000 -0.1404506052
C   C90       1.0  0.49317  0.33801  0.29947  1.0000 -0.1404506052
C   C91       1.0  0.33140  0.15691  0.67520  1.0000 0.4606394736
C   C92       1.0  0.33140  0.34309  0.17520  1.0000 0.4606394736
C   C93       1.0  0.32470  0.13030  0.61440  1.0000 0.2314598724
C   C94       1.0  0.32470  0.36970  0.11440  1.0000 0.2314598724
C   C95       1.0  0.22470  0.12533  0.59520  1.0000 -0.1710890057
C   C96       1.0  0.22470  0.37467  0.09520  1.0000 -0.1710890057
C   C97       1.0  0.18850  0.11739  0.55540  1.0000 -0.0803816662
C   C98       1.0  0.18850  0.38261  0.05540  1.0000 -0.0803816662
C   C99       1.0  0.24990  0.11453  0.53490  1.0000 -0.0287872806
C   C100      1.0  0.24990  0.38547  0.03490  1.0000 -0.0287872806
C   C101      1.0  0.35040  0.11930  0.55470  1.0000 -0.0716595309
C   C102      1.0  0.35040  0.38070  0.05470  1.0000 -0.0716595309
C   C103      1.0  0.38640  0.12740  0.59430  1.0000 -0.1994198711
C   C104      1.0  0.38640  0.37260  0.09430  1.0000 -0.1994198711
C   C105      1.0  0.21020  0.10646  0.49190  1.0000 0.5796695104
C   C106      1.0  0.21020  0.39354  0.99190  1.0000 0.5796695104
C   C107      1.0  0.52560  0.10452  0.80630  1.0000 0.4606394736
C   C108      1.0  0.52560  0.39548  0.30630  1.0000 0.4606394736
C   C109      1.0  0.59080  0.05117  0.81060  1.0000 0.2314598724
C   C110      1.0  0.59080  0.44883  0.31060  1.0000 0.2314598724
C   C111      1.0  0.55000  0.02250  0.80020  1.0000 -0.1906674416
C   C112      1.0  0.55000  0.47750  0.30020  1.0000 -0.1906674416
C   C113      1.0  0.59430  0.99610  0.82230  1.0000 -0.0803816662
C   C114      1.0  0.59430  0.50390  0.32230  1.0000 -0.0803816662
C   C115      1.0  0.68110  0.99880  0.85320  1.0000 -0.041347346
C   C116      1.0  0.68110  0.50120  0.35320  1.0000 -0.041347346
C   C117      1.0  0.72760  0.02740  0.86010  1.0000 -0.0803816662
C   C118      1.0  0.72760  0.47260  0.36010  1.0000 -0.0803816662
C   C119      1.0  0.68260  0.05405  0.84020  1.0000 -0.1574091646
C   C120      1.0  0.68260  0.44595  0.34020  1.0000 -0.1574091646
C   C121      1.0  0.72930  0.97050  0.87750  1.0000 0.5796695104
C   C122      1.0  0.72930  0.52950  0.37750  1.0000 0.5796695104
C   C123      1.0  0.66430  0.81750  0.87340  1.0000 0.601772397
C   C124      1.0  0.66430  0.68250  0.37340  1.0000 0.601772397
C   C125      1.0  0.59660  0.79058  0.85340  1.0000 -0.0489789961
C   C126      1.0  0.59660  0.70942  0.35340  1.0000 -0.0489789961
C   C127      1.0  0.50580  0.79647  0.82610  1.0000 -0.0716595309
C   C128      1.0  0.50580  0.70353  0.32610  1.0000 -0.0716595309
C   C129      1.0  0.44410  0.77190  0.80710  1.0000 -0.1994198711
C   C130      1.0  0.44410  0.72810  0.30710  1.0000 -0.1994198711
C   C131      1.0  0.47290  0.74081  0.81560  1.0000 0.2403824651
C   C132      1.0  0.47290  0.75919  0.31560  1.0000 0.2403824651
C   C133      1.0  0.56540  0.73490  0.84390  1.0000 -0.1800078987
C   C134      1.0  0.56540  0.76510  0.34390  1.0000 -0.1800078987
C   C135      1.0  0.62730  0.75975  0.86260  1.0000 -0.0803816662
C   C136      1.0  0.62730  0.74025  0.36260  1.0000 -0.0803816662
C   C137      1.0  0.41087  0.68609  0.80587  1.0000 0.4509706454
C   C138      1.0  0.41087  0.81391  0.30587  1.0000 0.4509706454
C   C139      1.0  0.35063  0.66291  0.77533  1.0000 -0.0199364047
C   C140      1.0  0.35063  0.83709  0.27533  1.0000 -0.0199364047
C   C141      1.0  0.31990  0.66835  0.73500  1.0000 -0.1404506052
C   C142      1.0  0.31990  0.83165  0.23500  1.0000 -0.1404506052
C   C143      1.0  0.27432  0.64456  0.70812  1.0000 -0.011572813
C   C144      1.0  0.27432  0.85544  0.20812  1.0000 -0.011572813
C   C145      1.0  0.25920  0.61504  0.72210  1.0000 -0.1404506052
C   C146      1.0  0.25920  0.88496  0.22210  1.0000 -0.1404506052
C   C147      1.0  0.28701  0.60979  0.76241  1.0000 -0.0199364047
C   C148      1.0  0.28701  0.89021  0.26241  1.0000 -0.0199364047
C   C149      1.0  0.33430  0.63328  0.78890  1.0000 -0.1710890057
C   C150      1.0  0.33430  0.86672  0.28890  1.0000 -0.1710890057
C   C151      1.0  0.24791  0.65052  0.66501  1.0000 0.4710029555
C   C152      1.0  0.24791  0.84948  0.16501  1.0000 0.4710029555
C   C153      1.0  0.16098  0.62824  0.59918  1.0000 0.2460389925
C   C154      1.0  0.16098  0.87176  0.09918  1.0000 0.2460389925
C   C155      1.0  0.06430  0.62422  0.57410  1.0000 -0.1906674416
C   C156      1.0  0.06430  0.87578  0.07410  1.0000 -0.1906674416
C   C157      1.0  0.04030  0.62130  0.53360  1.0000 -0.0803816662
C   C158      1.0  0.04030  0.87870  0.03360  1.0000 -0.0803816662
C   C159      1.0  0.11236  0.62238  0.51836  1.0000 -0.0571729151
C   C160      1.0  0.11236  0.87762  0.01836  1.0000 -0.0571729151
C   C161      1.0  0.21020  0.62570  0.54390  1.0000 -0.0716595309
C   C162      1.0  0.21020  0.87430  0.04390  1.0000 -0.0716595309
C   C163      1.0  0.23430  0.62870  0.58420  1.0000 -0.1800078987
C   C164      1.0  0.23430  0.87130  0.08420  1.0000 -0.1800078987
C   C165      1.0  0.08660  0.62003  0.47520  1.0000 0.5934860227
C   C166      1.0  0.08660  0.87997  0.97520  1.0000 0.5934860227
C   C167      1.0  0.26480  0.57701  0.77320  1.0000 0.4509706454
C   C168      1.0  0.26480  0.92299  0.27320  1.0000 0.4509706454
C   C169      1.0  0.25599  0.54392  0.82749  1.0000 0.2314598724
C   C170      1.0  0.25599  0.95608  0.32749  1.0000 0.2314598724
C   C171      1.0  0.20890  0.51807  0.80530  1.0000 -0.1994198711
C   C172      1.0  0.20890  0.98193  0.30530  1.0000 -0.1994198711
C   C173      1.0  0.19550  0.49111  0.82410  1.0000 -0.0803816662
C   C174      1.0  0.19550  0.00889  0.32410  1.0000 -0.0803816662
C   C175      1.0  0.22500  0.48921  0.86460  1.0000 -0.041347346
C   C176      1.0  0.22500  0.01079  0.36460  1.0000 -0.041347346
C   C177      1.0  0.27020  0.51533  0.88700  1.0000 -0.0803816662
C   C178      1.0  0.27020  0.98467  0.38700  1.0000 -0.0803816662
C   C179      1.0  0.28690  0.54235  0.86860  1.0000 -0.2199158235
C   C180      1.0  0.28690  0.95765  0.36860  1.0000 -0.2199158235
C   C181      1.0  0.20510  0.45990  0.88340  1.0000 0.5411699158
C   C182      1.0  0.20510  0.04010  0.38340  1.0000 0.5411699158
C   C183      1.0  0.75180  0.87860  0.97120  1.0000 0.5934860227
C   C184      1.0  0.75180  0.62140  0.47120  1.0000 0.5934860227
C   C185      1.0  0.75400  0.87770  0.01310  1.0000 -0.0571729151
C   C186      1.0  0.75400  0.62230  0.51310  1.0000 -0.0571729151
C   C187      1.0  0.70230  0.89840  0.02550  1.0000 -0.0716595309
C   C188      1.0  0.70230  0.60160  0.52550  1.0000 -0.0716595309
C   C189      1.0  0.70570  0.89670  0.06470  1.0000 -0.1710890057
C   C190      1.0  0.70570  0.60330  0.56470  1.0000 -0.1710890057
C   C191      1.0  0.75830  0.87420  0.08880  1.0000 0.215004657
C   C192      1.0  0.75830  0.62580  0.58880  1.0000 0.215004657
C   C193      1.0  0.80150  0.85110  0.07430  1.0000 -0.1906674416
C   C194      1.0  0.80150  0.64890  0.57430  1.0000 -0.1906674416
C   C195      1.0  0.80090  0.85360  0.03690  1.0000 -0.0803816662
C   C196      1.0  0.80090  0.64640  0.53690  1.0000 -0.0803816662
C   C197      1.0  0.75640  0.89039  0.15310  1.0000 0.4509706454
C   C198      1.0  0.75640  0.60961  0.65310  1.0000 0.4509706454
C   C199      1.0  0.77010  0.87795  0.19310  1.0000 -0.0199364047
C   C200      1.0  0.77010  0.62205  0.69310  1.0000 -0.0199364047
C   C201      1.0  0.78640  0.84662  0.20380  1.0000 -0.1404506052
C   C202      1.0  0.78640  0.65338  0.70380  1.0000 -0.1404506052
C   C203      1.0  0.80490  0.83714  0.24250  1.0000 -0.011572813
C   C204      1.0  0.80490  0.66286  0.74250  1.0000 -0.011572813
C   C205      1.0  0.80880  0.85952  0.27070  1.0000 -0.1404506052
C   C206      1.0  0.80880  0.64048  0.77070  1.0000 -0.1404506052
C   C207      1.0  0.78860  0.89121  0.25990  1.0000 -0.0199364047
C   C208      1.0  0.78860  0.60879  0.75990  1.0000 -0.0199364047
C   C209      1.0  0.77150  0.90028  0.22150  1.0000 -0.1710890057
C   C210      1.0  0.77150  0.59972  0.72150  1.0000 -0.1710890057
C   C211      1.0  0.82940  0.80287  0.25170  1.0000 0.4606394736
C   C212      1.0  0.82940  0.69713  0.75170  1.0000 0.4606394736
C   C213      1.0  0.86730  0.76209  0.30370  1.0000 0.2314598724
C   C214      1.0  0.86730  0.73791  0.80370  1.0000 0.2314598724
C   C215      1.0  0.91480  0.74140  0.28730  1.0000 -0.1800078987
C   C216      1.0  0.91480  0.75860  0.78730  1.0000 -0.1800078987
C   C217      1.0  0.94990  0.71290  0.30580  1.0000 -0.0903609129
C   C218      1.0  0.94990  0.78710  0.80580  1.0000 -0.0903609129
C   C219      1.0  0.94190  0.70469  0.33980  1.0000 -0.0199364047
C   C220      1.0  0.94190  0.79531  0.83980  1.0000 -0.0199364047
C   C221      1.0  0.89350  0.72460  0.35490  1.0000 -0.0803816662
C   C222      1.0  0.89350  0.77540  0.85490  1.0000 -0.0803816662
C   C223      1.0  0.85610  0.75330  0.33610  1.0000 -0.1800078987
C   C224      1.0  0.85610  0.74670  0.83610  1.0000 -0.1800078987
C   C225      1.0  0.98650  0.67400  0.35980  1.0000 0.5743892384
C   C226      1.0  0.98650  0.82600  0.85980  1.0000 0.5796695104
C   C227      1.0  0.78750  0.91255  0.29250  1.0000 0.4509706454
C   C228      1.0  0.78750  0.58745  0.79250  1.0000 0.4509706454
C   C229      1.0  0.73520  0.96490  0.30760  1.0000 0.2314598724
C   C230      1.0  0.73520  0.53510  0.80760  1.0000 0.2314598724
C   C231      1.0  0.69880  0.99359  0.29030  1.0000 -0.2199158235
C   C232      1.0  0.69880  0.50641  0.79030  1.0000 -0.2199158235
C   C233      1.0  0.68870  0.01831  0.31430  1.0000 -0.0716595309
C   C234      1.0  0.68870  0.48169  0.81430  1.0000 -0.0716595309
C   C235      1.0  0.71480  0.01419  0.35400  1.0000 -0.0489789961
C   C236      1.0  0.71480  0.48581  0.85400  1.0000 -0.0489789961
C   C237      1.0  0.75020  0.98537  0.37070  1.0000 -0.0803816662
C   C238      1.0  0.75020  0.51463  0.87070  1.0000 -0.0803816662
C   C239      1.0  0.75470  0.95976  0.34690  1.0000 -0.1906674416
C   C240      1.0  0.75470  0.54024  0.84690  1.0000 -0.1906674416
C   C241      1.0  0.71280  0.04155  0.38020  1.0000 0.5483364207
C   C242      1.0  0.71280  0.45845  0.88020  1.0000 0.5483364207
C   C243      1.0  0.94190  0.06426  0.13040  1.0000 0.5796695104
C   C244      1.0  0.94190  0.43574  0.63040  1.0000 0.5796695104
C   C245      1.0  0.95240  0.03131  0.14570  1.0000 -0.0489789961
C   C246      1.0  0.95240  0.46869  0.64570  1.0000 -0.0489789961
C   C247      1.0  0.87530  0.01720  0.15150  1.0000 -0.0716595309
C   C248      1.0  0.87530  0.48280  0.65150  1.0000 -0.0716595309
C   C249      1.0  0.88310  0.98601  0.16570  1.0000 -0.1994198711
C   C250      1.0  0.88310  0.51399  0.66570  1.0000 -0.1994198711
C   C251      1.0  0.97090  0.97067  0.17610  1.0000 0.2314598724
C   C252      1.0  0.97090  0.52933  0.67610  1.0000 0.2314598724
C   C253      1.0  0.05030  0.98433  0.17090  1.0000 -0.1906674416
C   C254      1.0  0.05030  0.51567  0.67090  1.0000 -0.1906674416
C   C255      1.0  0.04060  0.01516  0.15580  1.0000 -0.0716595309
C   C256      1.0  0.04060  0.48484  0.65580  1.0000 -0.0716595309
C   C257      1.0  0.01890  0.91481  0.18120  1.0000 0.4606394736
C   C258      1.0  0.01890  0.58519  0.68120  1.0000 0.4606394736
C   C259      1.0  0.02171  0.88435  0.20291  1.0000 -0.0199364047
C   C260      1.0  0.02171  0.61565  0.70291  1.0000 -0.0199364047
C   C261      1.0  0.03361  0.88318  0.24251  1.0000 -0.1906674416
C   C262      1.0  0.03361  0.61682  0.74251  1.0000 -0.1906674416
C   C263      1.0  0.04363  0.85439  0.26203  1.0000 -0.011572813
C   C264      1.0  0.04363  0.64561  0.76203  1.0000 -0.011572813
C   C265      1.0  0.03859  0.82648  0.24059  1.0000 -0.1404506052
C   C266      1.0  0.03859  0.67352  0.74059  1.0000 -0.1404506052
C   C267      1.0  0.02578  0.82766  0.20138  1.0000 -0.011572813
C   C268      1.0  0.02578  0.67234  0.70138  1.0000 -0.011572813
C   C269      1.0  0.01653  0.85653  0.18223  1.0000 -0.1404506052
C   C270      1.0  0.01653  0.64347  0.68223  1.0000 -0.1404506052
C   C271      1.0  0.02470  0.79813  0.17810  1.0000 0.4509706454
C   C272      1.0  0.02470  0.70187  0.67810  1.0000 0.4509706454
C   C273      1.0  0.95651  0.74391  0.16661  1.0000 0.2314598724
C   C274      1.0  0.95651  0.75609  0.66667  1.0000 0.2314598724
C   C275      1.0  0.88380  0.72539  0.17150  1.0000 -0.1994198711
C   C276      1.0  0.88380  0.77461  0.67150  1.0000 -0.1994198711
C   C277      1.0  0.86160  0.69569  0.15440  1.0000 -0.0716595309
C   C278      1.0  0.86160  0.80431  0.65440  1.0000 -0.0716595309
C   C279      1.0  0.91520  0.68374  0.13270  1.0000 -0.0287872806
C   C280      1.0  0.91520  0.81626  0.63270  1.0000 -0.0287872806
C   C281      1.0  0.98800  0.70204  0.12840  1.0000 -0.0903609129
C   C282      1.0  0.98800  0.79796  0.62840  1.0000 -0.0903609129
C   C283      1.0  0.00890  0.73208  0.14510  1.0000 -0.1800078987
C   C284      1.0  0.00890  0.76792  0.64510  1.0000 -0.1800078987
C   C285      1.0  0.89293  0.65125  0.11513  1.0000 0.5796695104
C   C286      1.0  0.89293  0.84875  0.61513  1.0000 0.5796695104
C   C287      1.0  0.05780  0.85080  0.30440  1.0000 0.4509706454
C   C288      1.0  0.05780  0.64920  0.80440  1.0000 0.4509706454
C   C289      1.0  0.06345  0.87778  0.36465  1.0000 0.2403824651
C   C290      1.0  0.06345  0.62222  0.86465  1.0000 0.2403824651
C   C291      1.0  0.12000  0.90193  0.38770  1.0000 -0.2068198356
C   C292      1.0  0.12000  0.59807  0.88770  1.0000 -0.2068198356
C   C293      1.0  0.13360  0.90461  0.42710  1.0000 -0.0716595309
C   C294      1.0  0.13360  0.59539  0.92710  1.0000 -0.0716595309
C   C295      1.0  0.09140  0.88264  0.44420  1.0000 -0.0489789961
C   C296      1.0  0.09140  0.61736  0.94420  1.0000 -0.0489789961
C   C297      1.0  0.03360  0.85883  0.42060  1.0000 -0.0803816662
C   C298      1.0  0.03360  0.64117  0.92060  1.0000 -0.0803816662
C   C299      1.0  0.02120  0.85567  0.38130  1.0000 -0.1710890057
C   C300      1.0  0.02120  0.64433  0.88130  1.0000 -0.1710890057
C   C301      1.0  0.10890  0.88476  0.48730  1.0000 0.601772397
C   C302      1.0  0.10890  0.61524  0.98730  1.0000 0.601772397
C   C303      1.0  0.06880  0.93180  0.59770  1.0000 0.5295138699
C   C304      1.0  0.06880  0.56820  0.09770  1.0000 0.5295138699
C   C305      1.0  0.22160  0.83397  0.59670  1.0000 0.601772397
C   C306      1.0  0.22160  0.66603  0.09670  1.0000 0.601772397
C   C307      1.0  0.27840  0.80537  0.61730  1.0000 -0.0489789961
C   C308      1.0  0.27840  0.69463  0.11730  1.0000 -0.0489789961
C   C309      1.0  0.37730  0.80739  0.63970  1.0000 -0.0803816662
C   C310      1.0  0.37730  0.69261  0.13970  1.0000 -0.0803816662
C   C311      1.0  0.42940  0.78108  0.65900  1.0000 -0.1800078987
C   C312      1.0  0.42940  0.71892  0.15900  1.0000 -0.1800078987
C   C313      1.0  0.38100  0.75210  0.65600  1.0000 0.2314598724
C   C314      1.0  0.38100  0.74790  0.15600  1.0000 0.2314598724
C   C315      1.0  0.28210  0.74999  0.63350  1.0000 -0.1906674416
C   C316      1.0  0.28210  0.75001  0.13350  1.0000 -0.1906674416
C   C317      1.0  0.23068  0.77647  0.61428  1.0000 -0.0803816662
C   C318      1.0  0.23068  0.72353  0.11428  1.0000 -0.0803816662
C   C319      1.0  0.52050  0.72144  0.70320  1.0000 0.4509706454
C   C320      1.0  0.52050  0.77856  0.20320  1.0000 0.4509706454
C   C321      1.0  0.54192  0.68911  0.72192  1.0000 -0.011572813
C   C322      1.0  0.54192  0.81089  0.22192  1.0000 -0.011572813
C   C323      1.0  0.59422  0.68764  0.76242  1.0000 -0.1404506052
C   C324      1.0  0.59422  0.81236  0.26242  1.0000 -0.1404506052
C   C325      1.0  0.60817  0.65848  0.78107  1.0000 -0.0199364047
C   C326      1.0  0.60817  0.84152  0.28107  1.0000 -0.0199364047
C   C327      1.0  0.56760  0.63086  0.76010  1.0000 -0.2068198356
C   C328      1.0  0.56760  0.86914  0.26010  1.0000 -0.2068198356
C   C329      1.0  0.51940  0.63259  0.71930  1.0000 -0.011572813
C   C330      1.0  0.51940  0.86741  0.21930  1.0000 -0.011572813
C   C331      1.0  0.50683  0.66199  0.70053  1.0000 -0.1404506052
C   C332      1.0  0.50683  0.83801  0.20053  1.0000 -0.1404506052
C   C333      1.0  0.66860  0.65691  0.82480  1.0000 0.4606394736
C   C334      1.0  0.66860  0.84309  0.32480  1.0000 0.4606394736
C   C335      1.0  0.67530  0.63030  0.88560  1.0000 0.2314598724
C   C336      1.0  0.67530  0.86970  0.38560  1.0000 0.2314598724
C   C337      1.0  0.77530  0.62533  0.90480  1.0000 -0.1710890057
C   C338      1.0  0.77530  0.87467  0.40480  1.0000 -0.1710890057
C   C339      1.0  0.81150  0.61739  0.94460  1.0000 -0.0803816662
C   C340      1.0  0.81150  0.88261  0.44460  1.0000 -0.0803816662
C   C341      1.0  0.75010  0.61453  0.96510  1.0000 -0.0287872806
C   C342      1.0  0.75010  0.88547  0.46510  1.0000 -0.0287872806
C   C343      1.0  0.64960  0.61930  0.94530  1.0000 -0.0716595309
C   C344      1.0  0.64960  0.88070  0.44530  1.0000 -0.0716595309
C   C345      1.0  0.61360  0.62740  0.90570  1.0000 -0.1994198711
C   C346      1.0  0.61360  0.87260  0.40570  1.0000 -0.1994198711
C   C347      1.0  0.78980  0.60646  0.00810  1.0000 0.5796695104
C   C348      1.0  0.78980  0.89354  0.50810  1.0000 0.5796695104
C   C349      1.0  0.47440  0.60452  0.69370  1.0000 0.4606394736
C   C350      1.0  0.47440  0.89548  0.19370  1.0000 0.4606394736
C   C351      1.0  0.40920  0.55117  0.68940  1.0000 0.2314598724
C   C352      1.0  0.40920  0.94883  0.18940  1.0000 0.2314598724
C   C353      1.0  0.45000  0.52250  0.69980  1.0000 -0.1906674416
C   C354      1.0  0.45000  0.97750  0.19980  1.0000 -0.1906674416
C   C355      1.0  0.40570  0.49610  0.67770  1.0000 -0.0803816662
C   C356      1.0  0.40570  0.00390  0.17770  1.0000 -0.0803816662
C   C357      1.0  0.31890  0.49880  0.64680  1.0000 -0.041347346
C   C358      1.0  0.31890  0.00120  0.14680  1.0000 -0.041347346
C   C359      1.0  0.27240  0.52740  0.63990  1.0000 -0.0803816662
C   C360      1.0  0.27240  0.97260  0.13990  1.0000 -0.0803816662
C   C361      1.0  0.31740  0.55405  0.65980  1.0000 -0.1574091646
C   C362      1.0  0.31740  0.94595  0.15980  1.0000 -0.1574091646
C   C363      1.0  0.27070  0.47050  0.62250  1.0000 0.5796695104
C   C364      1.0  0.27070  0.02950  0.12250  1.0000 0.5796695104
C   C365      1.0  0.33570  0.31750  0.62660  1.0000 0.601772397
C   C366      1.0  0.33570  0.18250  0.12660  1.0000 0.601772397
C   C367      1.0  0.40340  0.29058  0.64660  1.0000 -0.0489789961
C   C368      1.0  0.40340  0.20942  0.14660  1.0000 -0.0489789961
C   C369      1.0  0.49420  0.29647  0.67390  1.0000 -0.0716595309
C   C370      1.0  0.49420  0.20353  0.17390  1.0000 -0.0716595309
C   C371      1.0  0.55590  0.27190  0.69290  1.0000 -0.1994198711
C   C372      1.0  0.55590  0.22810  0.19290  1.0000 -0.1994198711
C   C373      1.0  0.52710  0.24081  0.68440  1.0000 0.2403824651
C   C374      1.0  0.52710  0.25919  0.18440  1.0000 0.2403824651
C   C375      1.0  0.43460  0.23490  0.65610  1.0000 -0.1800078987
C   C376      1.0  0.43460  0.26510  0.15610  1.0000 -0.1800078987
C   C377      1.0  0.37270  0.25975  0.63740  1.0000 -0.0803816662
C   C378      1.0  0.37270  0.24025  0.13740  1.0000 -0.0803816662
C   C379      1.0  0.58913  0.18609  0.69413  1.0000 0.4509706454
C   C380      1.0  0.58913  0.31391  0.19413  1.0000 0.4509706454
C   C381      1.0  0.64937  0.16291  0.72467  1.0000 -0.0199364047
C   C382      1.0  0.64937  0.33709  0.22467  1.0000 -0.0199364047
C   C383      1.0  0.68010  0.16835  0.76500  1.0000 -0.1404506052
C   C384      1.0  0.68010  0.33165  0.26500  1.0000 -0.1404506052
C   C385      1.0  0.72568  0.14456  0.79188  1.0000 -0.011572813
C   C386      1.0  0.72568  0.35544  0.29188  1.0000 -0.011572813
C   C387      1.0  0.74080  0.11504  0.77790  1.0000 -0.1404506052
C   C388      1.0  0.74080  0.38496  0.27790  1.0000 -0.1404506052
C   C389      1.0  0.71299  0.10979  0.73759  1.0000 -0.0199364047
C   C390      1.0  0.71299  0.39021  0.23759  1.0000 -0.0199364047
C   C391      1.0  0.66570  0.13328  0.71110  1.0000 -0.1710890057
C   C392      1.0  0.66570  0.36672  0.21110  1.0000 -0.1710890057
C   C393      1.0  0.75209  0.15052  0.83499  1.0000 0.4710029555
C   C394      1.0  0.75209  0.34948  0.33499  1.0000 0.4710029555
C   C395      1.0  0.83902  0.12824  0.90082  1.0000 0.2460389925
C   C396      1.0  0.83902  0.37176  0.40082  1.0000 0.2460389925
C   C397      1.0  0.93570  0.12422  0.92590  1.0000 -0.1906674416
C   C398      1.0  0.93570  0.37578  0.42590  1.0000 -0.1906674416
C   C399      1.0  0.95970  0.12130  0.96640  1.0000 -0.0803816662
C   C400      1.0  0.95970  0.37870  0.46640  1.0000 -0.0803816662
C   C401      1.0  0.88764  0.12238  0.98164  1.0000 -0.0571729151
C   C402      1.0  0.88764  0.37762  0.48164  1.0000 -0.0571729151
C   C403      1.0  0.78980  0.12570  0.95610  1.0000 -0.0716595309
C   C404      1.0  0.78980  0.37430  0.45610  1.0000 -0.0716595309
C   C405      1.0  0.76570  0.12870  0.91580  1.0000 -0.1800078987
C   C406      1.0  0.76570  0.37130  0.41580  1.0000 -0.1800078987
C   C407      1.0  0.91340  0.12003  0.02480  1.0000 0.5934860227
C   C408      1.0  0.91340  0.37997  0.52480  1.0000 0.5934860227
C   C409      1.0  0.73520  0.07701  0.72680  1.0000 0.4509706454
C   C410      1.0  0.73520  0.42299  0.22680  1.0000 0.4509706454
C   C411      1.0  0.74401  0.04392  0.67251  1.0000 0.2314598724
C   C412      1.0  0.74401  0.45608  0.17251  1.0000 0.2314598724
C   C413      1.0  0.79110  0.01807  0.69470  1.0000 -0.1994198711
C   C414      1.0  0.79110  0.48193  0.19470  1.0000 -0.1994198711
C   C415      1.0  0.80450  0.99111  0.67590  1.0000 -0.0803816662
C   C416      1.0  0.80450  0.50889  0.17590  1.0000 -0.0803816662
C   C417      1.0  0.77500  0.98921  0.63540  1.0000 -0.041347346
C   C418      1.0  0.77500  0.51079  0.13540  1.0000 -0.041347346
C   C419      1.0  0.72980  0.01533  0.61300  1.0000 -0.0803816662
C   C420      1.0  0.72980  0.48467  0.11300  1.0000 -0.0803816662
C   C421      1.0  0.71310  0.04235  0.63140  1.0000 -0.2199158235
C   C422      1.0  0.71310  0.45765  0.13140  1.0000 -0.2199158235
C   C423      1.0  0.79490  0.95990  0.61660  1.0000 0.5411699158
C   C424      1.0  0.79490  0.54010  0.11660  1.0000 0.5411699158
C   C425      1.0  0.24820  0.37860  0.52880  1.0000 0.5934860227
C   C426      1.0  0.24820  0.12140  0.02880  1.0000 0.5934860227
C   C427      1.0  0.24600  0.37770  0.48690  1.0000 -0.0489789961
C   C428      1.0  0.24600  0.12230  0.98690  1.0000 -0.0489789961
C   C429      1.0  0.29770  0.39840  0.47450  1.0000 -0.0716595309
C   C430      1.0  0.29770  0.10160  0.97450  1.0000 -0.0716595309
C   C431      1.0  0.29430  0.39670  0.43530  1.0000 -0.1710890057
C   C432      1.0  0.29430  0.10330  0.93530  1.0000 -0.1710890057
C   C433      1.0  0.24170  0.37420  0.41120  1.0000 0.215004657
C   C434      1.0  0.24170  0.12580  0.91120  1.0000 0.2144447011
C   C435      1.0  0.19850  0.35110  0.42570  1.0000 -0.1994198711
C   C436      1.0  0.19850  0.14890  0.92570  1.0000 -0.1994198711
C   C437      1.0  0.19910  0.35360  0.46310  1.0000 -0.0803816662
C   C438      1.0  0.19910  0.14640  0.96310  1.0000 -0.0803816662
C   C439      1.0  0.24360  0.39039  0.34690  1.0000 0.4509706454
C   C440      1.0  0.24360  0.10961  0.84690  1.0000 0.4509706454
C   C441      1.0  0.22990  0.37795  0.30690  1.0000 -0.0199364047
C   C442      1.0  0.22990  0.12205  0.80690  1.0000 -0.0199364047
C   C443      1.0  0.21360  0.34662  0.29620  1.0000 -0.1404506052
C   C444      1.0  0.21360  0.15338  0.79620  1.0000 -0.1404506052
C   C445      1.0  0.19510  0.33714  0.25750  1.0000 -0.011572813
C   C446      1.0  0.19510  0.16286  0.75750  1.0000 -0.011572813
C   C447      1.0  0.19120  0.35952  0.22930  1.0000 -0.1404506052
C   C448      1.0  0.19120  0.14048  0.72930  1.0000 -0.1404506052
C   C449      1.0  0.21140  0.39121  0.24010  1.0000 -0.0199364047
C   C450      1.0  0.21140  0.10879  0.74010  1.0000 -0.0199364047
C   C451      1.0  0.22850  0.40028  0.27850  1.0000 -0.1710890057
C   C452      1.0  0.22850  0.09972  0.77850  1.0000 -0.1710890057
C   C453      1.0  0.17060  0.30287  0.24830  1.0000 0.4606394736
C   C454      1.0  0.17060  0.19713  0.74830  1.0000 0.4606394736
C   C455      1.0  0.13270  0.26209  0.19630  1.0000 0.2314598724
C   C456      1.0  0.13270  0.23791  0.69630  1.0000 0.2314598724
C   C457      1.0  0.08520  0.24140  0.21270  1.0000 -0.1800078987
C   C458      1.0  0.08520  0.25860  0.71270  1.0000 -0.1800078987
C   C459      1.0  0.05010  0.21290  0.19420  1.0000 -0.0903609129
C   C460      1.0  0.05010  0.28710  0.69420  1.0000 -0.0903609129
C   C461      1.0  0.05810  0.20469  0.16020  1.0000 -0.0199364047
C   C462      1.0  0.05810  0.29531  0.66020  1.0000 -0.0199364047
C   C463      1.0  0.10650  0.22460  0.14510  1.0000 -0.0803816662
C   C464      1.0  0.10650  0.27540  0.64510  1.0000 -0.0803816662
C   C465      1.0  0.14390  0.25330  0.16390  1.0000 -0.1800078987
C   C466      1.0  0.14390  0.24670  0.66390  1.0000 -0.1800078987
C   C467      1.0  0.01350  0.17400  0.14020  1.0000 0.5796695104
C   C468      1.0  0.01350  0.32600  0.64020  1.0000 0.5796695104
C   C469      1.0  0.21250  0.41255  0.20750  1.0000 0.4509706454
C   C470      1.0  0.21250  0.08745  0.70750  1.0000 0.4509706454
C   C471      1.0  0.26480  0.46490  0.19240  1.0000 0.2314598724
C   C472      1.0  0.26480  0.03510  0.69240  1.0000 0.2314598724
C   C473      1.0  0.30120  0.49359  0.20970  1.0000 -0.2199158235
C   C474      1.0  0.30120  0.00641  0.70970  1.0000 -0.2199158235
C   C475      1.0  0.31130  0.51831  0.18570  1.0000 -0.0716595309
C   C476      1.0  0.31130  0.98169  0.68570  1.0000 -0.0716595309
C   C477      1.0  0.28520  0.51419  0.14600  1.0000 -0.0489789961
C   C478      1.0  0.28520  0.98581  0.64600  1.0000 -0.0489789961
C   C479      1.0  0.24980  0.48537  0.12930  1.0000 -0.0803816662
C   C480      1.0  0.24980  0.01463  0.62930  1.0000 -0.0803816662
C   C481      1.0  0.24530  0.45976  0.15310  1.0000 -0.1906674416
C   C482      1.0  0.24530  0.04024  0.65310  1.0000 -0.1906674416
C   C483      1.0  0.28720  0.54155  0.11980  1.0000 0.5483364207
C   C484      1.0  0.28720  0.95845  0.61980  1.0000 0.5483364207
N   N1        1.0  0.01992  0.43972  0.30712  1.0000 -0.372407562
N   N2        1.0  0.01992  0.06028  0.80712  1.0000 -0.372407562
N   N3        1.0  0.02639  0.27359  0.31519  1.0000 -0.3621391463
N   N4        1.0  0.02639  0.22641  0.81519  1.0000 -0.3621391463
N   N5        1.0  0.95031  0.37697  0.17631  1.0000 -0.3909788164
N   N6        1.0  0.95031  0.12303  0.67631  1.0000 -0.3909788164
N   N7        1.0  0.57170  0.22426  0.82460  1.0000 -0.3621391463
N   N8        1.0  0.57170  0.27574  0.32460  1.0000 -0.3621391463
N   N9        1.0  0.36483  0.13640  0.65523  1.0000 -0.3621391463
N   N10       1.0  0.36483  0.36360  0.15523  1.0000 -0.3621391463
N   N11       1.0  0.54241  0.07857  0.78901  1.0000 -0.3777885246
N   N12       1.0  0.54241  0.42143  0.28901  1.0000 -0.3777885246
N   N13       1.0  0.40988  0.71662  0.79368  1.0000 -0.372407562
N   N14       1.0  0.40988  0.78338  0.29368  1.0000 -0.372407562
N   N15       1.0  0.18434  0.62987  0.64024  1.0000 -0.3777885246
N   N16       1.0  0.18434  0.87013  0.14024  1.0000 -0.372407562
N   N17       1.0  0.27472  0.57231  0.81132  1.0000 -0.372407562
N   N18       1.0  0.27472  0.92769  0.31132  1.0000 -0.372407562
N   N19       1.0  0.75883  0.86898  0.12663  1.0000 -0.3516594204
N   N20       1.0  0.75883  0.63102  0.62663  1.0000 -0.3516594204
N   N21       1.0  0.83287  0.79244  0.28707  1.0000 -0.3621391463
N   N22       1.0  0.83287  0.70756  0.78707  1.0000 -0.3621391463
N   N23       1.0  0.74554  0.94140  0.28194  1.0000 -0.3777885246
N   N24       1.0  0.74554  0.55860  0.78194  1.0000 -0.3777885246
N   N25       1.0  0.98008  0.93972  0.19288  1.0000 -0.372407562
N   N26       1.0  0.98008  0.56028  0.69288  1.0000 -0.372407562
N   N27       1.0  0.97361  0.77359  0.18481  1.0000 -0.3621391463
N   N28       1.0  0.97361  0.72641  0.68481  1.0000 -0.3621391463
N   N29       1.0  0.04969  0.87697  0.32369  1.0000 -0.3909788164
N   N30       1.0  0.04969  0.62303  0.82369  1.0000 -0.3909788164
N   N31       1.0  0.42830  0.72426  0.67540  1.0000 -0.3621391463
N   N32       1.0  0.42830  0.77574  0.17540  1.0000 -0.3621391463
N   N33       1.0  0.63517  0.63640  0.84477  1.0000 -0.3621391463
N   N34       1.0  0.63517  0.86360  0.34477  1.0000 -0.3621391463
N   N35       1.0  0.45759  0.57857  0.71099  1.0000 -0.3777885246
N   N36       1.0  0.45759  0.92143  0.21099  1.0000 -0.3777885246
N   N37       1.0  0.59012  0.21662  0.70632  1.0000 -0.372407562
N   N38       1.0  0.59012  0.28338  0.20632  1.0000 -0.372407562
N   N39       1.0  0.81566  0.12987  0.85976  1.0000 -0.372407562
N   N40       1.0  0.81566  0.37013  0.35976  1.0000 -0.3777885246
N   N41       1.0  0.72528  0.07231  0.68868  1.0000 -0.372407562
N   N42       1.0  0.72528  0.42769  0.18868  1.0000 -0.372407562
N   N43       1.0  0.24117  0.36898  0.37337  1.0000 -0.3516594204
N   N44       1.0  0.24117  0.13102  0.87337  1.0000 -0.3516594204
N   N45       1.0  0.16713  0.29244  0.21293  1.0000 -0.3621391463
N   N46       1.0  0.16713  0.20756  0.71293  1.0000 -0.3621391463
N   N47       1.0  0.25446  0.44140  0.21806  1.0000 -0.3777885246
N   N48       1.0  0.25446  0.05860  0.71806  1.0000 -0.3777885246
O   O1        1.0  0.13870  0.57878  0.37620  1.0000 -0.5397203042
O   O2        1.0  0.13870  0.92122  0.87620  1.0000 -0.5397203042
O   O3        1.0  0.98794  0.57799  0.37504  1.0000 -0.5801270214
O   O4        1.0  0.98794  0.92201  0.87504  1.0000 -0.5801270214
O   O5        1.0  0.94920  0.41584  0.34530  1.0000 -0.4720798092
O   O6        1.0  0.94920  0.08416  0.84530  1.0000 -0.4720798092
O   O7        1.0  0.93130  0.29726  0.34420  1.0000 -0.4592381947
O   O8        1.0  0.93130  0.20274  0.84420  1.0000 -0.4592381947
O   O9        1.0  0.04690  0.13845  0.39760  1.0000 -0.6063503432
O   O10       1.0  0.04690  0.36155  0.89760  1.0000 -0.6063503432
O   O11       1.0  0.18142  0.13719  0.38472  1.0000 -0.5106104719
O   O12       1.0  0.18142  0.36281  0.88472  1.0000 -0.5106104719
O   O13       1.0  0.92583  0.32484  0.18013  1.0000 -0.4439625251
O   O14       1.0  0.92583  0.17516  0.68013  1.0000 -0.4439625251
O   O15       1.0  0.82709  0.40435  0.99209  1.0000 -0.5801270214
O   O16       1.0  0.82709  0.09565  0.49209  1.0000 -0.5801270214
O   O17       1.0  0.94477  0.36803  0.00057  1.0000 -0.5801270214
O   O18       1.0  0.94477  0.13197  0.50057  1.0000 -0.5801270214
O   O19       1.0  0.90578  0.40928  0.91868  1.0000 -0.5593699621
O   O20       1.0  0.90578  0.09072  0.41868  1.0000 -0.5593699621
O   O21       1.0  0.00570  0.43509  0.89570  1.0000 -0.4336325037
O   O22       1.0  0.00570  0.06491  0.39570  1.0000 -0.4336325037
O   O23       1.0  0.87048  0.33122  0.91798  1.0000 -0.5694813954
O   O24       1.0  0.87048  0.16878  0.41798  1.0000 -0.5694813954
O   O25       1.0  0.72958  0.35824  0.90358  1.0000 -0.5694813954
O   O26       1.0  0.72958  0.14176  0.40358  1.0000 -0.5694813954
O   O27       1.0  0.41911  0.24265  0.78611  1.0000 -0.4524793881
O   O28       1.0  0.41911  0.25735  0.28611  1.0000 -0.4524793881
O   O29       1.0  0.25848  0.17334  0.66038  1.0000 -0.4720798092
O   O30       1.0  0.25848  0.32666  0.16038  1.0000 -0.4720798092
O   O31       1.0  0.26806  0.10429  0.47426  1.0000 -0.5106104719
O   O32       1.0  0.26806  0.39571  0.97426  1.0000 -0.5106104719
O   O33       1.0  0.11964  0.10047  0.47474  1.0000 -0.6024368512
O   O34       1.0  0.11964  0.39953  0.97474  1.0000 -0.6024368512
O   O35       1.0  0.54912  0.10630  0.84252  1.0000 -0.4592381947
O   O36       1.0  0.54912  0.39370  0.34252  1.0000 -0.4592381947
O   O37       1.0  0.81920  0.97040  0.89420  1.0000 -0.5106104719
O   O38       1.0  0.81920  0.52960  0.39420  1.0000 -0.5106104719
O   O39       1.0  0.67770  0.94871  0.88090  1.0000 -0.5397203042
O   O40       1.0  0.67770  0.55129  0.38090  1.0000 -0.5397203042
O   O41       1.0  0.82017  0.88994  0.88617  1.0000 -0.9746081042
O   O42       1.0  0.82017  0.61006  0.38617  1.0000 -0.9760998892
O   O43       1.0  0.62980  0.84444  0.86760  1.0000 -0.5593699621
O   O44       1.0  0.62980  0.65556  0.36760  1.0000 -0.5593699621
O   O45       1.0  0.75155  0.81088  0.89375  1.0000 -0.548737708
O   O46       1.0  0.75155  0.68912  0.39375  1.0000 -0.548737708
O   O47       1.0  0.45899  0.67715  0.83919  1.0000 -0.4592381947
O   O48       1.0  0.45899  0.82285  0.33919  1.0000 -0.4592381947
O   O49       1.0  0.28636  0.67220  0.65346  1.0000 -0.4891577209
O   O50       1.0  0.28636  0.82780  0.15346  1.0000 -0.4891577209
O   O51       1.0  0.15651  0.62182  0.46301  1.0000 -0.5325805864
O   O52       1.0  0.15651  0.87818  0.96301  1.0000 -0.5325805864
O   O53       1.0  0.99814  0.61649  0.45244  1.0000 -0.6249952721
O   O54       1.0  0.99814  0.88351  0.95244  1.0000 -0.6249952721
O   O55       1.0  0.23800  0.55673  0.74810  1.0000 -0.4439625251
O   O56       1.0  0.23800  0.94327  0.24810  1.0000 -0.4439625251
O   O57       1.0  0.17128  0.43622  0.86238  1.0000 -0.5209457362
O   O58       1.0  0.17128  0.06378  0.36238  1.0000 -0.5209457362
O   O59       1.0  0.22199  0.45987  0.91949  1.0000 -0.5325805864
O   O60       1.0  0.22199  0.04013  0.41949  1.0000 -0.5325805864
O   O61       1.0  0.69620  0.89697  0.94710  1.0000 -0.5209457362
O   O62       1.0  0.69620  0.60303  0.44710  1.0000 -0.5106104719
O   O63       1.0  0.80350  0.86010  0.96290  1.0000 -0.5209457362
O   O64       1.0  0.80350  0.63990  0.46290  1.0000 -0.5209457362
O   O65       1.0  0.74840  0.91864  0.14630  1.0000 -0.4524793881
O   O66       1.0  0.74840  0.58136  0.64630  1.0000 -0.4524793881
O   O67       1.0  0.84715  0.78597  0.22785  1.0000 -0.4891577209
O   O68       1.0  0.84715  0.71403  0.72785  1.0000 -0.4891577209
O   O69       1.0  0.03290  0.65697  0.34420  1.0000 -0.5209457362
O   O70       1.0  0.03290  0.84303  0.84420  1.0000 -0.5106104719
O   O71       1.0  0.98050  0.66655  0.39100  1.0000 -0.5593699621
O   O72       1.0  0.98050  0.83345  0.89100  1.0000 -0.5593699621
O   O73       1.0  0.82347  0.90324  0.32677  1.0000 -0.4524793881
O   O74       1.0  0.82347  0.59676  0.82677  1.0000 -0.4524793881
O   O75       1.0  0.74532  0.03807  0.41712  1.0000 -0.5593699621
O   O76       1.0  0.74532  0.46193  0.91712  1.0000 -0.5694813954
O   O77       1.0  0.68399  0.06810  0.36489  1.0000 -0.548737708
O   O78       1.0  0.68399  0.43190  0.86489  1.0000 -0.548737708
O   O79       1.0  0.86130  0.07878  0.12380  1.0000 -0.5397203042
O   O80       1.0  0.86130  0.42122  0.62380  1.0000 -0.5397203042
O   O81       1.0  0.01206  0.07799  0.12496  1.0000 -0.5801270214
O   O82       1.0  0.01206  0.42201  0.62496  1.0000 -0.5801270214
O   O83       1.0  0.05080  0.91584  0.15470  1.0000 -0.4720798092
O   O84       1.0  0.05080  0.58416  0.65470  1.0000 -0.4720798092
O   O85       1.0  0.06870  0.79726  0.15580  1.0000 -0.4592381947
O   O86       1.0  0.06870  0.70274  0.65580  1.0000 -0.4592381947
O   O87       1.0  0.95310  0.63845  0.10240  1.0000 -0.6063503432
O   O88       1.0  0.95310  0.86155  0.60240  1.0000 -0.6063503432
O   O89       1.0  0.81858  0.63719  0.11528  1.0000 -0.5106104719
O   O90       1.0  0.81858  0.86281  0.61528  1.0000 -0.5106104719
O   O91       1.0  0.07417  0.82484  0.31987  1.0000 -0.4439625251
O   O92       1.0  0.07417  0.67516  0.81987  1.0000 -0.4439625251
O   O93       1.0  0.17291  0.90435  0.50791  1.0000 -0.5801270214
O   O94       1.0  0.17291  0.59565  0.00791  1.0000 -0.5801270214
O   O95       1.0  0.05523  0.86803  0.49943  1.0000 -0.5801270214
O   O96       1.0  0.05523  0.63197  0.99943  1.0000 -0.5801270214
O   O97       1.0  0.09422  0.90928  0.58132  1.0000 -0.5593699621
O   O98       1.0  0.09422  0.59072  0.08132  1.0000 -0.5593699621
O   O99       1.0  0.99430  0.93509  0.60430  1.0000 -0.4336325037
O   O100      1.0  0.99430  0.56491  0.10430  1.0000 -0.4336325037
O   O101      1.0  0.12952  0.83122  0.58202  1.0000 -0.5694813954
O   O102      1.0  0.12952  0.66878  0.08202  1.0000 -0.5694813954
O   O103      1.0  0.27042  0.85824  0.59642  1.0000 -0.5694813954
O   O104      1.0  0.27042  0.64176  0.09642  1.0000 -0.5694813954
O   O105      1.0  0.58089  0.74265  0.71389  1.0000 -0.4524793881
O   O106      1.0  0.58089  0.75735  0.21389  1.0000 -0.4524793881
O   O107      1.0  0.74152  0.67334  0.83962  1.0000 -0.4720798092
O   O108      1.0  0.74152  0.82666  0.33962  1.0000 -0.4720798092
O   O109      1.0  0.73194  0.60429  0.02574  1.0000 -0.504446547
O   O110      1.0  0.73194  0.89571  0.52574  1.0000 -0.5106104719
O   O111      1.0  0.88036  0.60047  0.02526  1.0000 -0.6024368512
O   O112      1.0  0.88036  0.89953  0.52526  1.0000 -0.6024368512
O   O113      1.0  0.45088  0.60630  0.65748  1.0000 -0.4592381947
O   O114      1.0  0.45088  0.89370  0.15748  1.0000 -0.4592381947
O   O115      1.0  0.18080  0.47040  0.60580  1.0000 -0.5106104719
O   O116      1.0  0.18080  0.02960  0.10580  1.0000 -0.5106104719
O   O117      1.0  0.32230  0.44871  0.61910  1.0000 -0.5397203042
O   O118      1.0  0.32230  0.05129  0.11910  1.0000 -0.5397203042
O   O119      1.0  0.17983  0.38994  0.61383  1.0000 -0.9746081042
O   O120      1.0  0.17983  0.11006  0.11383  1.0000 -0.9746081042
O   O121      1.0  0.37020  0.34444  0.63240  1.0000 -0.5593699621
O   O122      1.0  0.37020  0.15556  0.13240  1.0000 -0.5593699621
O   O123      1.0  0.24845  0.31088  0.60625  1.0000 -0.548737708
O   O124      1.0  0.24845  0.18912  0.10625  1.0000 -0.548737708
O   O125      1.0  0.54101  0.17715  0.66081  1.0000 -0.4592381947
O   O126      1.0  0.54101  0.32285  0.16081  1.0000 -0.4592381947
O   O127      1.0  0.71364  0.17220  0.84654  1.0000 -0.4891577209
O   O128      1.0  0.71364  0.32780  0.34654  1.0000 -0.4891577209
O   O129      1.0  0.84349  0.12182  0.03699  1.0000 -0.5325805864
O   O130      1.0  0.84349  0.37818  0.53699  1.0000 -0.5397203042
O   O131      1.0  0.00186  0.11649  0.04756  1.0000 -0.6255601453
O   O132      1.0  0.00186  0.38351  0.54756  1.0000 -0.6255601453
O   O133      1.0  0.76200  0.05673  0.75190  1.0000 -0.4439625251
O   O134      1.0  0.76200  0.44327  0.25190  1.0000 -0.4439625251
O   O135      1.0  0.82872  0.93622  0.63762  1.0000 -0.5209457362
O   O136      1.0  0.82872  0.56378  0.13762  1.0000 -0.5209457362
O   O137      1.0  0.77801  0.95987  0.58051  1.0000 -0.5325805864
O   O138      1.0  0.77801  0.54013  0.08051  1.0000 -0.5325805864
O   O139      1.0  0.30380  0.39697  0.55290  1.0000 -0.5209457362
O   O140      1.0  0.30380  0.10303  0.05290  1.0000 -0.5106104719
O   O141      1.0  0.19650  0.36010  0.53710  1.0000 -0.5209457362
O   O142      1.0  0.19650  0.13990  0.03710  1.0000 -0.5209457362
O   O143      1.0  0.25160  0.41864  0.35370  1.0000 -0.4524793881
O   O144      1.0  0.25160  0.08136  0.85370  1.0000 -0.4524793881
O   O145      1.0  0.15285  0.28597  0.27215  1.0000 -0.4891577209
O   O146      1.0  0.15285  0.21403  0.77215  1.0000 -0.4891577209
O   O147      1.0  0.96710  0.15697  0.15580  1.0000 -0.5209457362
O   O148      1.0  0.96710  0.34303  0.65580  1.0000 -0.5209457362
O   O149      1.0  0.01950  0.16655  0.10900  1.0000 -0.5593699621
O   O150      1.0  0.01950  0.33345  0.60900  1.0000 -0.5593699621
O   O151      1.0  0.17653  0.40324  0.17323  1.0000 -0.4524793881
O   O152      1.0  0.17653  0.09676  0.67323  1.0000 -0.4524793881
O   O153      1.0  0.25468  0.53807  0.08288  1.0000 -0.5694813954
O   O154      1.0  0.25468  0.96193  0.58288  1.0000 -0.5593699621
O   O155      1.0  0.31601  0.56810  0.13511  1.0000 -0.548737708
O   O156      1.0  0.31601  0.93190  0.63511  1.0000 -0.548737708
