# DDEC6 charges by PACMAN v1.1 (https://github.com/mtap-research/PACMAN-charge/)
data_2023[Cd][swi]3[ASR]1
_chemical_formula_sum              "Cd36 H108 C228 S30 N72 O120"
_cell_length_a       22.9654
_cell_length_b       22.9654
_cell_length_c       33.6609
_cell_angle_alpha    90
_cell_angle_beta     90
_cell_angle_gamma    120

_symmetry_space_group_name_H-M    "P 1"
_symmetry_Int_Tables_number       1

loop_
  _symmetry_equiv_pos_as_xyz
  'x, y, z'

loop_
  _atom_site_type_symbol
  _atom_site_label
  _atom_site_symmetry_multiplicity
  _atom_site_fract_x
  _atom_site_fract_y
  _atom_site_fract_z
  _atom_site_occupancy
  _atom_site_charge
Cd  Cd1       1.0  0.82197  0.67794  0.70699  1.0000 0.8620819722
Cd  Cd2       1.0  0.32206  0.14403  0.70699  1.0000 0.8620819722
Cd  Cd3       1.0  0.85597  0.17803  0.70699  1.0000 0.8620819722
Cd  Cd4       1.0  0.17803  0.32206  0.70699  1.0000 0.8620819722
Cd  Cd5       1.0  0.67794  0.85597  0.70699  1.0000 0.8620819722
Cd  Cd6       1.0  0.14403  0.82197  0.70699  1.0000 0.8620819722
Cd  Cd7       1.0  0.32206  0.17803  0.20699  1.0000 0.8620819722
Cd  Cd8       1.0  0.85597  0.67794  0.20699  1.0000 0.8620819722
Cd  Cd9       1.0  0.82197  0.14403  0.20699  1.0000 0.8620819722
Cd  Cd10      1.0  0.67794  0.82197  0.20699  1.0000 0.8620819722
Cd  Cd11      1.0  0.14403  0.32206  0.20699  1.0000 0.8620819722
Cd  Cd12      1.0  0.17803  0.85597  0.20699  1.0000 0.8620819722
Cd  Cd13      1.0  0.87881  0.61935  0.60661  1.0000 0.9013901824
Cd  Cd14      1.0  0.38065  0.25946  0.60661  1.0000 0.9013901824
Cd  Cd15      1.0  0.74054  0.12119  0.60661  1.0000 0.9013901824
Cd  Cd16      1.0  0.12119  0.38065  0.60661  1.0000 0.9013901824
Cd  Cd17      1.0  0.61935  0.74054  0.60661  1.0000 0.9013901824
Cd  Cd18      1.0  0.25946  0.87881  0.60661  1.0000 0.9013901824
Cd  Cd19      1.0  0.38065  0.12119  0.10661  1.0000 0.9013901824
Cd  Cd20      1.0  0.74054  0.61935  0.10661  1.0000 0.9013901824
Cd  Cd21      1.0  0.87881  0.25946  0.10661  1.0000 0.9013901824
Cd  Cd22      1.0  0.61935  0.87881  0.10661  1.0000 0.9013901824
Cd  Cd23      1.0  0.25946  0.38065  0.10661  1.0000 0.9013901824
Cd  Cd24      1.0  0.12119  0.74054  0.10661  1.0000 0.9013901824
Cd  Cd25      1.0  0.98355  0.71457  0.50611  1.0000 0.8461839233
Cd  Cd26      1.0  0.28543  0.26898  0.50611  1.0000 0.8461839233
Cd  Cd27      1.0  0.73102  0.01645  0.50611  1.0000 0.8461839233
Cd  Cd28      1.0  0.01645  0.28543  0.50611  1.0000 0.8461839233
Cd  Cd29      1.0  0.71457  0.73102  0.50611  1.0000 0.8461839233
Cd  Cd30      1.0  0.26898  0.98355  0.50611  1.0000 0.8461839233
Cd  Cd31      1.0  0.28543  0.01645  0.00611  1.0000 0.8461839233
Cd  Cd32      1.0  0.73102  0.71457  0.00611  1.0000 0.8461839233
Cd  Cd33      1.0  0.98355  0.26898  0.00611  1.0000 0.8461839233
Cd  Cd34      1.0  0.71457  0.98355  0.00611  1.0000 0.8461839233
Cd  Cd35      1.0  0.26898  0.28543  0.00611  1.0000 0.8461839233
Cd  Cd36      1.0  0.01645  0.73102  0.00611  1.0000 0.8461839233
H   H1        1.0  0.03814  0.71724  0.63579  1.0000 0.1144563289
H   H2        1.0  0.28276  0.32090  0.63579  1.0000 0.1144563289
H   H3        1.0  0.67910  0.96186  0.63579  1.0000 0.1144563289
H   H4        1.0  0.96186  0.28276  0.63579  1.0000 0.1144563289
H   H5        1.0  0.71724  0.67910  0.63579  1.0000 0.1144563289
H   H6        1.0  0.32090  0.03814  0.63579  1.0000 0.1144563289
H   H7        1.0  0.28276  0.96186  0.13579  1.0000 0.1144563289
H   H8        1.0  0.67910  0.71724  0.13579  1.0000 0.1144563289
H   H9        1.0  0.03814  0.32090  0.13579  1.0000 0.1144563289
H   H10       1.0  0.71724  0.03814  0.13579  1.0000 0.1144563289
H   H11       1.0  0.32090  0.28276  0.13579  1.0000 0.1144563289
H   H12       1.0  0.96186  0.67910  0.13579  1.0000 0.1144563289
H   H13       1.0  0.98304  0.79199  0.71981  1.0000 0.1318133533
H   H14       1.0  0.20801  0.19105  0.71981  1.0000 0.1318133533
H   H15       1.0  0.80895  0.01696  0.71981  1.0000 0.1318133533
H   H16       1.0  0.01696  0.20801  0.71981  1.0000 0.1318133533
H   H17       1.0  0.79199  0.80895  0.71981  1.0000 0.1318133533
H   H18       1.0  0.19105  0.98304  0.71981  1.0000 0.1318133533
H   H19       1.0  0.20801  0.01696  0.21981  1.0000 0.1318133533
H   H20       1.0  0.80895  0.79199  0.21981  1.0000 0.1318133533
H   H21       1.0  0.98304  0.19105  0.21981  1.0000 0.1318133533
H   H22       1.0  0.79199  0.98304  0.21981  1.0000 0.1318133533
H   H23       1.0  0.19105  0.20801  0.21981  1.0000 0.1318133533
H   H24       1.0  0.01696  0.80895  0.21981  1.0000 0.1318133533
H   H25       1.0  0.75831  0.64804  0.57440  1.0000 0.1144563289
H   H26       1.0  0.35196  0.11027  0.57440  1.0000 0.1144563289
H   H27       1.0  0.88973  0.24169  0.57440  1.0000 0.1144563289
H   H28       1.0  0.24169  0.35196  0.57440  1.0000 0.1144563289
H   H29       1.0  0.64804  0.88973  0.57440  1.0000 0.1144563289
H   H30       1.0  0.11027  0.75831  0.57440  1.0000 0.1144563289
H   H31       1.0  0.35196  0.24169  0.07440  1.0000 0.1144563289
H   H32       1.0  0.88973  0.64804  0.07440  1.0000 0.1144563289
H   H33       1.0  0.75831  0.11027  0.07440  1.0000 0.1144563289
H   H34       1.0  0.64804  0.75831  0.07440  1.0000 0.1144563289
H   H35       1.0  0.11027  0.35196  0.07440  1.0000 0.1144563289
H   H36       1.0  0.24169  0.88973  0.07440  1.0000 0.1144563289
H   H37       1.0  0.86816  0.75919  0.48832  1.0000 0.1236232494
H   H38       1.0  0.24081  0.10897  0.48832  1.0000 0.1236232494
H   H39       1.0  0.89103  0.13184  0.48832  1.0000 0.1236232494
H   H40       1.0  0.13184  0.24081  0.48832  1.0000 0.1236232494
H   H41       1.0  0.75919  0.89103  0.48832  1.0000 0.1236232494
H   H42       1.0  0.10897  0.86816  0.48832  1.0000 0.1236232494
H   H43       1.0  0.24081  0.13184  0.98832  1.0000 0.1236232494
H   H44       1.0  0.89103  0.75919  0.98832  1.0000 0.1236232494
H   H45       1.0  0.86816  0.10897  0.98832  1.0000 0.1236232494
H   H46       1.0  0.75919  0.86816  0.98832  1.0000 0.1236232494
H   H47       1.0  0.10897  0.24081  0.98832  1.0000 0.1236232494
H   H48       1.0  0.13184  0.89103  0.98832  1.0000 0.1236232494
H   H49       1.0  0.79352  0.37314  0.55942  1.0000 0.1432865684
H   H50       1.0  0.62686  0.42038  0.55942  1.0000 0.1432865684
H   H51       1.0  0.57962  0.20648  0.55942  1.0000 0.1432865684
H   H52       1.0  0.20648  0.62686  0.55942  1.0000 0.1432865684
H   H53       1.0  0.37314  0.57962  0.55942  1.0000 0.1432865684
H   H54       1.0  0.42038  0.79352  0.55942  1.0000 0.1432865684
H   H55       1.0  0.62686  0.20648  0.05942  1.0000 0.1432865684
H   H56       1.0  0.57962  0.37314  0.05942  1.0000 0.1432865684
H   H57       1.0  0.79352  0.42038  0.05942  1.0000 0.1432865684
H   H58       1.0  0.37314  0.79352  0.05942  1.0000 0.1432865684
H   H59       1.0  0.42038  0.62686  0.05942  1.0000 0.1432865684
H   H60       1.0  0.20648  0.57962  0.05942  1.0000 0.1432865684
H   H61       1.0  0.79181  0.27373  0.58215  1.0000 0.1318133533
H   H62       1.0  0.72627  0.51808  0.58215  1.0000 0.1318133533
H   H63       1.0  0.48192  0.20819  0.58215  1.0000 0.1318133533
H   H64       1.0  0.20819  0.72627  0.58215  1.0000 0.1318133533
H   H65       1.0  0.27373  0.48192  0.58215  1.0000 0.1318133533
H   H66       1.0  0.51808  0.79181  0.58215  1.0000 0.1318133533
H   H67       1.0  0.72627  0.20819  0.08215  1.0000 0.1318133533
H   H68       1.0  0.48192  0.27373  0.08215  1.0000 0.1318133533
H   H69       1.0  0.79181  0.51808  0.08215  1.0000 0.1318133533
H   H70       1.0  0.27373  0.79181  0.08215  1.0000 0.1318133533
H   H71       1.0  0.51808  0.72627  0.08215  1.0000 0.1318133533
H   H72       1.0  0.20819  0.48192  0.08215  1.0000 0.1318133533
H   H73       1.0  0.99432  0.54878  0.61864  1.0000 0.1318133533
H   H74       1.0  0.45122  0.44554  0.61864  1.0000 0.1318133533
H   H75       1.0  0.55446  0.00568  0.61864  1.0000 0.1318133533
H   H76       1.0  0.00568  0.45122  0.61864  1.0000 0.1318133533
H   H77       1.0  0.54878  0.55446  0.61864  1.0000 0.1318133533
H   H78       1.0  0.44554  0.99432  0.61864  1.0000 0.1318133533
H   H79       1.0  0.45122  0.00568  0.11864  1.0000 0.1318133533
H   H80       1.0  0.55446  0.54878  0.11864  1.0000 0.1318133533
H   H81       1.0  0.99432  0.44554  0.11864  1.0000 0.1318133533
H   H82       1.0  0.54878  0.99432  0.11864  1.0000 0.1318133533
H   H83       1.0  0.44554  0.45122  0.11864  1.0000 0.1318133533
H   H84       1.0  0.00568  0.55446  0.11864  1.0000 0.1318133533
H   H85       1.0  0.93694  0.84899  0.39925  1.0000 0.1318133533
H   H86       1.0  0.15101  0.08795  0.39925  1.0000 0.1318133533
H   H87       1.0  0.91205  0.06306  0.39925  1.0000 0.1318133533
H   H88       1.0  0.06306  0.15101  0.39925  1.0000 0.1318133533
H   H89       1.0  0.84899  0.91205  0.39925  1.0000 0.1318133533
H   H90       1.0  0.08795  0.93694  0.39925  1.0000 0.1318133533
H   H91       1.0  0.15101  0.06306  0.89925  1.0000 0.1318133533
H   H92       1.0  0.91205  0.84899  0.89925  1.0000 0.1318133533
H   H93       1.0  0.93694  0.08795  0.89925  1.0000 0.1318133533
H   H94       1.0  0.84899  0.93694  0.89925  1.0000 0.1318133533
H   H95       1.0  0.08795  0.15101  0.89925  1.0000 0.1318133533
H   H96       1.0  0.06306  0.91205  0.89925  1.0000 0.1318133533
H   H97       1.0  0.90293  0.84019  0.33047  1.0000 0.1318133533
H   H98       1.0  0.15981  0.06274  0.33047  1.0000 0.1318133533
H   H99       1.0  0.93726  0.09707  0.33047  1.0000 0.1318133533
H   H100      1.0  0.09707  0.15981  0.33047  1.0000 0.1318133533
H   H101      1.0  0.84019  0.93726  0.33047  1.0000 0.1318133533
H   H102      1.0  0.06274  0.90293  0.33047  1.0000 0.1318133533
H   H103      1.0  0.15981  0.09707  0.83047  1.0000 0.1318133533
H   H104      1.0  0.93726  0.84019  0.83047  1.0000 0.1318133533
H   H105      1.0  0.90293  0.06274  0.83047  1.0000 0.1318133533
H   H106      1.0  0.84019  0.90293  0.83047  1.0000 0.1318133533
H   H107      1.0  0.06274  0.15981  0.83047  1.0000 0.1318133533
H   H108      1.0  0.09707  0.93726  0.83047  1.0000 0.1318133533
C   C1        1.0  0.01250  0.72770  0.65260  1.0000 0.1705150082
C   C2        1.0  0.27230  0.28480  0.65260  1.0000 0.1705150082
C   C3        1.0  0.71520  0.98750  0.65260  1.0000 0.1705150082
C   C4        1.0  0.98750  0.27230  0.65260  1.0000 0.1705150082
C   C5        1.0  0.72770  0.71520  0.65260  1.0000 0.1705150082
C   C6        1.0  0.28480  0.01250  0.65260  1.0000 0.1705150082
C   C7        1.0  0.27230  0.98750  0.15260  1.0000 0.1705150082
C   C8        1.0  0.71520  0.72770  0.15260  1.0000 0.1705150082
C   C9        1.0  0.01250  0.28480  0.15260  1.0000 0.1705150082
C   C10       1.0  0.72770  0.01250  0.15260  1.0000 0.1705150082
C   C11       1.0  0.28480  0.27230  0.15260  1.0000 0.1705150082
C   C12       1.0  0.98750  0.71520  0.15260  1.0000 0.1705150082
C   C13       1.0  0.98180  0.76700  0.69770  1.0000 0.1705150082
C   C14       1.0  0.23300  0.21480  0.69770  1.0000 0.1705150082
C   C15       1.0  0.78520  0.01820  0.69770  1.0000 0.1705150082
C   C16       1.0  0.01820  0.23300  0.69770  1.0000 0.1705150082
C   C17       1.0  0.76700  0.78520  0.69770  1.0000 0.1705150082
C   C18       1.0  0.21480  0.98180  0.69770  1.0000 0.1705150082
C   C19       1.0  0.23300  0.01820  0.19770  1.0000 0.1705150082
C   C20       1.0  0.78520  0.76700  0.19770  1.0000 0.1705150082
C   C21       1.0  0.98180  0.21480  0.19770  1.0000 0.1705150082
C   C22       1.0  0.76700  0.98180  0.19770  1.0000 0.1705150082
C   C23       1.0  0.21480  0.23300  0.19770  1.0000 0.1705150082
C   C24       1.0  0.01820  0.78520  0.19770  1.0000 0.1705150082
C   C25       1.0  0.79400  0.67040  0.55680  1.0000 0.1529666458
C   C26       1.0  0.32960  0.12360  0.55680  1.0000 0.1529666458
C   C27       1.0  0.87640  0.20600  0.55680  1.0000 0.1529666458
C   C28       1.0  0.20600  0.32960  0.55680  1.0000 0.1529666458
C   C29       1.0  0.67040  0.87640  0.55680  1.0000 0.1529666458
C   C30       1.0  0.12360  0.79400  0.55680  1.0000 0.1529666458
C   C31       1.0  0.32960  0.20600  0.05680  1.0000 0.1529666458
C   C32       1.0  0.87640  0.67040  0.05680  1.0000 0.1529666458
C   C33       1.0  0.79400  0.12360  0.05680  1.0000 0.1529666458
C   C34       1.0  0.67040  0.79400  0.05680  1.0000 0.1529666458
C   C35       1.0  0.12360  0.32960  0.05680  1.0000 0.1529666458
C   C36       1.0  0.20600  0.87640  0.05680  1.0000 0.1529666458
C   C37       1.0  0.85260  0.73070  0.51020  1.0000 0.1705150082
C   C38       1.0  0.26930  0.12190  0.51020  1.0000 0.1705150082
C   C39       1.0  0.87810  0.14740  0.51020  1.0000 0.1705150082
C   C40       1.0  0.14740  0.26930  0.51020  1.0000 0.1705150082
C   C41       1.0  0.73070  0.87810  0.51020  1.0000 0.1705150082
C   C42       1.0  0.12190  0.85260  0.51020  1.0000 0.1705150082
C   C43       1.0  0.26930  0.14740  0.01020  1.0000 0.1705150082
C   C44       1.0  0.87810  0.73070  0.01020  1.0000 0.1705150082
C   C45       1.0  0.85260  0.12190  0.01020  1.0000 0.1705150082
C   C46       1.0  0.73070  0.85260  0.01020  1.0000 0.1705150082
C   C47       1.0  0.12190  0.26930  0.01020  1.0000 0.1705150082
C   C48       1.0  0.14740  0.87810  0.01020  1.0000 0.1705150082
C   C49       1.0  0.84600  0.49100  0.61050  1.0000 0.5587576006
C   C50       1.0  0.50900  0.35500  0.61050  1.0000 0.5587576006
C   C51       1.0  0.64500  0.15400  0.61050  1.0000 0.5587576006
C   C52       1.0  0.15400  0.50900  0.61050  1.0000 0.5587576006
C   C53       1.0  0.49100  0.64500  0.61050  1.0000 0.5587576006
C   C54       1.0  0.35500  0.84600  0.61050  1.0000 0.5587576006
C   C55       1.0  0.50900  0.15400  0.11050  1.0000 0.5587576006
C   C56       1.0  0.64500  0.49100  0.11050  1.0000 0.5587576006
C   C57       1.0  0.84600  0.35500  0.11050  1.0000 0.5587576006
C   C58       1.0  0.49100  0.84600  0.11050  1.0000 0.5587576006
C   C59       1.0  0.35500  0.50900  0.11050  1.0000 0.5587576006
C   C60       1.0  0.15400  0.64500  0.11050  1.0000 0.5587576006
C   C61       1.0  0.83370  0.42050  0.61190  1.0000 -0.0776273807
C   C62       1.0  0.57950  0.41320  0.61190  1.0000 -0.0776273807
C   C63       1.0  0.58680  0.16630  0.61190  1.0000 -0.0776273807
C   C64       1.0  0.16630  0.57950  0.61190  1.0000 -0.0776273807
C   C65       1.0  0.42050  0.58680  0.61190  1.0000 -0.0776273807
C   C66       1.0  0.41320  0.83370  0.61190  1.0000 -0.0776273807
C   C67       1.0  0.57950  0.16630  0.11190  1.0000 -0.0776273807
C   C68       1.0  0.58680  0.42050  0.11190  1.0000 -0.0776273807
C   C69       1.0  0.83370  0.41320  0.11190  1.0000 -0.0776273807
C   C70       1.0  0.42050  0.83370  0.11190  1.0000 -0.0776273807
C   C71       1.0  0.41320  0.57950  0.11190  1.0000 -0.0776273807
C   C72       1.0  0.16630  0.58680  0.11190  1.0000 -0.0776273807
C   C73       1.0  0.80830  0.36930  0.58450  1.0000 -0.122230206
C   C74       1.0  0.63070  0.43900  0.58450  1.0000 -0.122230206
C   C75       1.0  0.56100  0.19170  0.58450  1.0000 -0.122230206
C   C76       1.0  0.19170  0.63070  0.58450  1.0000 -0.122230206
C   C77       1.0  0.36930  0.56100  0.58450  1.0000 -0.122230206
C   C78       1.0  0.43900  0.80830  0.58450  1.0000 -0.122230206
C   C79       1.0  0.63070  0.19170  0.08450  1.0000 -0.122230206
C   C80       1.0  0.56100  0.36930  0.08450  1.0000 -0.122230206
C   C81       1.0  0.80830  0.43900  0.08450  1.0000 -0.122230206
C   C82       1.0  0.36930  0.80830  0.08450  1.0000 -0.122230206
C   C83       1.0  0.43900  0.63070  0.08450  1.0000 -0.122230206
C   C84       1.0  0.19170  0.56100  0.08450  1.0000 -0.122230206
C   C85       1.0  0.80680  0.31220  0.59760  1.0000 -0.1109332267
C   C86       1.0  0.68780  0.49460  0.59760  1.0000 -0.1109332267
C   C87       1.0  0.50540  0.19320  0.59760  1.0000 -0.1109332267
C   C88       1.0  0.19320  0.68780  0.59760  1.0000 -0.1109332267
C   C89       1.0  0.31220  0.50540  0.59760  1.0000 -0.1109332267
C   C90       1.0  0.49460  0.80680  0.59760  1.0000 -0.1109332267
C   C91       1.0  0.68780  0.19320  0.09760  1.0000 -0.1109332267
C   C92       1.0  0.50540  0.31220  0.09760  1.0000 -0.1109332267
C   C93       1.0  0.80680  0.49460  0.09760  1.0000 -0.1109332267
C   C94       1.0  0.31220  0.80680  0.09760  1.0000 -0.1109332267
C   C95       1.0  0.49460  0.68780  0.09760  1.0000 -0.1109332267
C   C96       1.0  0.19320  0.50540  0.09760  1.0000 -0.1109332267
C   C97       1.0  0.82940  0.31750  0.63540  1.0000 -0.122230206
C   C98       1.0  0.68250  0.51190  0.63540  1.0000 -0.122230206
C   C99       1.0  0.48810  0.17060  0.63540  1.0000 -0.122230206
C   C100      1.0  0.17060  0.68250  0.63540  1.0000 -0.122230206
C   C101      1.0  0.31750  0.48810  0.63540  1.0000 -0.122230206
C   C102      1.0  0.51190  0.82940  0.63540  1.0000 -0.122230206
C   C103      1.0  0.68250  0.17060  0.13540  1.0000 -0.122230206
C   C104      1.0  0.48810  0.31750  0.13540  1.0000 -0.122230206
C   C105      1.0  0.82940  0.51190  0.13540  1.0000 -0.122230206
C   C106      1.0  0.31750  0.82940  0.13540  1.0000 -0.122230206
C   C107      1.0  0.51190  0.68250  0.13540  1.0000 -0.122230206
C   C108      1.0  0.17060  0.48810  0.13540  1.0000 -0.122230206
C   C109      1.0  0.83670  0.26740  0.65950  1.0000 0.5877370113
C   C110      1.0  0.73260  0.56930  0.65950  1.0000 0.5877370113
C   C111      1.0  0.43070  0.16330  0.65950  1.0000 0.5877370113
C   C112      1.0  0.16330  0.73260  0.65950  1.0000 0.5877370113
C   C113      1.0  0.26740  0.43070  0.65950  1.0000 0.5877370113
C   C114      1.0  0.56930  0.83670  0.65950  1.0000 0.5877370113
C   C115      1.0  0.73260  0.16330  0.15950  1.0000 0.5877370113
C   C116      1.0  0.43070  0.26740  0.15950  1.0000 0.5877370113
C   C117      1.0  0.83670  0.56930  0.15950  1.0000 0.5877370113
C   C118      1.0  0.26740  0.83670  0.15950  1.0000 0.5877370113
C   C119      1.0  0.56930  0.73260  0.15950  1.0000 0.5877370113
C   C120      1.0  0.16330  0.43070  0.15950  1.0000 0.5877370113
C   C121      1.0  0.98790  0.60830  0.54510  1.0000 0.5778624688
C   C122      1.0  0.39170  0.37960  0.54510  1.0000 0.5778624688
C   C123      1.0  0.62040  0.01210  0.54510  1.0000 0.5778624688
C   C124      1.0  0.01210  0.39170  0.54510  1.0000 0.5778624688
C   C125      1.0  0.60830  0.62040  0.54510  1.0000 0.5778624688
C   C126      1.0  0.37960  0.98790  0.54510  1.0000 0.5778624688
C   C127      1.0  0.39170  0.01210  0.04510  1.0000 0.5778624688
C   C128      1.0  0.62040  0.60830  0.04510  1.0000 0.5778624688
C   C129      1.0  0.98790  0.37960  0.04510  1.0000 0.5778624688
C   C130      1.0  0.60830  0.98790  0.04510  1.0000 0.5778624688
C   C131      1.0  0.37960  0.39170  0.04510  1.0000 0.5778624688
C   C132      1.0  0.01210  0.62040  0.04510  1.0000 0.5778624688
C   C133      1.0  0.99470  0.55200  0.55780  1.0000 -0.1356417016
C   C134      1.0  0.44800  0.44270  0.55780  1.0000 -0.1356417016
C   C135      1.0  0.55730  0.00530  0.55780  1.0000 -0.1356417016
C   C136      1.0  0.00530  0.44800  0.55780  1.0000 -0.1356417016
C   C137      1.0  0.55200  0.55730  0.55780  1.0000 -0.1356417016
C   C138      1.0  0.44270  0.99470  0.55780  1.0000 -0.1356417016
C   C139      1.0  0.44800  0.00530  0.05780  1.0000 -0.1356417016
C   C140      1.0  0.55730  0.55200  0.05780  1.0000 -0.1356417016
C   C141      1.0  0.99470  0.44270  0.05780  1.0000 -0.1356417016
C   C142      1.0  0.55200  0.99470  0.05780  1.0000 -0.1356417016
C   C143      1.0  0.44270  0.44800  0.05780  1.0000 -0.1356417016
C   C144      1.0  0.00530  0.55730  0.05780  1.0000 -0.1356417016
C   C145      1.0  0.99690  0.52820  0.59540  1.0000 -0.1109332267
C   C146      1.0  0.47180  0.46870  0.59540  1.0000 -0.1109332267
C   C147      1.0  0.53130  0.00310  0.59540  1.0000 -0.1109332267
C   C148      1.0  0.00310  0.47180  0.59540  1.0000 -0.1109332267
C   C149      1.0  0.52820  0.53130  0.59540  1.0000 -0.1109332267
C   C150      1.0  0.46870  0.99690  0.59540  1.0000 -0.1109332267
C   C151      1.0  0.47180  0.00310  0.09540  1.0000 -0.1109332267
C   C152      1.0  0.53130  0.52820  0.09540  1.0000 -0.1109332267
C   C153      1.0  0.99690  0.46870  0.09540  1.0000 -0.1109332267
C   C154      1.0  0.52820  0.99690  0.09540  1.0000 -0.1109332267
C   C155      1.0  0.46870  0.47180  0.09540  1.0000 -0.1109332267
C   C156      1.0  0.00310  0.53130  0.09540  1.0000 -0.1109332267
C   C157      1.0  0.96840  0.75710  0.43310  1.0000 0.5587576006
C   C158      1.0  0.24290  0.21130  0.43310  1.0000 0.5587576006
C   C159      1.0  0.78870  0.03160  0.43310  1.0000 0.5587576006
C   C160      1.0  0.03160  0.24290  0.43310  1.0000 0.5587576006
C   C161      1.0  0.75710  0.78870  0.43310  1.0000 0.5587576006
C   C162      1.0  0.21130  0.96840  0.43310  1.0000 0.5587576006
C   C163      1.0  0.24290  0.03160  0.93310  1.0000 0.5587576006
C   C164      1.0  0.78870  0.75710  0.93310  1.0000 0.5587576006
C   C165      1.0  0.96840  0.21130  0.93310  1.0000 0.5587576006
C   C166      1.0  0.75710  0.96840  0.93310  1.0000 0.5587576006
C   C167      1.0  0.21130  0.24290  0.93310  1.0000 0.5587576006
C   C168      1.0  0.03160  0.78870  0.93310  1.0000 0.5587576006
C   C169      1.0  0.95100  0.76960  0.39340  1.0000 -0.129694452
C   C170      1.0  0.23040  0.18140  0.39340  1.0000 -0.129694452
C   C171      1.0  0.81860  0.04900  0.39340  1.0000 -0.129694452
C   C172      1.0  0.04900  0.23040  0.39340  1.0000 -0.129694452
C   C173      1.0  0.76960  0.81860  0.39340  1.0000 -0.129694452
C   C174      1.0  0.18140  0.95100  0.39340  1.0000 -0.129694452
C   C175      1.0  0.23040  0.04900  0.89340  1.0000 -0.129694452
C   C176      1.0  0.81860  0.76960  0.89340  1.0000 -0.129694452
C   C177      1.0  0.95100  0.18140  0.89340  1.0000 -0.129694452
C   C178      1.0  0.76960  0.95100  0.89340  1.0000 -0.129694452
C   C179      1.0  0.18140  0.23040  0.89340  1.0000 -0.129694452
C   C180      1.0  0.04900  0.81860  0.89340  1.0000 -0.129694452
C   C181      1.0  0.93500  0.81630  0.38210  1.0000 -0.0986694635
C   C182      1.0  0.18370  0.11870  0.38210  1.0000 -0.0986694635
C   C183      1.0  0.88130  0.06500  0.38210  1.0000 -0.0986694635
C   C184      1.0  0.06500  0.18370  0.38210  1.0000 -0.0986694635
C   C185      1.0  0.81630  0.88130  0.38210  1.0000 -0.0986694635
C   C186      1.0  0.11870  0.93500  0.38210  1.0000 -0.0986694635
C   C187      1.0  0.18370  0.06500  0.88210  1.0000 -0.0986694635
C   C188      1.0  0.88130  0.81630  0.88210  1.0000 -0.0986694635
C   C189      1.0  0.93500  0.11870  0.88210  1.0000 -0.0986694635
C   C190      1.0  0.81630  0.93500  0.88210  1.0000 -0.0986694635
C   C191      1.0  0.11870  0.18370  0.88210  1.0000 -0.0986694635
C   C192      1.0  0.06500  0.88130  0.88210  1.0000 -0.0986694635
C   C193      1.0  0.91530  0.81150  0.34240  1.0000 -0.1109332267
C   C194      1.0  0.18850  0.10380  0.34240  1.0000 -0.1109332267
C   C195      1.0  0.89620  0.08470  0.34240  1.0000 -0.1109332267
C   C196      1.0  0.08470  0.18850  0.34240  1.0000 -0.1109332267
C   C197      1.0  0.81150  0.89620  0.34240  1.0000 -0.1109332267
C   C198      1.0  0.10380  0.91530  0.34240  1.0000 -0.1109332267
C   C199      1.0  0.18850  0.08470  0.84240  1.0000 -0.1109332267
C   C200      1.0  0.89620  0.81150  0.84240  1.0000 -0.1109332267
C   C201      1.0  0.91530  0.10380  0.84240  1.0000 -0.1109332267
C   C202      1.0  0.81150  0.91530  0.84240  1.0000 -0.1109332267
C   C203      1.0  0.10380  0.18850  0.84240  1.0000 -0.1109332267
C   C204      1.0  0.08470  0.89620  0.84240  1.0000 -0.1109332267
C   C205      1.0  0.91640  0.75950  0.32300  1.0000 -0.0986694635
C   C206      1.0  0.24050  0.15690  0.32300  1.0000 -0.0986694635
C   C207      1.0  0.84310  0.08360  0.32300  1.0000 -0.0986694635
C   C208      1.0  0.08360  0.24050  0.32300  1.0000 -0.0986694635
C   C209      1.0  0.75950  0.84310  0.32300  1.0000 -0.0986694635
C   C210      1.0  0.15690  0.91640  0.32300  1.0000 -0.0986694635
C   C211      1.0  0.24050  0.08360  0.82300  1.0000 -0.0986694635
C   C212      1.0  0.84310  0.75950  0.82300  1.0000 -0.0986694635
C   C213      1.0  0.91640  0.15690  0.82300  1.0000 -0.0986694635
C   C214      1.0  0.75950  0.91640  0.82300  1.0000 -0.0986694635
C   C215      1.0  0.15690  0.24050  0.82300  1.0000 -0.0986694635
C   C216      1.0  0.08360  0.84310  0.82300  1.0000 -0.0986694635
C   C217      1.0  0.89900  0.73730  0.28060  1.0000 0.5702929919
C   C218      1.0  0.26270  0.16170  0.28060  1.0000 0.5702929919
C   C219      1.0  0.83830  0.10100  0.28060  1.0000 0.5702929919
C   C220      1.0  0.10100  0.26270  0.28060  1.0000 0.5702929919
C   C221      1.0  0.73730  0.83830  0.28060  1.0000 0.5702929919
C   C222      1.0  0.16170  0.89900  0.28060  1.0000 0.5702929919
C   C223      1.0  0.26270  0.10100  0.78060  1.0000 0.5702929919
C   C224      1.0  0.83830  0.73730  0.78060  1.0000 0.5702929919
C   C225      1.0  0.89900  0.16170  0.78060  1.0000 0.5702929919
C   C226      1.0  0.73730  0.89900  0.78060  1.0000 0.5702929919
C   C227      1.0  0.16170  0.26270  0.78060  1.0000 0.5702929919
C   C228      1.0  0.10100  0.83830  0.78060  1.0000 0.5702929919
S   S1        1.0  0.85374  0.39408  0.65536  1.0000 0.1870018778
S   S2        1.0  0.60592  0.45966  0.65536  1.0000 0.1870018778
S   S3        1.0  0.54034  0.14626  0.65536  1.0000 0.1870018778
S   S4        1.0  0.14626  0.60592  0.65536  1.0000 0.1870018778
S   S5        1.0  0.39408  0.54034  0.65536  1.0000 0.1870018778
S   S6        1.0  0.45966  0.85374  0.65536  1.0000 0.1870018778
S   S7        1.0  0.60592  0.14626  0.15536  1.0000 0.1870018778
S   S8        1.0  0.54034  0.39408  0.15536  1.0000 0.1870018778
S   S9        1.0  0.85374  0.45966  0.15536  1.0000 0.1870018778
S   S10       1.0  0.39408  0.85374  0.15536  1.0000 0.1870018778
S   S11       1.0  0.45966  0.60592  0.15536  1.0000 0.1870018778
S   S12       1.0  0.14626  0.54034  0.15536  1.0000 0.1870018778
S   S13       1.0  0.00000  0.50000  0.52300  1.0000 0.2111546693
S   S14       1.0  0.50000  0.50000  0.52300  1.0000 0.2111546693
S   S15       1.0  0.50000  0.00000  0.52300  1.0000 0.2111546693
S   S16       1.0  0.50000  0.00000  0.02300  1.0000 0.2111546693
S   S17       1.0  0.50000  0.50000  0.02300  1.0000 0.2111546693
S   S18       1.0  0.00000  0.50000  0.02300  1.0000 0.2111546693
S   S19       1.0  0.93910  0.71669  0.35463  1.0000 0.2160093014
S   S20       1.0  0.28331  0.22241  0.35463  1.0000 0.2111546693
S   S21       1.0  0.77759  0.06090  0.35463  1.0000 0.2160093014
S   S22       1.0  0.06090  0.28331  0.35463  1.0000 0.2111546693
S   S23       1.0  0.71669  0.77759  0.35463  1.0000 0.2160093014
S   S24       1.0  0.22241  0.93910  0.35463  1.0000 0.2111546693
S   S25       1.0  0.28331  0.06090  0.85463  1.0000 0.2111546693
S   S26       1.0  0.77759  0.71669  0.85463  1.0000 0.2160093014
S   S27       1.0  0.93910  0.22241  0.85463  1.0000 0.2327885305
S   S28       1.0  0.71669  0.93910  0.85463  1.0000 0.2111546693
S   S29       1.0  0.22241  0.28331  0.85463  1.0000 0.2111546693
S   S30       1.0  0.06090  0.77759  0.85463  1.0000 0.2111546693
N   N1        1.0  0.94640  0.69940  0.64990  1.0000 -0.1979260549
N   N2        1.0  0.30060  0.24700  0.64990  1.0000 -0.1979260549
N   N3        1.0  0.75300  0.05360  0.64990  1.0000 -0.1979260549
N   N4        1.0  0.05360  0.30060  0.64990  1.0000 -0.1979260549
N   N5        1.0  0.69940  0.75300  0.64990  1.0000 -0.1979260549
N   N6        1.0  0.24700  0.94640  0.64990  1.0000 -0.1979260549
N   N7        1.0  0.30060  0.05360  0.14990  1.0000 -0.1979260549
N   N8        1.0  0.75300  0.69940  0.14990  1.0000 -0.1979260549
N   N9        1.0  0.94640  0.24700  0.14990  1.0000 -0.1979260549
N   N10       1.0  0.69940  0.94640  0.14990  1.0000 -0.1979260549
N   N11       1.0  0.24700  0.30060  0.14990  1.0000 -0.1979260549
N   N12       1.0  0.05360  0.75300  0.14990  1.0000 -0.1979260549
N   N13       1.0  0.92640  0.72510  0.68060  1.0000 -0.1979260549
N   N14       1.0  0.27490  0.20130  0.68060  1.0000 -0.1979260549
N   N15       1.0  0.79870  0.07360  0.68060  1.0000 -0.1979260549
N   N16       1.0  0.07360  0.27490  0.68060  1.0000 -0.1979260549
N   N17       1.0  0.72510  0.79870  0.68060  1.0000 -0.1979260549
N   N18       1.0  0.20130  0.92640  0.68060  1.0000 -0.1979260549
N   N19       1.0  0.27490  0.07360  0.18060  1.0000 -0.1979260549
N   N20       1.0  0.79870  0.72510  0.18060  1.0000 -0.1979260549
N   N21       1.0  0.92640  0.20130  0.18060  1.0000 -0.1979260549
N   N22       1.0  0.72510  0.92640  0.18060  1.0000 -0.1979260549
N   N23       1.0  0.20130  0.27490  0.18060  1.0000 -0.1979260549
N   N24       1.0  0.07360  0.79870  0.18060  1.0000 -0.1979260549
N   N25       1.0  0.03840  0.77240  0.68140  1.0000 -0.3335498994
N   N26       1.0  0.22760  0.26600  0.68140  1.0000 -0.3335498994
N   N27       1.0  0.73400  0.96160  0.68140  1.0000 -0.3335498994
N   N28       1.0  0.96160  0.22760  0.68140  1.0000 -0.3335498994
N   N29       1.0  0.77240  0.73400  0.68140  1.0000 -0.3335498994
N   N30       1.0  0.26600  0.03840  0.68140  1.0000 -0.3335498994
N   N31       1.0  0.22760  0.96160  0.18140  1.0000 -0.3335498994
N   N32       1.0  0.73400  0.77240  0.18140  1.0000 -0.3335498994
N   N33       1.0  0.03840  0.26600  0.18140  1.0000 -0.3335498994
N   N34       1.0  0.77240  0.03840  0.18140  1.0000 -0.3335498994
N   N35       1.0  0.26600  0.22760  0.18140  1.0000 -0.3335498994
N   N36       1.0  0.96160  0.73400  0.18140  1.0000 -0.3335498994
N   N37       1.0  0.84800  0.66570  0.55870  1.0000 -0.1979260549
N   N38       1.0  0.33430  0.18230  0.55870  1.0000 -0.1979260549
N   N39       1.0  0.81770  0.15200  0.55870  1.0000 -0.1979260549
N   N40       1.0  0.15200  0.33430  0.55870  1.0000 -0.1979260549
N   N41       1.0  0.66570  0.81770  0.55870  1.0000 -0.1979260549
N   N42       1.0  0.18230  0.84800  0.55870  1.0000 -0.1979260549
N   N43       1.0  0.33430  0.15200  0.05870  1.0000 -0.1979260549
N   N44       1.0  0.81770  0.66570  0.05870  1.0000 -0.1979260549
N   N45       1.0  0.84800  0.18230  0.05870  1.0000 -0.1979260549
N   N46       1.0  0.66570  0.84800  0.05870  1.0000 -0.1979260549
N   N47       1.0  0.18230  0.33430  0.05870  1.0000 -0.1979260549
N   N48       1.0  0.15200  0.81770  0.05870  1.0000 -0.1979260549
N   N49       1.0  0.88810  0.70630  0.52770  1.0000 -0.2153370903
N   N50       1.0  0.29370  0.18180  0.52770  1.0000 -0.2153370903
N   N51       1.0  0.81820  0.11190  0.52770  1.0000 -0.2153370903
N   N52       1.0  0.11190  0.29370  0.52770  1.0000 -0.2153370903
N   N53       1.0  0.70630  0.81820  0.52770  1.0000 -0.2153370903
N   N54       1.0  0.18180  0.88810  0.52770  1.0000 -0.2153370903
N   N55       1.0  0.29370  0.11190  0.02770  1.0000 -0.2153370903
N   N56       1.0  0.81820  0.70630  0.02770  1.0000 -0.2153370903
N   N57       1.0  0.88810  0.18180  0.02770  1.0000 -0.2153370903
N   N58       1.0  0.70630  0.88810  0.02770  1.0000 -0.2153370903
N   N59       1.0  0.18180  0.29370  0.02770  1.0000 -0.2153370903
N   N60       1.0  0.11190  0.81820  0.02770  1.0000 -0.2153370903
N   N61       1.0  0.79330  0.71090  0.52680  1.0000 -0.3428242828
N   N62       1.0  0.28910  0.08240  0.52680  1.0000 -0.3428242828
N   N63       1.0  0.91760  0.20670  0.52680  1.0000 -0.3428242828
N   N64       1.0  0.20670  0.28910  0.52680  1.0000 -0.3428242828
N   N65       1.0  0.71090  0.91760  0.52680  1.0000 -0.3428242828
N   N66       1.0  0.08240  0.79330  0.52680  1.0000 -0.3428242828
N   N67       1.0  0.28910  0.20670  0.02680  1.0000 -0.3428242828
N   N68       1.0  0.91760  0.71090  0.02680  1.0000 -0.3428242828
N   N69       1.0  0.79330  0.08240  0.02680  1.0000 -0.3428242828
N   N70       1.0  0.71090  0.79330  0.02680  1.0000 -0.3428242828
N   N71       1.0  0.08240  0.28910  0.02680  1.0000 -0.3428242828
N   N72       1.0  0.20670  0.91760  0.02680  1.0000 -0.3428242828
O   O1        1.0  0.86800  0.52730  0.64060  1.0000 -0.5318351711
O   O2        1.0  0.47270  0.34070  0.64060  1.0000 -0.5318351711
O   O3        1.0  0.65930  0.13200  0.64060  1.0000 -0.5318351711
O   O4        1.0  0.13200  0.47270  0.64060  1.0000 -0.5318351711
O   O5        1.0  0.52730  0.65930  0.64060  1.0000 -0.5318351711
O   O6        1.0  0.34070  0.86800  0.64060  1.0000 -0.5318351711
O   O7        1.0  0.47270  0.13200  0.14060  1.0000 -0.5318351711
O   O8        1.0  0.65930  0.52730  0.14060  1.0000 -0.5318351711
O   O9        1.0  0.86800  0.34070  0.14060  1.0000 -0.5318351711
O   O10       1.0  0.52730  0.86800  0.14060  1.0000 -0.5318351711
O   O11       1.0  0.34070  0.47270  0.14060  1.0000 -0.5318351711
O   O12       1.0  0.13200  0.65930  0.14060  1.0000 -0.5318351711
O   O13       1.0  0.83500  0.51080  0.57860  1.0000 -0.5098189827
O   O14       1.0  0.48920  0.32420  0.57860  1.0000 -0.5098189827
O   O15       1.0  0.67580  0.16500  0.57860  1.0000 -0.5098189827
O   O16       1.0  0.16500  0.48920  0.57860  1.0000 -0.5098189827
O   O17       1.0  0.51080  0.67580  0.57860  1.0000 -0.5098189827
O   O18       1.0  0.32420  0.83500  0.57860  1.0000 -0.5098189827
O   O19       1.0  0.48920  0.16500  0.07860  1.0000 -0.5098189827
O   O20       1.0  0.67580  0.51080  0.07860  1.0000 -0.5098189827
O   O21       1.0  0.83500  0.32420  0.07860  1.0000 -0.5098189827
O   O22       1.0  0.51080  0.83500  0.07860  1.0000 -0.5098189827
O   O23       1.0  0.32420  0.48920  0.07860  1.0000 -0.5098189827
O   O24       1.0  0.16500  0.67580  0.07860  1.0000 -0.5098189827
O   O25       1.0  0.85630  0.28100  0.69400  1.0000 -0.4944600389
O   O26       1.0  0.71900  0.57530  0.69400  1.0000 -0.4944600389
O   O27       1.0  0.42470  0.14370  0.69400  1.0000 -0.4944600389
O   O28       1.0  0.14370  0.71900  0.69400  1.0000 -0.4944600389
O   O29       1.0  0.28100  0.42470  0.69400  1.0000 -0.4944600389
O   O30       1.0  0.57530  0.85630  0.69400  1.0000 -0.4944600389
O   O31       1.0  0.71900  0.14370  0.19400  1.0000 -0.4944600389
O   O32       1.0  0.42470  0.28100  0.19400  1.0000 -0.4944600389
O   O33       1.0  0.85630  0.57530  0.19400  1.0000 -0.4944600389
O   O34       1.0  0.28100  0.85630  0.19400  1.0000 -0.4944600389
O   O35       1.0  0.57530  0.71900  0.19400  1.0000 -0.4944600389
O   O36       1.0  0.14370  0.42470  0.19400  1.0000 -0.4944600389
O   O37       1.0  0.82330  0.21160  0.64277  1.0000 -0.6096497104
O   O38       1.0  0.78840  0.61170  0.64277  1.0000 -0.6096497104
O   O39       1.0  0.38830  0.17670  0.64277  1.0000 -0.6096497104
O   O40       1.0  0.17670  0.78840  0.64277  1.0000 -0.6096497104
O   O41       1.0  0.21160  0.38830  0.64277  1.0000 -0.6096497104
O   O42       1.0  0.61170  0.82330  0.64277  1.0000 -0.6096497104
O   O43       1.0  0.78840  0.17670  0.14277  1.0000 -0.6096497104
O   O44       1.0  0.38830  0.21160  0.14277  1.0000 -0.6096497104
O   O45       1.0  0.82330  0.61170  0.14277  1.0000 -0.6096497104
O   O46       1.0  0.21160  0.82330  0.14277  1.0000 -0.6096497104
O   O47       1.0  0.61170  0.78840  0.14277  1.0000 -0.6096497104
O   O48       1.0  0.17670  0.38830  0.14277  1.0000 -0.6096497104
O   O49       1.0  0.97850  0.64270  0.57170  1.0000 -0.6096497104
O   O50       1.0  0.35730  0.33580  0.57170  1.0000 -0.6096497104
O   O51       1.0  0.66420  0.02150  0.57170  1.0000 -0.6096497104
O   O52       1.0  0.02150  0.35730  0.57170  1.0000 -0.6096497104
O   O53       1.0  0.64270  0.66420  0.57170  1.0000 -0.6096497104
O   O54       1.0  0.33580  0.97850  0.57170  1.0000 -0.6096497104
O   O55       1.0  0.35730  0.02150  0.07170  1.0000 -0.6096497104
O   O56       1.0  0.66420  0.64270  0.07170  1.0000 -0.6096497104
O   O57       1.0  0.97850  0.33580  0.07170  1.0000 -0.6096497104
O   O58       1.0  0.64270  0.97850  0.07170  1.0000 -0.6096497104
O   O59       1.0  0.33580  0.35730  0.07170  1.0000 -0.6096497104
O   O60       1.0  0.02150  0.66420  0.07170  1.0000 -0.6096497104
O   O61       1.0  0.99150  0.62120  0.50980  1.0000 -0.4662845197
O   O62       1.0  0.37880  0.37030  0.50980  1.0000 -0.4662845197
O   O63       1.0  0.62970  0.00850  0.50980  1.0000 -0.4662845197
O   O64       1.0  0.00850  0.37880  0.50980  1.0000 -0.4662845197
O   O65       1.0  0.62120  0.62970  0.50980  1.0000 -0.4662845197
O   O66       1.0  0.37030  0.99150  0.50980  1.0000 -0.4662845197
O   O67       1.0  0.37880  0.00850  0.00980  1.0000 -0.4662845197
O   O68       1.0  0.62970  0.62120  0.00980  1.0000 -0.4662845197
O   O69       1.0  0.99150  0.37030  0.00980  1.0000 -0.4662845197
O   O70       1.0  0.62120  0.99150  0.00980  1.0000 -0.4662845197
O   O71       1.0  0.37030  0.37880  0.00980  1.0000 -0.4662845197
O   O72       1.0  0.00850  0.62970  0.00980  1.0000 -0.4662845197
O   O73       1.0  0.96780  0.70530  0.43970  1.0000 -0.4662845197
O   O74       1.0  0.29470  0.26250  0.43970  1.0000 -0.4662845197
O   O75       1.0  0.73750  0.03220  0.43970  1.0000 -0.4662845197
O   O76       1.0  0.03220  0.29470  0.43970  1.0000 -0.4662845197
O   O77       1.0  0.70530  0.73750  0.43970  1.0000 -0.4662845197
O   O78       1.0  0.26250  0.96780  0.43970  1.0000 -0.4662845197
O   O79       1.0  0.29470  0.03220  0.93970  1.0000 -0.4662845197
O   O80       1.0  0.73750  0.70530  0.93970  1.0000 -0.4662845197
O   O81       1.0  0.96780  0.26250  0.93970  1.0000 -0.4662845197
O   O82       1.0  0.70530  0.96780  0.93970  1.0000 -0.4662845197
O   O83       1.0  0.26250  0.29470  0.93970  1.0000 -0.4662845197
O   O84       1.0  0.03220  0.73750  0.93970  1.0000 -0.4662845197
O   O85       1.0  0.98410  0.80010  0.45910  1.0000 -0.5098189827
O   O86       1.0  0.19990  0.18400  0.45910  1.0000 -0.5098189827
O   O87       1.0  0.81600  0.01590  0.45910  1.0000 -0.5098189827
O   O88       1.0  0.01590  0.19990  0.45910  1.0000 -0.5098189827
O   O89       1.0  0.80010  0.81600  0.45910  1.0000 -0.5098189827
O   O90       1.0  0.18400  0.98410  0.45910  1.0000 -0.5098189827
O   O91       1.0  0.19990  0.01590  0.95910  1.0000 -0.5098189827
O   O92       1.0  0.81600  0.80010  0.95910  1.0000 -0.5098189827
O   O93       1.0  0.98410  0.18400  0.95910  1.0000 -0.5098189827
O   O94       1.0  0.80010  0.98410  0.95910  1.0000 -0.5048525657
O   O95       1.0  0.18400  0.19990  0.95910  1.0000 -0.5098189827
O   O96       1.0  0.01590  0.81600  0.95910  1.0000 -0.5098189827
O   O97       1.0  0.89490  0.68660  0.27180  1.0000 -0.4324998235
O   O98       1.0  0.31340  0.20830  0.27180  1.0000 -0.4324998235
O   O99       1.0  0.79170  0.10510  0.27180  1.0000 -0.4324998235
O   O100      1.0  0.10510  0.31340  0.27180  1.0000 -0.4324998235
O   O101      1.0  0.68660  0.79170  0.27180  1.0000 -0.4324998235
O   O102      1.0  0.20830  0.89490  0.27180  1.0000 -0.4324998235
O   O103      1.0  0.31340  0.10510  0.77180  1.0000 -0.4324998235
O   O104      1.0  0.79170  0.68660  0.77180  1.0000 -0.4324998235
O   O105      1.0  0.89490  0.20830  0.77180  1.0000 -0.4324998235
O   O106      1.0  0.68660  0.89490  0.77180  1.0000 -0.4324998235
O   O107      1.0  0.20830  0.31340  0.77180  1.0000 -0.4324998235
O   O108      1.0  0.10510  0.79170  0.77180  1.0000 -0.4324998235
O   O109      1.0  0.89220  0.77750  0.25750  1.0000 -0.5566799964
O   O110      1.0  0.22250  0.11470  0.25750  1.0000 -0.5566799964
O   O111      1.0  0.88530  0.10780  0.25750  1.0000 -0.5566799964
O   O112      1.0  0.10780  0.22250  0.25750  1.0000 -0.5566799964
O   O113      1.0  0.77750  0.88530  0.25750  1.0000 -0.5566799964
O   O114      1.0  0.11470  0.89220  0.25750  1.0000 -0.5566799964
O   O115      1.0  0.22250  0.10780  0.75750  1.0000 -0.5566799964
O   O116      1.0  0.88530  0.77750  0.75750  1.0000 -0.5566799964
O   O117      1.0  0.89220  0.11470  0.75750  1.0000 -0.5566799964
O   O118      1.0  0.77750  0.89220  0.75750  1.0000 -0.5566799964
O   O119      1.0  0.11470  0.22250  0.75750  1.0000 -0.5566799964
O   O120      1.0  0.10780  0.88530  0.75750  1.0000 -0.5566799964
