# DDEC6 charges by PACMAN v1.1 (https://github.com/mtap-research/PACMAN-charge/)
data_2023[Cu][nbo]3[ASR]1
_chemical_formula_sum              "Cu24 H108 C204 N12 O96"
_cell_length_a       23.14
_cell_length_b       18.61
_cell_length_c       32.324
_cell_angle_alpha    90
_cell_angle_beta     117.537
_cell_angle_gamma    90

_symmetry_space_group_name_H-M    "P 1"
_symmetry_Int_Tables_number       1

loop_
  _symmetry_equiv_pos_as_xyz
  'x, y, z'

loop_
  _atom_site_type_symbol
  _atom_site_label
  _atom_site_symmetry_multiplicity
  _atom_site_fract_x
  _atom_site_fract_y
  _atom_site_fract_z
  _atom_site_occupancy
  _atom_site_charge
Cu  Cu1       1.0  0.69214  0.73912  0.98395  1.0000 0.8493314655
Cu  Cu2       1.0  0.79918  0.80829  0.99744  1.0000 0.8696230323
Cu  Cu3       1.0  0.80301  0.23289  0.98421  1.0000 0.8887512506
Cu  Cu4       1.0  0.69499  0.30343  0.97176  1.0000 0.8493314655
Cu  Cu5       1.0  0.70342  0.49796  0.19418  1.0000 0.8593337656
Cu  Cu6       1.0  0.81041  0.49661  0.27526  1.0000 0.8593337656
Cu  Cu7       1.0  0.30786  0.23912  0.51605  1.0000 0.8493314655
Cu  Cu8       1.0  0.20082  0.30829  0.50256  1.0000 0.8696230323
Cu  Cu9       1.0  0.19699  0.73289  0.51579  1.0000 0.8887512506
Cu  Cu10      1.0  0.30501  0.80343  0.52824  1.0000 0.8493314655
Cu  Cu11      1.0  0.29658  0.99796  0.30582  1.0000 0.8593337656
Cu  Cu12      1.0  0.18959  0.99661  0.22474  1.0000 0.8593337656
Cu  Cu13      1.0  0.30786  0.26088  0.01605  1.0000 0.8493314655
Cu  Cu14      1.0  0.20082  0.19171  0.00256  1.0000 0.8696230323
Cu  Cu15      1.0  0.19699  0.76711  0.01579  1.0000 0.8887512506
Cu  Cu16      1.0  0.30501  0.69657  0.02824  1.0000 0.8493314655
Cu  Cu17      1.0  0.29658  0.50204  0.80582  1.0000 0.8593337656
Cu  Cu18      1.0  0.18959  0.50339  0.72474  1.0000 0.8593337656
Cu  Cu19      1.0  0.69214  0.76088  0.48395  1.0000 0.8493314655
Cu  Cu20      1.0  0.79918  0.69171  0.49744  1.0000 0.8696230323
Cu  Cu21      1.0  0.80301  0.26711  0.48421  1.0000 0.8887512506
Cu  Cu22      1.0  0.69499  0.19657  0.47176  1.0000 0.8493314655
Cu  Cu23      1.0  0.70342  0.00204  0.69418  1.0000 0.8593337656
Cu  Cu24      1.0  0.81041  0.00339  0.77526  1.0000 0.8593337656
H   H1        1.0  0.50160  0.26905  0.20503  1.0000 0.2601832868
H   H2        1.0  0.49111  0.07047  0.98982  1.0000 0.2601832868
H   H3        1.0  0.00727  0.30549  0.27805  1.0000 0.2601832868
H   H4        1.0  0.24411  0.15680  0.37831  1.0000 0.1416436234
H   H5        1.0  0.59286  0.22462  0.32476  1.0000 0.1290342222
H   H6        1.0  0.90136  0.63350  0.98509  1.0000 0.1416436234
H   H7        1.0  0.51338  0.16929  0.26687  1.0000 0.1108542087
H   H8        1.0  0.48342  0.24072  0.27626  1.0000 0.1108542087
H   H9        1.0  0.01295  0.56477  0.02679  1.0000 0.1108542087
H   H10       1.0  0.98027  0.55809  0.97131  1.0000 0.1108542087
H   H11       1.0  0.58706  0.13424  0.99468  1.0000 0.1416436234
H   H12       1.0  0.75034  0.33834  0.34517  1.0000 0.1416436234
H   H13       1.0  0.76575  0.36229  0.11523  1.0000 0.1416436234
H   H14       1.0  0.73472  0.02263  0.99261  1.0000 0.1454039635
H   H15       1.0  0.92121  0.34505  0.24216  1.0000 0.1242265907
H   H16       1.0  0.41139  0.13593  0.27020  1.0000 0.1290342222
H   H17       1.0  0.09932  0.29809  0.35532  1.0000 0.1416436234
H   H18       1.0  0.09251  0.17381  0.24931  1.0000 0.1290342222
H   H19       1.0  0.25033  0.13320  0.14486  1.0000 0.1416436234
H   H20       1.0  0.74804  0.52513  0.96814  1.0000 0.1416436234
H   H21       1.0  0.58676  0.91711  0.00045  1.0000 0.1290342222
H   H22       1.0  0.59849  0.33562  0.22051  1.0000 0.1416436234
H   H23       1.0  0.02265  0.27339  0.20599  1.0000 0.1108542087
H   H24       1.0  0.99064  0.20586  0.21781  1.0000 0.1108542087
H   H25       1.0  0.41402  0.23455  0.15964  1.0000 0.1242265907
H   H26       1.0  0.91674  0.23859  0.13176  1.0000 0.1290342222
H   H27       1.0  0.90790  0.41540  0.98461  1.0000 0.1290342222
H   H28       1.0  0.49840  0.76905  0.29497  1.0000 0.2652215184
H   H29       1.0  0.50889  0.57047  0.51018  1.0000 0.2601832868
H   H30       1.0  0.99273  0.80549  0.22195  1.0000 0.2652215184
H   H31       1.0  0.75589  0.65680  0.12169  1.0000 0.1416436234
H   H32       1.0  0.40714  0.72462  0.17524  1.0000 0.1290342222
H   H33       1.0  0.09864  0.13350  0.51491  1.0000 0.1416436234
H   H34       1.0  0.48662  0.66929  0.23313  1.0000 0.1108542087
H   H35       1.0  0.51658  0.74072  0.22374  1.0000 0.1108542087
H   H36       1.0  0.98705  0.06477  0.47321  1.0000 0.1108542087
H   H37       1.0  0.01973  0.05809  0.52869  1.0000 0.1108542087
H   H38       1.0  0.41294  0.63424  0.50532  1.0000 0.1416436234
H   H39       1.0  0.24966  0.83834  0.15483  1.0000 0.1416436234
H   H40       1.0  0.23425  0.86229  0.38477  1.0000 0.1416436234
H   H41       1.0  0.26528  0.52263  0.50739  1.0000 0.1454039635
H   H42       1.0  0.07879  0.84505  0.25784  1.0000 0.1242265907
H   H43       1.0  0.58861  0.63593  0.22980  1.0000 0.1290342222
H   H44       1.0  0.90068  0.79809  0.14468  1.0000 0.1416436234
H   H45       1.0  0.90749  0.67381  0.25069  1.0000 0.1290342222
H   H46       1.0  0.74967  0.63320  0.35514  1.0000 0.1416436234
H   H47       1.0  0.25196  0.02513  0.53186  1.0000 0.1416436234
H   H48       1.0  0.41324  0.41711  0.49955  1.0000 0.1290342222
H   H49       1.0  0.40151  0.83562  0.27949  1.0000 0.1416436234
H   H50       1.0  0.97735  0.77339  0.29401  1.0000 0.1108542087
H   H51       1.0  0.00936  0.70586  0.28219  1.0000 0.1108542087
H   H52       1.0  0.58598  0.73455  0.34036  1.0000 0.1242265907
H   H53       1.0  0.08326  0.73859  0.36824  1.0000 0.1290342222
H   H54       1.0  0.09210  0.91540  0.51539  1.0000 0.1290342222
H   H55       1.0  0.49840  0.73095  0.79497  1.0000 0.2601832868
H   H56       1.0  0.50889  0.92953  0.01018  1.0000 0.2601832868
H   H57       1.0  0.99273  0.69451  0.72195  1.0000 0.2652215184
H   H58       1.0  0.75589  0.84320  0.62169  1.0000 0.1416436234
H   H59       1.0  0.40714  0.77538  0.67524  1.0000 0.1290342222
H   H60       1.0  0.09864  0.36650  0.01491  1.0000 0.1290342222
H   H61       1.0  0.48662  0.83071  0.73313  1.0000 0.1108542087
H   H62       1.0  0.51658  0.75928  0.72374  1.0000 0.1108542087
H   H63       1.0  0.98705  0.43523  0.97321  1.0000 0.1043398724
H   H64       1.0  0.01973  0.44191  0.02869  1.0000 0.1108542087
H   H65       1.0  0.41294  0.86576  0.00532  1.0000 0.1416436234
H   H66       1.0  0.24966  0.66166  0.65483  1.0000 0.1416436234
H   H67       1.0  0.23425  0.63771  0.88477  1.0000 0.1454039635
H   H68       1.0  0.26528  0.97737  0.00739  1.0000 0.1454039635
H   H69       1.0  0.07879  0.65495  0.75784  1.0000 0.1242265907
H   H70       1.0  0.58861  0.86407  0.72980  1.0000 0.1290342222
H   H71       1.0  0.90068  0.70191  0.64468  1.0000 0.1416436234
H   H72       1.0  0.90749  0.82619  0.75069  1.0000 0.1290342222
H   H73       1.0  0.74967  0.86680  0.85514  1.0000 0.1416436234
H   H74       1.0  0.25196  0.47487  0.03186  1.0000 0.1416436234
H   H75       1.0  0.41324  0.08289  0.99955  1.0000 0.1290342222
H   H76       1.0  0.40151  0.66438  0.77949  1.0000 0.1416436234
H   H77       1.0  0.97735  0.72661  0.79401  1.0000 0.1108542087
H   H78       1.0  0.00936  0.79414  0.78219  1.0000 0.1108542087
H   H79       1.0  0.58598  0.76545  0.84036  1.0000 0.1242265907
H   H80       1.0  0.08326  0.76141  0.86824  1.0000 0.1290342222
H   H81       1.0  0.09210  0.58460  0.01539  1.0000 0.1290342222
H   H82       1.0  0.50160  0.23095  0.70503  1.0000 0.2652215184
H   H83       1.0  0.49111  0.42953  0.48982  1.0000 0.2601832868
H   H84       1.0  0.00727  0.19451  0.77805  1.0000 0.2601832868
H   H85       1.0  0.24411  0.34320  0.87831  1.0000 0.1416436234
H   H86       1.0  0.59286  0.27538  0.82476  1.0000 0.1290342222
H   H87       1.0  0.90136  0.86650  0.48509  1.0000 0.1290342222
H   H88       1.0  0.51338  0.33071  0.76687  1.0000 0.1108542087
H   H89       1.0  0.48342  0.25928  0.77626  1.0000 0.1108542087
H   H90       1.0  0.01295  0.93523  0.52679  1.0000 0.1043398724
H   H91       1.0  0.98027  0.94191  0.47131  1.0000 0.1108542087
H   H92       1.0  0.58706  0.36576  0.49468  1.0000 0.1416436234
H   H93       1.0  0.75034  0.16166  0.84517  1.0000 0.1416436234
H   H94       1.0  0.76575  0.13771  0.61523  1.0000 0.1416436234
H   H95       1.0  0.73472  0.47737  0.49261  1.0000 0.1454039635
H   H96       1.0  0.92121  0.15495  0.74216  1.0000 0.1242265907
H   H97       1.0  0.41139  0.36407  0.77020  1.0000 0.1290342222
H   H98       1.0  0.09932  0.20191  0.85532  1.0000 0.1416436234
H   H99       1.0  0.09251  0.32619  0.74931  1.0000 0.1290342222
H   H100      1.0  0.25033  0.36680  0.64486  1.0000 0.1416436234
H   H101      1.0  0.74804  0.97487  0.46814  1.0000 0.1416436234
H   H102      1.0  0.58676  0.58289  0.50045  1.0000 0.1290342222
H   H103      1.0  0.59849  0.16438  0.72051  1.0000 0.1416436234
H   H104      1.0  0.02265  0.22661  0.70599  1.0000 0.1108542087
H   H105      1.0  0.99064  0.29414  0.71781  1.0000 0.1108542087
H   H106      1.0  0.41402  0.26545  0.65964  1.0000 0.1290342222
H   H107      1.0  0.91674  0.26141  0.63176  1.0000 0.1290342222
H   H108      1.0  0.90790  0.08460  0.48461  1.0000 0.1290342222
C   C1        1.0  0.79270  0.65530  0.98300  1.0000 0.5779478115
C   C2        1.0  0.69000  0.15920  0.98650  1.0000 0.5639489116
C   C3        1.0  0.20405  0.17860  0.35735  1.0000 -0.1206366697
C   C4        1.0  0.61580  0.25390  0.31320  1.0000 -0.1760932086
C   C5        1.0  0.66320  0.09060  0.99060  1.0000 -0.0476870928
C   C6        1.0  0.58610  0.27230  0.26610  1.0000 0.1801922554
C   C7        1.0  0.88230  0.58890  0.98650  1.0000 -0.1594839255
C   C8        1.0  0.42050  0.18780  0.21940  1.0000 0.03326271
C   C9        1.0  0.80560  0.41090  0.20130  1.0000 0.5779478115
C   C10       1.0  0.48670  0.21220  0.25160  1.0000 -0.1298212005
C   C11       1.0  0.98550  0.53360  0.00010  1.0000 -0.2289210437
C   C12       1.0  0.91770  0.52390  0.99410  1.0000 0.0885229045
C   C13       1.0  0.70530  0.25670  0.39310  1.0000 0.5779478115
C   C14       1.0  0.69630  0.88860  0.99710  1.0000 0.5739490723
C   C15       1.0  0.60540  0.08950  0.99280  1.0000 -0.1910414543
C   C16       1.0  0.78940  0.39010  0.97140  1.0000 0.5779478115
C   C17       1.0  0.70910  0.39910  0.26280  1.0000 0.5779478115
C   C18       1.0  0.29880  0.20210  0.09460  1.0000 0.5779478115
C   C19       1.0  0.29280  0.08170  0.23110  1.0000 0.5779478115
C   C20       1.0  0.20820  0.24860  0.42280  1.0000 0.5779478115
C   C21       1.0  0.80450  0.28620  0.06510  1.0000 0.5779478115
C   C22       1.0  0.67790  0.34600  0.27990  1.0000 -0.0207433126
C   C23       1.0  0.70713  0.32320  0.32483  1.0000 -0.1404914754
C   C24       1.0  0.80808  0.34380  0.13448  1.0000 -0.1126003398
C   C25       1.0  0.83950  0.36060  0.18200  1.0000 -0.0106205268
C   C26       1.0  0.83702  0.30220  0.11582  1.0000 -0.0320391195
C   C27       1.0  0.32920  0.18580  0.14500  1.0000 -0.0320391195
C   C28       1.0  0.17820  0.23060  0.37240  1.0000 -0.0207433126
C   C29       1.0  0.67480  0.27730  0.34260  1.0000 -0.0106205268
C   C30       1.0  0.19998  0.09980  0.29368  1.0000 0.5779478115
C   C31       1.0  0.69390  0.02450  0.99300  1.0000 -0.1206366697
C   C32       1.0  0.66370  0.96260  0.99600  1.0000 0.0061723417
C   C33       1.0  0.90000  0.33320  0.20990  1.0000 -0.1501326515
C   C34       1.0  0.17200  0.15660  0.31090  1.0000 -0.0320391195
C   C35       1.0  0.38970  0.14890  0.23820  1.0000 -0.1404914754
C   C36       1.0  0.11840  0.26430  0.34320  1.0000 -0.2198819882
C   C37       1.0  0.11470  0.18950  0.28080  1.0000 -0.1910414543
C   C38       1.0  0.29450  0.14650  0.16390  1.0000 -0.1126003398
C   C39       1.0  0.79240  0.52600  0.97440  1.0000 -0.1206366697
C   C40       1.0  0.32550  0.12760  0.21030  1.0000 -0.0320391195
C   C41       1.0  0.60470  0.96120  0.99690  1.0000 -0.2097114502
C   C42       1.0  0.61910  0.32020  0.25210  1.0000 -0.1910414543
C   C43       1.0  0.82580  0.45920  0.97620  1.0000 -0.0207433126
C   C44       1.0  0.82240  0.58650  0.98120  1.0000 -0.0207433126
C   C45       1.0  0.99440  0.25890  0.22000  1.0000 -0.1298212005
C   C46       1.0  0.39140  0.20640  0.17210  1.0000 -0.1501326515
C   C47       1.0  0.89810  0.27130  0.14480  1.0000 -0.1594839255
C   C48       1.0  0.93160  0.28780  0.19200  1.0000 0.0211473656
C   C49       1.0  0.88630  0.45870  0.98480  1.0000 -0.1298212005
C   C50       1.0  0.08790  0.24660  0.29590  1.0000 0.1968684503
C   C51       1.0  0.57160  0.02640  0.99260  1.0000 0.1696899468
C   C52       1.0  0.20730  0.15530  0.51700  1.0000 0.5779478115
C   C53       1.0  0.31000  0.65920  0.51350  1.0000 0.5639489116
C   C54       1.0  0.79595  0.67860  0.14265  1.0000 -0.1206366697
C   C55       1.0  0.38420  0.75390  0.18680  1.0000 -0.1760932086
C   C56       1.0  0.33680  0.59060  0.50940  1.0000 -0.0476870928
C   C57       1.0  0.41390  0.77230  0.23390  1.0000 0.1801922554
C   C58       1.0  0.11770  0.08890  0.51350  1.0000 -0.1594839255
C   C59       1.0  0.57950  0.68780  0.28060  1.0000 0.03326271
C   C60       1.0  0.19440  0.91090  0.29870  1.0000 0.5739490723
C   C61       1.0  0.51330  0.71220  0.24840  1.0000 -0.1298212005
C   C62       1.0  0.01450  0.03360  0.49990  1.0000 -0.2289210437
C   C63       1.0  0.08230  0.02390  0.50590  1.0000 0.0885229045
C   C64       1.0  0.29470  0.75670  0.10690  1.0000 0.5779478115
C   C65       1.0  0.30370  0.38860  0.50290  1.0000 0.5739490723
C   C66       1.0  0.39460  0.58950  0.50720  1.0000 -0.1910414543
C   C67       1.0  0.21060  0.89010  0.52860  1.0000 0.5779478115
C   C68       1.0  0.29090  0.89910  0.23720  1.0000 0.5779478115
C   C69       1.0  0.70120  0.70210  0.40540  1.0000 0.5779478115
C   C70       1.0  0.70720  0.58170  0.26890  1.0000 0.5779478115
C   C71       1.0  0.79180  0.74860  0.07720  1.0000 0.5779478115
C   C72       1.0  0.19550  0.78620  0.43490  1.0000 0.5779478115
C   C73       1.0  0.32210  0.84600  0.22010  1.0000 -0.0207433126
C   C74       1.0  0.29287  0.82320  0.17517  1.0000 -0.1404914754
C   C75       1.0  0.19192  0.84380  0.36552  1.0000 -0.1126003398
C   C76       1.0  0.16050  0.86060  0.31800  1.0000 -0.0106205268
C   C77       1.0  0.16298  0.80220  0.38418  1.0000 -0.0320391195
C   C78       1.0  0.67080  0.68580  0.35500  1.0000 -0.0320391195
C   C79       1.0  0.82180  0.73060  0.12760  1.0000 -0.0207433126
C   C80       1.0  0.32520  0.77730  0.15740  1.0000 -0.0106205268
C   C81       1.0  0.80002  0.59980  0.20632  1.0000 0.5779478115
C   C82       1.0  0.30610  0.52450  0.50700  1.0000 -0.1126003398
C   C83       1.0  0.33630  0.46260  0.50400  1.0000 0.0043265824
C   C84       1.0  0.10000  0.83320  0.29010  1.0000 -0.1501326515
C   C85       1.0  0.82800  0.65660  0.18910  1.0000 -0.0320391195
C   C86       1.0  0.61030  0.64890  0.26180  1.0000 -0.1404914754
C   C87       1.0  0.88160  0.76430  0.15680  1.0000 -0.2198819882
C   C88       1.0  0.88530  0.68950  0.21920  1.0000 -0.1957411348
C   C89       1.0  0.70550  0.64650  0.33610  1.0000 -0.1126003398
C   C90       1.0  0.20760  0.02600  0.52560  1.0000 -0.1206366697
C   C91       1.0  0.67450  0.62760  0.28970  1.0000 -0.0351830191
C   C92       1.0  0.39530  0.46120  0.50310  1.0000 -0.2097114502
C   C93       1.0  0.38090  0.82020  0.24790  1.0000 -0.1910414543
C   C94       1.0  0.17420  0.95920  0.52380  1.0000 -0.0207433126
C   C95       1.0  0.17760  0.08650  0.51880  1.0000 -0.0207433126
C   C96       1.0  0.00560  0.75890  0.28000  1.0000 -0.1206366697
C   C97       1.0  0.60860  0.70640  0.32790  1.0000 -0.1501326515
C   C98       1.0  0.10190  0.77130  0.35520  1.0000 -0.1594839255
C   C99       1.0  0.06840  0.78780  0.30800  1.0000 0.0211473656
C   C100      1.0  0.11370  0.95870  0.51520  1.0000 -0.1298212005
C   C101      1.0  0.91210  0.74660  0.20410  1.0000 0.1968684503
C   C102      1.0  0.42840  0.52640  0.50740  1.0000 0.1696899468
C   C103      1.0  0.20730  0.34470  0.01700  1.0000 0.5779478115
C   C104      1.0  0.31000  0.84080  0.01350  1.0000 0.5639489116
C   C105      1.0  0.79595  0.82140  0.64265  1.0000 -0.1206366697
C   C106      1.0  0.38420  0.74610  0.68680  1.0000 -0.1760932086
C   C107      1.0  0.33680  0.90940  0.00940  1.0000 -0.0476870928
C   C108      1.0  0.41390  0.72770  0.73390  1.0000 0.1801922554
C   C109      1.0  0.11770  0.41110  0.01350  1.0000 -0.1594839255
C   C110      1.0  0.57950  0.81220  0.78060  1.0000 0.03326271
C   C111      1.0  0.19440  0.58910  0.79870  1.0000 0.5739490723
C   C112      1.0  0.51330  0.78780  0.74840  1.0000 -0.1298212005
C   C113      1.0  0.01450  0.46640  0.99990  1.0000 -0.2289210437
C   C114      1.0  0.08230  0.47610  0.00590  1.0000 0.0885229045
C   C115      1.0  0.29470  0.74330  0.60690  1.0000 0.5779478115
C   C116      1.0  0.30370  0.11140  0.00290  1.0000 0.5739490723
C   C117      1.0  0.39460  0.91050  0.00720  1.0000 -0.1910414543
C   C118      1.0  0.21060  0.60990  0.02860  1.0000 0.5779478115
C   C119      1.0  0.29090  0.60090  0.73720  1.0000 0.5779478115
C   C120      1.0  0.70120  0.79790  0.90540  1.0000 0.5779478115
C   C121      1.0  0.70720  0.91830  0.76890  1.0000 0.5779478115
C   C122      1.0  0.79180  0.75140  0.57720  1.0000 0.5779478115
C   C123      1.0  0.19550  0.71380  0.93490  1.0000 0.5779478115
C   C124      1.0  0.32210  0.65400  0.72010  1.0000 -0.0207433126
C   C125      1.0  0.29287  0.67680  0.67517  1.0000 -0.1404914754
C   C126      1.0  0.19192  0.65620  0.86552  1.0000 -0.1126003398
C   C127      1.0  0.16050  0.63940  0.81800  1.0000 -0.0106205268
C   C128      1.0  0.16298  0.69780  0.88418  1.0000 -0.0207433126
C   C129      1.0  0.67080  0.81420  0.85500  1.0000 -0.0320391195
C   C130      1.0  0.82180  0.76940  0.62760  1.0000 -0.0207433126
C   C131      1.0  0.32520  0.72270  0.65740  1.0000 -0.0106205268
C   C132      1.0  0.80002  0.90020  0.70632  1.0000 0.5779478115
C   C133      1.0  0.30610  0.97550  0.00700  1.0000 -0.1206366697
C   C134      1.0  0.33630  0.03740  0.00400  1.0000 0.0043265824
C   C135      1.0  0.10000  0.66680  0.79010  1.0000 -0.1501326515
C   C136      1.0  0.82800  0.84340  0.68910  1.0000 -0.0320391195
C   C137      1.0  0.61030  0.85110  0.76180  1.0000 -0.1404914754
C   C138      1.0  0.88160  0.73570  0.65680  1.0000 -0.2198819882
C   C139      1.0  0.88530  0.81050  0.71920  1.0000 -0.1910414543
C   C140      1.0  0.70550  0.85350  0.83610  1.0000 -0.1126003398
C   C141      1.0  0.20760  0.47400  0.02560  1.0000 -0.1206366697
C   C142      1.0  0.67450  0.87240  0.78970  1.0000 -0.0320391195
C   C143      1.0  0.39530  0.03880  0.00310  1.0000 -0.2097114502
C   C144      1.0  0.38090  0.67980  0.74790  1.0000 -0.1910414543
C   C145      1.0  0.17420  0.54080  0.02380  1.0000 -0.0207433126
C   C146      1.0  0.17760  0.41350  0.01880  1.0000 -0.0207433126
C   C147      1.0  0.00560  0.74110  0.78000  1.0000 -0.1206366697
C   C148      1.0  0.60860  0.79360  0.82790  1.0000 -0.1501326515
C   C149      1.0  0.10190  0.72870  0.85520  1.0000 -0.1594839255
C   C150      1.0  0.06840  0.71220  0.80800  1.0000 0.0211473656
C   C151      1.0  0.11370  0.54130  0.01520  1.0000 -0.1298212005
C   C152      1.0  0.91210  0.75340  0.70410  1.0000 0.1968684503
C   C153      1.0  0.42840  0.97360  0.00740  1.0000 0.1696899468
C   C154      1.0  0.79270  0.84470  0.48300  1.0000 0.5779478115
C   C155      1.0  0.69000  0.34080  0.48650  1.0000 0.5639489116
C   C156      1.0  0.20405  0.32140  0.85735  1.0000 -0.1206366697
C   C157      1.0  0.61580  0.24610  0.81320  1.0000 -0.1760932086
C   C158      1.0  0.66320  0.40940  0.49060  1.0000 -0.0476870928
C   C159      1.0  0.58610  0.22770  0.76610  1.0000 0.1801922554
C   C160      1.0  0.88230  0.91110  0.48650  1.0000 -0.1594839255
C   C161      1.0  0.42050  0.31220  0.71940  1.0000 0.03326271
C   C162      1.0  0.80560  0.08910  0.70130  1.0000 0.5739490723
C   C163      1.0  0.48670  0.28780  0.75160  1.0000 -0.1298212005
C   C164      1.0  0.98550  0.96640  0.50010  1.0000 -0.2289210437
C   C165      1.0  0.91770  0.97610  0.49410  1.0000 0.0885229045
C   C166      1.0  0.70530  0.24330  0.89310  1.0000 0.5779478115
C   C167      1.0  0.69630  0.61140  0.49710  1.0000 0.5739490723
C   C168      1.0  0.60540  0.41050  0.49280  1.0000 -0.1957411348
C   C169      1.0  0.78940  0.10990  0.47140  1.0000 0.5779478115
C   C170      1.0  0.70910  0.10090  0.76280  1.0000 0.5779478115
C   C171      1.0  0.29880  0.29790  0.59460  1.0000 0.5779478115
C   C172      1.0  0.29280  0.41830  0.73110  1.0000 0.5779478115
C   C173      1.0  0.20820  0.25140  0.92280  1.0000 0.5779478115
C   C174      1.0  0.80450  0.21380  0.56510  1.0000 0.5779478115
C   C175      1.0  0.67790  0.15400  0.77990  1.0000 -0.0207433126
C   C176      1.0  0.70713  0.17680  0.82483  1.0000 -0.1404914754
C   C177      1.0  0.80808  0.15620  0.63448  1.0000 -0.1126003398
C   C178      1.0  0.83950  0.13940  0.68200  1.0000 -0.0106205268
C   C179      1.0  0.83702  0.19780  0.61582  1.0000 -0.0207433126
C   C180      1.0  0.32920  0.31420  0.64500  1.0000 -0.0320391195
C   C181      1.0  0.17820  0.26940  0.87240  1.0000 -0.0207433126
C   C182      1.0  0.67480  0.22270  0.84260  1.0000 -0.0106205268
C   C183      1.0  0.19998  0.40020  0.79368  1.0000 0.5779478115
C   C184      1.0  0.69390  0.47550  0.49300  1.0000 -0.1126003398
C   C185      1.0  0.66370  0.53740  0.49600  1.0000 0.0061723417
C   C186      1.0  0.90000  0.16680  0.70990  1.0000 -0.1501326515
C   C187      1.0  0.17200  0.34340  0.81090  1.0000 -0.0320391195
C   C188      1.0  0.38970  0.35110  0.73820  1.0000 -0.1404914754
C   C189      1.0  0.11840  0.23570  0.84320  1.0000 -0.2198819882
C   C190      1.0  0.11470  0.31050  0.78080  1.0000 -0.1910414543
C   C191      1.0  0.29450  0.35350  0.66390  1.0000 -0.1126003398
C   C192      1.0  0.79240  0.97400  0.47440  1.0000 -0.1206366697
C   C193      1.0  0.32550  0.37240  0.71030  1.0000 -0.0320391195
C   C194      1.0  0.60470  0.53880  0.49690  1.0000 -0.2097114502
C   C195      1.0  0.61910  0.17980  0.75210  1.0000 -0.1910414543
C   C196      1.0  0.82580  0.04080  0.47620  1.0000 -0.0207433126
C   C197      1.0  0.82240  0.91350  0.48120  1.0000 -0.0207433126
C   C198      1.0  0.99440  0.24110  0.72000  1.0000 -0.1298212005
C   C199      1.0  0.39140  0.29360  0.67210  1.0000 -0.1501326515
C   C200      1.0  0.89810  0.22870  0.64480  1.0000 -0.1594839255
C   C201      1.0  0.93160  0.21220  0.69200  1.0000 0.0211473656
C   C202      1.0  0.88630  0.04130  0.48480  1.0000 -0.1298212005
C   C203      1.0  0.08790  0.25340  0.79590  1.0000 0.1968684503
C   C204      1.0  0.57160  0.47360  0.49260  1.0000 0.1696899468
N   N1        1.0  0.51990  0.25430  0.23420  1.0000 -0.278375215
N   N2        1.0  0.51220  0.02940  0.99480  1.0000 -0.1910414543
N   N3        1.0  0.02590  0.27660  0.26620  1.0000 -0.278375215
N   N4        1.0  0.48010  0.75430  0.26580  1.0000 -0.278375215
N   N5        1.0  0.48780  0.52940  0.50520  1.0000 -0.1910414543
N   N6        1.0  0.97410  0.77660  0.23380  1.0000 -0.278375215
N   N7        1.0  0.48010  0.74570  0.76580  1.0000 -0.278375215
N   N8        1.0  0.48780  0.97060  0.00520  1.0000 -0.1910414543
N   N9        1.0  0.97410  0.72340  0.73380  1.0000 -0.278375215
N   N10       1.0  0.51990  0.24570  0.73420  1.0000 -0.278375215
N   N11       1.0  0.51220  0.47060  0.49480  1.0000 -0.1910414543
N   N12       1.0  0.02590  0.22340  0.76620  1.0000 -0.278375215
O   O1        1.0  0.17692  0.29140  0.43661  1.0000 -0.5457208036
O   O2        1.0  0.26299  0.22130  0.44903  1.0000 -0.5099011311
O   O3        1.0  0.83634  0.24690  0.04948  1.0000 -0.5372629343
O   O4        1.0  0.76630  0.41910  0.29132  1.0000 -0.5203603199
O   O5        1.0  0.76447  0.27700  0.41837  1.0000 -0.5203603199
O   O6        1.0  0.73297  0.38920  0.96367  1.0000 -0.4586818545
O   O7        1.0  0.75289  0.89280  0.99792  1.0000 -0.5311303197
O   O8        1.0  0.25615  0.07730  0.32110  1.0000 -0.5099011311
O   O9        1.0  0.75028  0.43170  0.17430  1.0000 -0.500349148
O   O10       1.0  0.74997  0.31060  0.04096  1.0000 -0.500349148
O   O11       1.0  0.67798  0.41920  0.22115  1.0000 -0.5203603199
O   O12       1.0  0.73606  0.65290  0.97616  1.0000 -0.4835204361
O   O13       1.0  0.74694  0.15240  0.98724  1.0000 -0.5565685062
O   O14       1.0  0.23480  0.06410  0.20432  1.0000 -0.5099011311
O   O15       1.0  0.24140  0.18290  0.06979  1.0000 -0.500349148
O   O16       1.0  0.67090  0.22470  0.40650  1.0000 -0.500349148
O   O17       1.0  0.83963  0.42770  0.24346  1.0000 -0.5311303197
O   O18       1.0  0.16513  0.07560  0.25324  1.0000 -0.5311303197
O   O19       1.0  0.33351  0.23280  0.08054  1.0000 -0.500349148
O   O20       1.0  0.66440  0.83300  0.99420  1.0000 -0.5099011311
O   O21       1.0  0.82715  0.33470  0.97895  1.0000 -0.5565685062
O   O22       1.0  0.66186  0.21380  0.98169  1.0000 -0.4511087193
O   O23       1.0  0.32679  0.06250  0.27333  1.0000 -0.5311303197
O   O24       1.0  0.82926  0.71070  0.99439  1.0000 -0.5311303197
O   O25       1.0  0.82308  0.79140  0.06339  1.0000 -0.5457208036
O   O26       1.0  0.73701  0.72130  0.05097  1.0000 -0.5099011311
O   O27       1.0  0.16366  0.74690  0.45052  1.0000 -0.5372629343
O   O28       1.0  0.23370  0.91910  0.20868  1.0000 -0.5203603199
O   O29       1.0  0.23553  0.77700  0.08163  1.0000 -0.5203603199
O   O30       1.0  0.26703  0.88920  0.53633  1.0000 -0.4586818545
O   O31       1.0  0.24711  0.39280  0.50208  1.0000 -0.5311303197
O   O32       1.0  0.74385  0.57730  0.17890  1.0000 -0.5099011311
O   O33       1.0  0.24972  0.93170  0.32570  1.0000 -0.500349148
O   O34       1.0  0.25003  0.81060  0.45904  1.0000 -0.500349148
O   O35       1.0  0.32202  0.91920  0.27885  1.0000 -0.5203603199
O   O36       1.0  0.26394  0.15290  0.52384  1.0000 -0.4835204361
O   O37       1.0  0.25306  0.65240  0.51276  1.0000 -0.5565685062
O   O38       1.0  0.76520  0.56410  0.29568  1.0000 -0.5099011311
O   O39       1.0  0.75860  0.68290  0.43021  1.0000 -0.500349148
O   O40       1.0  0.32910  0.72470  0.09350  1.0000 -0.5099011311
O   O41       1.0  0.16037  0.92770  0.25654  1.0000 -0.5311303197
O   O42       1.0  0.83487  0.57560  0.24676  1.0000 -0.5311303197
O   O43       1.0  0.66649  0.73280  0.41946  1.0000 -0.5099011311
O   O44       1.0  0.33560  0.33300  0.50580  1.0000 -0.5203603199
O   O45       1.0  0.17285  0.83470  0.52105  1.0000 -0.5565685062
O   O46       1.0  0.33814  0.71380  0.51831  1.0000 -0.4511087193
O   O47       1.0  0.67321  0.56250  0.22667  1.0000 -0.5311303197
O   O48       1.0  0.17074  0.21070  0.50561  1.0000 -0.5311303197
O   O49       1.0  0.82308  0.70860  0.56339  1.0000 -0.5457208036
O   O50       1.0  0.73701  0.77870  0.55097  1.0000 -0.5099011311
O   O51       1.0  0.16366  0.75310  0.95052  1.0000 -0.5372629343
O   O52       1.0  0.23370  0.58090  0.70868  1.0000 -0.5203603199
O   O53       1.0  0.23553  0.72300  0.58163  1.0000 -0.5203603199
O   O54       1.0  0.26703  0.61080  0.03633  1.0000 -0.4586818545
O   O55       1.0  0.24711  0.10720  0.00208  1.0000 -0.5311303197
O   O56       1.0  0.74385  0.92270  0.67890  1.0000 -0.5203603199
O   O57       1.0  0.24972  0.56830  0.82570  1.0000 -0.500349148
O   O58       1.0  0.25003  0.68940  0.95904  1.0000 -0.500349148
O   O59       1.0  0.32202  0.58080  0.77885  1.0000 -0.5203603199
O   O60       1.0  0.26394  0.34710  0.02384  1.0000 -0.4835204361
O   O61       1.0  0.25306  0.84760  0.01276  1.0000 -0.5565685062
O   O62       1.0  0.76520  0.93590  0.79568  1.0000 -0.5099011311
O   O63       1.0  0.75860  0.81710  0.93021  1.0000 -0.500349148
O   O64       1.0  0.32910  0.77530  0.59350  1.0000 -0.5099011311
O   O65       1.0  0.16037  0.57230  0.75654  1.0000 -0.5311303197
O   O66       1.0  0.83487  0.92440  0.74676  1.0000 -0.5311303197
O   O67       1.0  0.66649  0.76720  0.91946  1.0000 -0.5099011311
O   O68       1.0  0.33560  0.16700  0.00580  1.0000 -0.5099011311
O   O69       1.0  0.17285  0.66530  0.02105  1.0000 -0.5565685062
O   O70       1.0  0.33814  0.78620  0.01831  1.0000 -0.4511087193
O   O71       1.0  0.67321  0.93750  0.72667  1.0000 -0.5311303197
O   O72       1.0  0.17074  0.28930  0.00561  1.0000 -0.5311303197
O   O73       1.0  0.17692  0.20860  0.93661  1.0000 -0.5457208036
O   O74       1.0  0.26299  0.27870  0.94903  1.0000 -0.5099011311
O   O75       1.0  0.83634  0.25310  0.54948  1.0000 -0.5372629343
O   O76       1.0  0.76630  0.08090  0.79132  1.0000 -0.5203603199
O   O77       1.0  0.76447  0.22300  0.91837  1.0000 -0.5203603199
O   O78       1.0  0.73297  0.11080  0.46367  1.0000 -0.4586818545
O   O79       1.0  0.75289  0.60720  0.49792  1.0000 -0.5311303197
O   O80       1.0  0.25615  0.42270  0.82110  1.0000 -0.5203603199
O   O81       1.0  0.75028  0.06830  0.67430  1.0000 -0.500349148
O   O82       1.0  0.74997  0.18940  0.54096  1.0000 -0.500349148
O   O83       1.0  0.67798  0.08080  0.72115  1.0000 -0.5203603199
O   O84       1.0  0.73606  0.84710  0.47616  1.0000 -0.4835204361
O   O85       1.0  0.74694  0.34760  0.48724  1.0000 -0.5565685062
O   O86       1.0  0.23480  0.43590  0.70432  1.0000 -0.5099011311
O   O87       1.0  0.24140  0.31710  0.56979  1.0000 -0.500349148
O   O88       1.0  0.67090  0.27530  0.90650  1.0000 -0.5099011311
O   O89       1.0  0.83963  0.07230  0.74346  1.0000 -0.5311303197
O   O90       1.0  0.16513  0.42440  0.75324  1.0000 -0.5311303197
O   O91       1.0  0.33351  0.26720  0.58054  1.0000 -0.500349148
O   O92       1.0  0.66440  0.66700  0.49420  1.0000 -0.5203603199
O   O93       1.0  0.82715  0.16530  0.47895  1.0000 -0.5565685062
O   O94       1.0  0.66186  0.28620  0.48169  1.0000 -0.4511087193
O   O95       1.0  0.32679  0.43750  0.77333  1.0000 -0.5311303197
O   O96       1.0  0.82926  0.78930  0.49439  1.0000 -0.5311303197
