# DDEC6 charges by PACMAN v1.1 (https://github.com/mtap-research/PACMAN-charge/)
data_2024[Zn][nan]3[ASR]2
_chemical_formula_sum              "Zn4 H12 C34 O20"
_cell_length_a       9.867
_cell_length_b       12.0062
_cell_length_c       13.1276
_cell_angle_alpha    115.459
_cell_angle_beta     93.033
_cell_angle_gamma    91.808

_symmetry_space_group_name_H-M    "P 1"
_symmetry_Int_Tables_number       1

loop_
  _symmetry_equiv_pos_as_xyz
  'x, y, z'

loop_
  _atom_site_type_symbol
  _atom_site_label
  _atom_site_symmetry_multiplicity
  _atom_site_fract_x
  _atom_site_fract_y
  _atom_site_fract_z
  _atom_site_occupancy
  _atom_site_charge
Zn  Zn1       1.0  0.50674  0.97700  0.96068  1.0000 1.0553578439
Zn  Zn2       1.0  0.68958  0.72037  0.82069  1.0000 1.013113052
Zn  Zn3       1.0  0.59288  0.24762  0.15037  1.0000 0.9818628731
Zn  Zn4       1.0  0.63984  0.99616  0.20503  1.0000 1.0330055061
H   H1        1.0  0.29891  0.86494  0.27017  1.0000 0.1317039185
H   H2        1.0  0.89269  0.80484  0.23267  1.0000 0.1212875623
H   H3        1.0  0.08983  0.85542  0.99438  1.0000 0.1457868222
H   H4        1.0  0.98614  0.85951  0.56235  1.0000 0.1317039185
H   H5        1.0  0.74408  0.55036  0.46164  1.0000 0.1400272812
H   H6        1.0  0.97287  0.60275  0.23848  1.0000 0.1212875623
H   H7        1.0  0.56786  0.40281  0.90145  1.0000 0.1400272812
H   H8        1.0  0.29216  0.11573  0.75440  1.0000 0.1400272812
H   H9        1.0  0.32377  0.37336  0.63657  1.0000 0.1212875623
H   H10       1.0  0.97301  0.13178  0.44406  1.0000 0.1400272812
H   H11       1.0  0.16334  0.17177  0.20102  1.0000 0.1457868222
H   H12       1.0  0.38027  0.18330  0.47316  1.0000 0.1317039185
C   C1        1.0  0.34560  0.90130  0.08970  1.0000 0.5921712819
C   C2        1.0  0.21560  0.86660  0.12700  1.0000 -0.0182018669
C   C3        1.0  0.21680  0.85540  0.22830  1.0000 -0.0997514672
C   C4        1.0  0.09770  0.83010  0.26740  1.0000 -0.0113230804
C   C5        1.0  0.97360  0.81900  0.20560  1.0000 -0.1216843666
C   C6        1.0  0.97150  0.82900  0.10370  1.0000 -0.0030359089
C   C7        1.0  0.83950  0.81530  0.03570  1.0000 0.6022744778
C   C8        1.0  0.09140  0.85100  0.06340  1.0000 -0.0885126861
C   C9        1.0  0.10540  0.81800  0.37570  1.0000 0.3694407049
C   C10       1.0  0.99500  0.74310  0.39620  1.0000 -0.0030359089
C   C11       1.0  0.95230  0.78370  0.50580  1.0000 -0.0885126861
C   C12       1.0  0.85900  0.71070  0.53030  1.0000 -0.0113230804
C   C13       1.0  0.81480  0.75430  0.64820  1.0000 0.5504604283
C   C14       1.0  0.80720  0.59830  0.44520  1.0000 -0.0808588114
C   C15       1.0  0.84830  0.55630  0.33550  1.0000 -0.0182018669
C   C16       1.0  0.79230  0.43680  0.24410  1.0000 0.5550426546
C   C17       1.0  0.94400  0.62990  0.31120  1.0000 -0.1216843666
C   C18       1.0  0.51830  0.52400  0.77300  1.0000 0.5390546623
C   C19       1.0  0.45530  0.40670  0.77010  1.0000 -0.0030359089
C   C20       1.0  0.49760  0.36080  0.84670  1.0000 -0.0746713203
C   C21       1.0  0.43580  0.25270  0.84240  1.0000 -0.0330446732
C   C22       1.0  0.47790  0.20360  0.92520  1.0000 0.6022744778
C   C23       1.0  0.33280  0.18870  0.75860  1.0000 -0.0885126861
C   C24       1.0  0.29040  0.23340  0.68080  1.0000 -0.0030359089
C   C25       1.0  0.35230  0.34290  0.68790  1.0000 -0.1216843666
C   C26       1.0  0.17460  0.16740  0.59590  1.0000 0.3800262514
C   C27       1.0  0.17570  0.16660  0.48160  1.0000 0.0010832642
C   C28       1.0  0.05330  0.14570  0.41610  1.0000 -0.0997514672
C   C29       1.0  0.04910  0.14510  0.31020  1.0000 -0.0113230804
C   C30       1.0  0.91520  0.11490  0.24010  1.0000 0.5735624734
C   C31       1.0  0.16680  0.16620  0.26960  1.0000 -0.0997514672
C   C32       1.0  0.29200  0.17950  0.32880  1.0000 0.0010832642
C   C33       1.0  0.42250  0.19050  0.27810  1.0000 0.5735624734
C   C34       1.0  0.29690  0.17750  0.43420  1.0000 -0.1216843666
O   O1        1.0  0.33750  0.92580  0.00520  1.0000 -0.4813487527
O   O2        1.0  0.45250  0.90500  0.14590  1.0000 -0.5201137063
O   O3        1.0  0.84930  0.77960  0.93100  1.0000 -0.472891092
O   O4        1.0  0.73080  0.83940  0.08340  1.0000 -0.5201137063
O   O5        1.0  0.19950  0.86790  0.44640  1.0000 -0.3628938046
O   O6        1.0  0.84240  0.38930  0.15270  1.0000 -0.4127631035
O   O7        1.0  0.68560  0.38930  0.26610  1.0000 -0.5013107754
O   O8        1.0  0.82550  0.86380  0.71330  1.0000 -0.3808492717
O   O9        1.0  0.76300  0.67160  0.67210  1.0000 -0.4557796714
O   O10       1.0  0.57090  0.85060  0.83150  1.0000 -0.6747188267
O   O11       1.0  0.64140  0.07350  0.08620  1.0000 -0.8283260164
O   O12       1.0  0.62090  0.57380  0.83970  1.0000 -0.472891092
O   O13       1.0  0.47310  0.56400  0.70880  1.0000 -0.3886165318
O   O14       1.0  0.54700  0.27710  0.01390  1.0000 -0.4895839986
O   O15       1.0  0.44030  0.09420  0.90240  1.0000 -0.4813487527
O   O16       1.0  0.07970  0.11890  0.62010  1.0000 -0.3628938046
O   O17       1.0  0.81590  0.09110  0.28370  1.0000 -0.5013107754
O   O18       1.0  0.91320  0.10980  0.14250  1.0000 -0.4127631035
O   O19       1.0  0.52930  0.16440  0.31280  1.0000 -0.4895839986
O   O20       1.0  0.41220  0.22820  0.20120  1.0000 -0.5013107754
