# DDEC6 charges by PACMAN v1.1 (https://github.com/mtap-research/PACMAN-charge/)
data_2024[Cd][nan]3[ASR]1
_chemical_formula_sum              "Cd18 H144 C252 N12 O72"
_cell_length_a       25.7679
_cell_length_b       25.7679
_cell_length_c       25.7679
_cell_angle_alpha    107.628
_cell_angle_beta     107.628
_cell_angle_gamma    107.628

_symmetry_space_group_name_H-M    "P 1"
_symmetry_Int_Tables_number       1

loop_
  _symmetry_equiv_pos_as_xyz
  'x, y, z'

loop_
  _atom_site_type_symbol
  _atom_site_label
  _atom_site_symmetry_multiplicity
  _atom_site_fract_x
  _atom_site_fract_y
  _atom_site_fract_z
  _atom_site_occupancy
  _atom_site_charge
Cd  Cd1       1.0  0.50000  0.50000  0.00000  1.0000 1.1213762597
Cd  Cd2       1.0  0.50000  0.00000  0.50000  1.0000 1.1213762597
Cd  Cd3       1.0  0.00000  0.50000  0.50000  1.0000 1.1213762597
Cd  Cd4       1.0  0.00000  0.50000  0.00000  1.0000 1.1213762597
Cd  Cd5       1.0  0.00000  0.00000  0.50000  1.0000 1.1213762597
Cd  Cd6       1.0  0.50000  0.00000  0.00000  1.0000 1.1213762597
Cd  Cd7       1.0  0.01949  0.12216  0.45367  1.0000 1.0411721802
Cd  Cd8       1.0  0.12216  0.45367  0.01949  1.0000 1.0411721802
Cd  Cd9       1.0  0.45367  0.01949  0.12216  1.0000 1.0411721802
Cd  Cd10      1.0  0.48051  0.04633  0.37784  1.0000 1.0411721802
Cd  Cd11      1.0  0.37784  0.48051  0.04633  1.0000 1.0411721802
Cd  Cd12      1.0  0.04633  0.37784  0.48051  1.0000 1.0411721802
Cd  Cd13      1.0  0.98051  0.87784  0.54633  1.0000 1.0411721802
Cd  Cd14      1.0  0.87784  0.54633  0.98051  1.0000 1.0411721802
Cd  Cd15      1.0  0.54633  0.98051  0.87784  1.0000 1.0411721802
Cd  Cd16      1.0  0.51949  0.95367  0.62216  1.0000 1.0411721802
Cd  Cd17      1.0  0.62216  0.51949  0.95367  1.0000 1.0411721802
Cd  Cd18      1.0  0.95367  0.62216  0.51949  1.0000 1.0411721802
H   H1        1.0  0.59498  0.97475  0.23243  1.0000 0.1201413882
H   H2        1.0  0.97475  0.23243  0.59498  1.0000 0.1201413882
H   H3        1.0  0.23243  0.59498  0.97475  1.0000 0.1201413882
H   H4        1.0  0.90502  0.26757  0.52525  1.0000 0.1201413882
H   H5        1.0  0.52525  0.90502  0.26757  1.0000 0.1201413882
H   H6        1.0  0.26757  0.52525  0.90502  1.0000 0.1201413882
H   H7        1.0  0.40502  0.02525  0.76757  1.0000 0.1201413882
H   H8        1.0  0.02525  0.76757  0.40502  1.0000 0.1201413882
H   H9        1.0  0.76757  0.40502  0.02525  1.0000 0.1201413882
H   H10       1.0  0.09498  0.73243  0.47475  1.0000 0.1201413882
H   H11       1.0  0.47475  0.09498  0.73243  1.0000 0.1201413882
H   H12       1.0  0.73243  0.47475  0.09498  1.0000 0.1201413882
H   H13       1.0  0.84302  0.88353  0.32804  1.0000 0.1201413882
H   H14       1.0  0.88353  0.32804  0.84302  1.0000 0.1201413882
H   H15       1.0  0.32804  0.84302  0.88353  1.0000 0.1201413882
H   H16       1.0  0.65698  0.17196  0.61647  1.0000 0.1201413882
H   H17       1.0  0.61647  0.65698  0.17196  1.0000 0.1201413882
H   H18       1.0  0.17196  0.61647  0.65698  1.0000 0.1201413882
H   H19       1.0  0.15698  0.11647  0.67196  1.0000 0.1201413882
H   H20       1.0  0.11647  0.67196  0.15698  1.0000 0.1201413882
H   H21       1.0  0.67196  0.15698  0.11647  1.0000 0.1201413882
H   H22       1.0  0.34302  0.82804  0.38353  1.0000 0.1201413882
H   H23       1.0  0.38353  0.34302  0.82804  1.0000 0.1201413882
H   H24       1.0  0.82804  0.38353  0.34302  1.0000 0.1201413882
H   H25       1.0  0.57844  0.77941  0.11436  1.0000 0.1201413882
H   H26       1.0  0.77941  0.11436  0.57844  1.0000 0.1201413882
H   H27       1.0  0.11436  0.57844  0.77941  1.0000 0.1201413882
H   H28       1.0  0.92156  0.38564  0.72059  1.0000 0.1201413882
H   H29       1.0  0.72059  0.92156  0.38564  1.0000 0.1201413882
H   H30       1.0  0.38564  0.72059  0.92156  1.0000 0.1201413882
H   H31       1.0  0.42156  0.22059  0.88564  1.0000 0.1201413882
H   H32       1.0  0.22059  0.88564  0.42156  1.0000 0.1201413882
H   H33       1.0  0.88564  0.42156  0.22059  1.0000 0.1201413882
H   H34       1.0  0.07844  0.61436  0.27941  1.0000 0.1201413882
H   H35       1.0  0.27941  0.07844  0.61436  1.0000 0.1201413882
H   H36       1.0  0.61436  0.27941  0.07844  1.0000 0.1201413882
H   H37       1.0  0.56760  0.91779  0.05818  1.0000 0.1272913336
H   H38       1.0  0.91779  0.05818  0.56760  1.0000 0.1272913336
H   H39       1.0  0.05818  0.56760  0.91779  1.0000 0.1272913336
H   H40       1.0  0.93240  0.44182  0.58221  1.0000 0.1272913336
H   H41       1.0  0.58221  0.93240  0.44182  1.0000 0.1272913336
H   H42       1.0  0.44182  0.58221  0.93240  1.0000 0.1272913336
H   H43       1.0  0.43240  0.08221  0.94182  1.0000 0.1272913336
H   H44       1.0  0.08221  0.94182  0.43240  1.0000 0.1272913336
H   H45       1.0  0.94182  0.43240  0.08221  1.0000 0.1272913336
H   H46       1.0  0.06760  0.55818  0.41779  1.0000 0.1272913336
H   H47       1.0  0.41779  0.06760  0.55818  1.0000 0.1272913336
H   H48       1.0  0.55818  0.41779  0.06760  1.0000 0.1272913336
H   H49       1.0  0.62918  0.86776  0.07411  1.0000 0.1272913336
H   H50       1.0  0.86776  0.07411  0.62918  1.0000 0.1272913336
H   H51       1.0  0.07411  0.62918  0.86776  1.0000 0.1272913336
H   H52       1.0  0.87082  0.42589  0.63224  1.0000 0.1272913336
H   H53       1.0  0.63224  0.87082  0.42589  1.0000 0.1272913336
H   H54       1.0  0.42589  0.63224  0.87082  1.0000 0.1272913336
H   H55       1.0  0.37082  0.13224  0.92589  1.0000 0.1272913336
H   H56       1.0  0.13224  0.92589  0.37082  1.0000 0.1272913336
H   H57       1.0  0.92589  0.37082  0.13224  1.0000 0.1272913336
H   H58       1.0  0.12918  0.57411  0.36776  1.0000 0.1272913336
H   H59       1.0  0.36776  0.12918  0.57411  1.0000 0.1272913336
H   H60       1.0  0.57411  0.36776  0.12918  1.0000 0.1272913336
H   H61       1.0  0.74532  0.82956  0.24906  1.0000 0.1135098324
H   H62       1.0  0.82956  0.24906  0.74532  1.0000 0.1135098324
H   H63       1.0  0.24906  0.74532  0.82956  1.0000 0.1135098324
H   H64       1.0  0.75468  0.25094  0.67044  1.0000 0.1135098324
H   H65       1.0  0.67044  0.75468  0.25094  1.0000 0.1135098324
H   H66       1.0  0.25094  0.67044  0.75468  1.0000 0.1135098324
H   H67       1.0  0.25468  0.17044  0.75094  1.0000 0.1135098324
H   H68       1.0  0.17044  0.75094  0.25468  1.0000 0.1135098324
H   H69       1.0  0.75094  0.25468  0.17044  1.0000 0.1135098324
H   H70       1.0  0.24532  0.74906  0.32956  1.0000 0.1135098324
H   H71       1.0  0.32956  0.24532  0.74906  1.0000 0.1135098324
H   H72       1.0  0.74906  0.32956  0.24532  1.0000 0.1135098324
H   H73       1.0  0.86070  0.03208  0.29944  1.0000 0.1201413882
H   H74       1.0  0.03208  0.29944  0.86070  1.0000 0.1201413882
H   H75       1.0  0.29944  0.86070  0.03208  1.0000 0.1201413882
H   H76       1.0  0.63930  0.20056  0.46792  1.0000 0.1201413882
H   H77       1.0  0.46792  0.63930  0.20056  1.0000 0.1201413882
H   H78       1.0  0.20056  0.46792  0.63930  1.0000 0.1201413882
H   H79       1.0  0.13930  0.96792  0.70056  1.0000 0.1201413882
H   H80       1.0  0.96792  0.70056  0.13930  1.0000 0.1201413882
H   H81       1.0  0.70056  0.13930  0.96792  1.0000 0.1201413882
H   H82       1.0  0.36070  0.79944  0.53208  1.0000 0.1201413882
H   H83       1.0  0.53208  0.36070  0.79944  1.0000 0.1201413882
H   H84       1.0  0.79944  0.53208  0.36070  1.0000 0.1201413882
H   H85       1.0  0.66038  0.92808  0.24977  1.0000 0.1201413882
H   H86       1.0  0.92808  0.24977  0.66038  1.0000 0.1201413882
H   H87       1.0  0.24977  0.66038  0.92808  1.0000 0.1201413882
H   H88       1.0  0.83962  0.25023  0.57192  1.0000 0.1201413882
H   H89       1.0  0.57192  0.83962  0.25023  1.0000 0.1201413882
H   H90       1.0  0.25023  0.57192  0.83962  1.0000 0.1201413882
H   H91       1.0  0.33962  0.07192  0.75023  1.0000 0.1201413882
H   H92       1.0  0.07192  0.75023  0.33962  1.0000 0.1201413882
H   H93       1.0  0.75023  0.33962  0.07192  1.0000 0.1201413882
H   H94       1.0  0.16038  0.74977  0.42808  1.0000 0.1201413882
H   H95       1.0  0.42808  0.16038  0.74977  1.0000 0.1201413882
H   H96       1.0  0.74977  0.42808  0.16038  1.0000 0.1201413882
H   H97       1.0  0.76725  0.97635  0.21421  1.0000 0.1272913336
H   H98       1.0  0.97635  0.21421  0.76725  1.0000 0.1272913336
H   H99       1.0  0.21421  0.76725  0.97635  1.0000 0.1272913336
H   H100      1.0  0.73275  0.28579  0.52365  1.0000 0.1272913336
H   H101      1.0  0.52365  0.73275  0.28579  1.0000 0.1272913336
H   H102      1.0  0.28579  0.52365  0.73275  1.0000 0.1272913336
H   H103      1.0  0.23275  0.02365  0.78579  1.0000 0.1272913336
H   H104      1.0  0.02365  0.78579  0.23275  1.0000 0.1272913336
H   H105      1.0  0.78579  0.23275  0.02365  1.0000 0.1272913336
H   H106      1.0  0.26725  0.71421  0.47635  1.0000 0.1272913336
H   H107      1.0  0.47635  0.26725  0.71421  1.0000 0.1272913336
H   H108      1.0  0.71421  0.47635  0.26725  1.0000 0.1272913336
H   H109      1.0  0.54231  0.67901  0.04854  1.0000 0.1201413882
H   H110      1.0  0.67901  0.04854  0.54231  1.0000 0.1201413882
H   H111      1.0  0.04854  0.54231  0.67901  1.0000 0.1201413882
H   H112      1.0  0.95769  0.45146  0.82099  1.0000 0.1201413882
H   H113      1.0  0.82099  0.95769  0.45146  1.0000 0.1201413882
H   H114      1.0  0.45146  0.82099  0.95769  1.0000 0.1201413882
H   H115      1.0  0.45769  0.32099  0.95146  1.0000 0.1201413882
H   H116      1.0  0.32099  0.95146  0.45769  1.0000 0.1201413882
H   H117      1.0  0.95146  0.45769  0.32099  1.0000 0.1201413882
H   H118      1.0  0.04231  0.54854  0.17901  1.0000 0.1201413882
H   H119      1.0  0.17901  0.04231  0.54854  1.0000 0.1201413882
H   H120      1.0  0.54854  0.17901  0.04231  1.0000 0.1201413882
H   H121      1.0  0.74914  0.80593  0.14246  1.0000 0.1201413882
H   H122      1.0  0.80593  0.14246  0.74914  1.0000 0.1201413882
H   H123      1.0  0.14246  0.74914  0.80593  1.0000 0.1201413882
H   H124      1.0  0.75086  0.35754  0.69407  1.0000 0.1201413882
H   H125      1.0  0.69407  0.75086  0.35754  1.0000 0.1201413882
H   H126      1.0  0.35754  0.69407  0.75086  1.0000 0.1201413882
H   H127      1.0  0.25086  0.19407  0.85754  1.0000 0.1201413882
H   H128      1.0  0.19407  0.85754  0.25086  1.0000 0.1201413882
H   H129      1.0  0.85754  0.25086  0.19407  1.0000 0.1201413882
H   H130      1.0  0.24914  0.64246  0.30593  1.0000 0.1201413882
H   H131      1.0  0.30593  0.24914  0.64246  1.0000 0.1201413882
H   H132      1.0  0.64246  0.30593  0.24914  1.0000 0.1201413882
H   H133      1.0  0.71296  0.70558  0.07446  1.0000 0.1201413882
H   H134      1.0  0.70558  0.07446  0.71296  1.0000 0.1201413882
H   H135      1.0  0.07446  0.71296  0.70558  1.0000 0.1201413882
H   H136      1.0  0.78704  0.42554  0.79442  1.0000 0.1201413882
H   H137      1.0  0.79442  0.78704  0.42554  1.0000 0.1201413882
H   H138      1.0  0.42554  0.79442  0.78704  1.0000 0.1201413882
H   H139      1.0  0.28704  0.29442  0.92554  1.0000 0.1201413882
H   H140      1.0  0.29442  0.92554  0.28704  1.0000 0.1201413882
H   H141      1.0  0.92554  0.28704  0.29442  1.0000 0.1201413882
H   H142      1.0  0.21296  0.57446  0.20558  1.0000 0.1201413882
H   H143      1.0  0.20558  0.21296  0.57446  1.0000 0.1201413882
H   H144      1.0  0.57446  0.20558  0.21296  1.0000 0.1201413882
C   C1        1.0  0.66810  0.80378  0.13404  1.0000 0.1830744829
C   C2        1.0  0.80378  0.13404  0.66810  1.0000 0.1830744829
C   C3        1.0  0.13404  0.66810  0.80378  1.0000 0.1830744829
C   C4        1.0  0.83190  0.36596  0.69622  1.0000 0.1830744829
C   C5        1.0  0.69622  0.83190  0.36596  1.0000 0.1830744829
C   C6        1.0  0.36596  0.69622  0.83190  1.0000 0.1830744829
C   C7        1.0  0.33190  0.19622  0.86596  1.0000 0.1830744829
C   C8        1.0  0.19622  0.86596  0.33190  1.0000 0.1830744829
C   C9        1.0  0.86596  0.33190  0.19622  1.0000 0.1830744829
C   C10       1.0  0.16810  0.63404  0.30378  1.0000 0.1830744829
C   C11       1.0  0.30378  0.16810  0.63404  1.0000 0.1830744829
C   C12       1.0  0.63404  0.30378  0.16810  1.0000 0.1830744829
C   C13       1.0  0.92137  0.99797  0.37520  1.0000 0.5919761892
C   C14       1.0  0.99797  0.37520  0.92137  1.0000 0.5919761892
C   C15       1.0  0.37520  0.92137  0.99797  1.0000 0.5919761892
C   C16       1.0  0.57863  0.12480  0.50203  1.0000 0.5919761892
C   C17       1.0  0.50203  0.57863  0.12480  1.0000 0.5919761892
C   C18       1.0  0.12480  0.50203  0.57863  1.0000 0.5919761892
C   C19       1.0  0.07863  0.00203  0.62480  1.0000 0.5919761892
C   C20       1.0  0.00203  0.62480  0.07863  1.0000 0.5919761892
C   C21       1.0  0.62480  0.07863  0.00203  1.0000 0.5919761892
C   C22       1.0  0.42137  0.87520  0.49797  1.0000 0.5919761892
C   C23       1.0  0.49797  0.42137  0.87520  1.0000 0.5919761892
C   C24       1.0  0.87520  0.49797  0.42137  1.0000 0.5919761892
C   C25       1.0  0.60224  0.95332  0.20036  1.0000 -0.091905111
C   C26       1.0  0.95332  0.20036  0.60224  1.0000 -0.091905111
C   C27       1.0  0.20036  0.60224  0.95332  1.0000 -0.091905111
C   C28       1.0  0.89776  0.29964  0.54668  1.0000 -0.091905111
C   C29       1.0  0.54668  0.89776  0.29964  1.0000 -0.091905111
C   C30       1.0  0.29964  0.54668  0.89776  1.0000 -0.091905111
C   C31       1.0  0.39776  0.04668  0.79964  1.0000 -0.091905111
C   C32       1.0  0.04668  0.79964  0.39776  1.0000 -0.091905111
C   C33       1.0  0.79964  0.39776  0.04668  1.0000 -0.091905111
C   C34       1.0  0.10224  0.70036  0.45332  1.0000 -0.091905111
C   C35       1.0  0.45332  0.10224  0.70036  1.0000 -0.091905111
C   C36       1.0  0.70036  0.45332  0.10224  1.0000 -0.091905111
C   C37       1.0  0.60087  0.61823  0.01215  1.0000 0.584216484
C   C38       1.0  0.61823  0.01215  0.60087  1.0000 0.584216484
C   C39       1.0  0.01215  0.60087  0.61823  1.0000 0.584216484
C   C40       1.0  0.89913  0.48785  0.88177  1.0000 0.584216484
C   C41       1.0  0.88177  0.89913  0.48785  1.0000 0.584216484
C   C42       1.0  0.48785  0.88177  0.89913  1.0000 0.584216484
C   C43       1.0  0.39913  0.38177  0.98785  1.0000 0.584216484
C   C44       1.0  0.38177  0.98785  0.39913  1.0000 0.584216484
C   C45       1.0  0.98785  0.39913  0.38177  1.0000 0.584216484
C   C46       1.0  0.10087  0.51215  0.11823  1.0000 0.584216484
C   C47       1.0  0.11823  0.10087  0.51215  1.0000 0.584216484
C   C48       1.0  0.51215  0.11823  0.10087  1.0000 0.584216484
C   C49       1.0  0.65088  0.89475  0.16469  1.0000 0.1677823947
C   C50       1.0  0.89475  0.16469  0.65088  1.0000 0.1677823947
C   C51       1.0  0.16469  0.65088  0.89475  1.0000 0.1677823947
C   C52       1.0  0.84912  0.33531  0.60525  1.0000 0.1677823947
C   C53       1.0  0.60525  0.84912  0.33531  1.0000 0.1677823947
C   C54       1.0  0.33531  0.60525  0.84912  1.0000 0.1677823947
C   C55       1.0  0.34912  0.10525  0.83531  1.0000 0.1677823947
C   C56       1.0  0.10525  0.83531  0.34912  1.0000 0.1677823947
C   C57       1.0  0.83531  0.34912  0.10525  1.0000 0.1677823947
C   C58       1.0  0.15088  0.66469  0.39475  1.0000 0.1677823947
C   C59       1.0  0.39475  0.15088  0.66469  1.0000 0.1677823947
C   C60       1.0  0.66469  0.39475  0.15088  1.0000 0.1677823947
C   C61       1.0  0.82666  0.90285  0.30598  1.0000 -0.0833101074
C   C62       1.0  0.90285  0.30598  0.82666  1.0000 -0.0833101074
C   C63       1.0  0.30598  0.82666  0.90285  1.0000 -0.0833101074
C   C64       1.0  0.67334  0.19402  0.59715  1.0000 -0.0833101074
C   C65       1.0  0.59715  0.67334  0.19402  1.0000 -0.0833101074
C   C66       1.0  0.19402  0.59715  0.67334  1.0000 -0.0833101074
C   C67       1.0  0.17334  0.09715  0.69402  1.0000 -0.0833101074
C   C68       1.0  0.09715  0.69402  0.17334  1.0000 -0.0833101074
C   C69       1.0  0.69402  0.17334  0.09715  1.0000 -0.0833101074
C   C70       1.0  0.32666  0.80598  0.40285  1.0000 -0.0833101074
C   C71       1.0  0.40285  0.32666  0.80598  1.0000 -0.0833101074
C   C72       1.0  0.80598  0.40285  0.32666  1.0000 -0.0833101074
C   C73       1.0  0.57473  0.94932  0.14322  1.0000 -0.0326325232
C   C74       1.0  0.94932  0.14322  0.57473  1.0000 -0.0326325232
C   C75       1.0  0.14322  0.57473  0.94932  1.0000 -0.0326325232
C   C76       1.0  0.92527  0.35678  0.55068  1.0000 -0.0326325232
C   C77       1.0  0.55068  0.92527  0.35678  1.0000 -0.0326325232
C   C78       1.0  0.35678  0.55068  0.92527  1.0000 -0.0326325232
C   C79       1.0  0.42527  0.05068  0.85678  1.0000 -0.0326325232
C   C80       1.0  0.05068  0.85678  0.42527  1.0000 -0.0326325232
C   C81       1.0  0.85678  0.42527  0.05068  1.0000 -0.0326325232
C   C82       1.0  0.07473  0.64322  0.44932  1.0000 -0.0326325232
C   C83       1.0  0.44932  0.07473  0.64322  1.0000 -0.0326325232
C   C84       1.0  0.64322  0.44932  0.07473  1.0000 -0.0326325232
C   C85       1.0  0.62373  0.68258  0.05562  1.0000 -0.0480324286
C   C86       1.0  0.68258  0.05562  0.62373  1.0000 -0.0480324286
C   C87       1.0  0.05562  0.62373  0.68258  1.0000 -0.0480324286
C   C88       1.0  0.87627  0.44438  0.81742  1.0000 -0.0480324286
C   C89       1.0  0.81742  0.87627  0.44438  1.0000 -0.0480324286
C   C90       1.0  0.44438  0.81742  0.87627  1.0000 -0.0480324286
C   C91       1.0  0.37627  0.31742  0.94438  1.0000 -0.0480324286
C   C92       1.0  0.31742  0.94438  0.37627  1.0000 -0.0480324286
C   C93       1.0  0.94438  0.37627  0.31742  1.0000 -0.0480324286
C   C94       1.0  0.12373  0.55562  0.18258  1.0000 -0.0480324286
C   C95       1.0  0.18258  0.12373  0.55562  1.0000 -0.0480324286
C   C96       1.0  0.55562  0.18258  0.12373  1.0000 -0.0480324286
C   C97       1.0  0.86049  0.96333  0.32195  1.0000 -0.0557182079
C   C98       1.0  0.96333  0.32195  0.86049  1.0000 -0.0557182079
C   C99       1.0  0.32195  0.86049  0.96333  1.0000 -0.0557182079
C   C100      1.0  0.63951  0.17805  0.53667  1.0000 -0.0557182079
C   C101      1.0  0.53667  0.63951  0.17805  1.0000 -0.0557182079
C   C102      1.0  0.17805  0.53667  0.63951  1.0000 -0.0557182079
C   C103      1.0  0.13951  0.03667  0.67805  1.0000 -0.0557182079
C   C104      1.0  0.03667  0.67805  0.13951  1.0000 -0.0557182079
C   C105      1.0  0.67805  0.13951  0.03667  1.0000 -0.0557182079
C   C106      1.0  0.36049  0.82195  0.46333  1.0000 -0.0557182079
C   C107      1.0  0.46333  0.36049  0.82195  1.0000 -0.0557182079
C   C108      1.0  0.82195  0.46333  0.36049  1.0000 -0.0557182079
C   C109      1.0  0.60592  0.76442  0.10613  1.0000 -0.1964956004
C   C110      1.0  0.76442  0.10613  0.60592  1.0000 -0.1964956004
C   C111      1.0  0.10613  0.60592  0.76442  1.0000 -0.1964956004
C   C112      1.0  0.89408  0.39387  0.73558  1.0000 -0.1964956004
C   C113      1.0  0.73558  0.89408  0.39387  1.0000 -0.1964956004
C   C114      1.0  0.39387  0.73558  0.89408  1.0000 -0.1964956004
C   C115      1.0  0.39408  0.23558  0.89387  1.0000 -0.1964956004
C   C116      1.0  0.23558  0.89387  0.39408  1.0000 -0.1964956004
C   C117      1.0  0.89387  0.39408  0.23558  1.0000 -0.1964956004
C   C118      1.0  0.10592  0.60613  0.26442  1.0000 -0.1964956004
C   C119      1.0  0.26442  0.10592  0.60613  1.0000 -0.1964956004
C   C120      1.0  0.60613  0.26442  0.10592  1.0000 -0.1964956004
C   C121      1.0  0.58558  0.91904  0.09689  1.0000 -0.0833101074
C   C122      1.0  0.91904  0.09689  0.58558  1.0000 -0.0833101074
C   C123      1.0  0.09689  0.58558  0.91904  1.0000 -0.0833101074
C   C124      1.0  0.91442  0.40311  0.58096  1.0000 -0.0833101074
C   C125      1.0  0.58096  0.91442  0.40311  1.0000 -0.0833101074
C   C126      1.0  0.40311  0.58096  0.91442  1.0000 -0.0833101074
C   C127      1.0  0.41442  0.08096  0.90311  1.0000 -0.0833101074
C   C128      1.0  0.08096  0.90311  0.41442  1.0000 -0.0833101074
C   C129      1.0  0.90311  0.41442  0.08096  1.0000 -0.0833101074
C   C130      1.0  0.08558  0.59689  0.41904  1.0000 -0.0833101074
C   C131      1.0  0.41904  0.08558  0.59689  1.0000 -0.0833101074
C   C132      1.0  0.59689  0.41904  0.08558  1.0000 -0.0833101074
C   C133      1.0  0.62283  0.89017  0.10642  1.0000 -0.1834351538
C   C134      1.0  0.89017  0.10642  0.62283  1.0000 -0.1834351538
C   C135      1.0  0.10642  0.62283  0.89017  1.0000 -0.1834351538
C   C136      1.0  0.87717  0.39358  0.60983  1.0000 -0.1834351538
C   C137      1.0  0.60983  0.87717  0.39358  1.0000 -0.1834351538
C   C138      1.0  0.39358  0.60983  0.87717  1.0000 -0.1834351538
C   C139      1.0  0.37717  0.10983  0.89358  1.0000 -0.1834351538
C   C140      1.0  0.10983  0.89358  0.37717  1.0000 -0.1834351538
C   C141      1.0  0.89358  0.37717  0.10983  1.0000 -0.1834351538
C   C142      1.0  0.12283  0.60642  0.39017  1.0000 -0.1834351538
C   C143      1.0  0.39017  0.12283  0.60642  1.0000 -0.1834351538
C   C144      1.0  0.60642  0.39017  0.12283  1.0000 -0.1834351538
C   C145      1.0  0.76910  0.87018  0.25809  1.0000 -0.2052424117
C   C146      1.0  0.87018  0.25809  0.76910  1.0000 -0.2052424117
C   C147      1.0  0.25809  0.76910  0.87018  1.0000 -0.2052424117
C   C148      1.0  0.73090  0.24191  0.62982  1.0000 -0.2052424117
C   C149      1.0  0.62982  0.73090  0.24191  1.0000 -0.2052424117
C   C150      1.0  0.24191  0.62982  0.73090  1.0000 -0.2052424117
C   C151      1.0  0.23090  0.12982  0.74191  1.0000 -0.2052424117
C   C152      1.0  0.12982  0.74191  0.23090  1.0000 -0.2052424117
C   C153      1.0  0.74191  0.23090  0.12982  1.0000 -0.2052424117
C   C154      1.0  0.26910  0.75809  0.37018  1.0000 -0.2052424117
C   C155      1.0  0.37018  0.26910  0.75809  1.0000 -0.2052424117
C   C156      1.0  0.75809  0.37018  0.26910  1.0000 -0.2052424117
C   C157      1.0  0.83793  0.99061  0.28837  1.0000 -0.0833101074
C   C158      1.0  0.99061  0.28837  0.83793  1.0000 -0.0833101074
C   C159      1.0  0.28837  0.83793  0.99061  1.0000 -0.0833101074
C   C160      1.0  0.66207  0.21163  0.50939  1.0000 -0.0833101074
C   C161      1.0  0.50939  0.66207  0.21163  1.0000 -0.0833101074
C   C162      1.0  0.21163  0.50939  0.66207  1.0000 -0.0833101074
C   C163      1.0  0.16207  0.00939  0.71163  1.0000 -0.0833101074
C   C164      1.0  0.00939  0.71163  0.16207  1.0000 -0.0833101074
C   C165      1.0  0.71163  0.16207  0.00939  1.0000 -0.0833101074
C   C166      1.0  0.33793  0.78837  0.49061  1.0000 -0.0833101074
C   C167      1.0  0.49061  0.33793  0.78837  1.0000 -0.0833101074
C   C168      1.0  0.78837  0.49061  0.33793  1.0000 -0.0833101074
C   C169      1.0  0.64110  0.92538  0.21062  1.0000 -0.188619388
C   C170      1.0  0.92538  0.21062  0.64110  1.0000 -0.188619388
C   C171      1.0  0.21062  0.64110  0.92538  1.0000 -0.1964956004
C   C172      1.0  0.85890  0.28938  0.57462  1.0000 -0.188619388
C   C173      1.0  0.57462  0.85890  0.28938  1.0000 -0.188619388
C   C174      1.0  0.28938  0.57462  0.85890  1.0000 -0.1964956004
C   C175      1.0  0.35890  0.07462  0.78938  1.0000 -0.1964956004
C   C176      1.0  0.07462  0.78938  0.35890  1.0000 -0.1964956004
C   C177      1.0  0.78938  0.35890  0.07462  1.0000 -0.188619388
C   C178      1.0  0.14110  0.71062  0.42538  1.0000 -0.1964956004
C   C179      1.0  0.42538  0.14110  0.71062  1.0000 -0.1964956004
C   C180      1.0  0.71062  0.42538  0.14110  1.0000 -0.188619388
C   C181      1.0  0.74663  0.89757  0.22350  1.0000 0.1830744829
C   C182      1.0  0.89757  0.22350  0.74663  1.0000 0.1830744829
C   C183      1.0  0.22350  0.74663  0.89757  1.0000 0.1830744829
C   C184      1.0  0.75337  0.27650  0.60243  1.0000 0.1830744829
C   C185      1.0  0.60243  0.75337  0.27650  1.0000 0.1830744829
C   C186      1.0  0.27650  0.60243  0.75337  1.0000 0.1830744829
C   C187      1.0  0.25337  0.10243  0.77650  1.0000 0.1830744829
C   C188      1.0  0.10243  0.77650  0.25337  1.0000 0.1830744829
C   C189      1.0  0.77650  0.25337  0.10243  1.0000 0.1830744829
C   C190      1.0  0.24663  0.72350  0.39757  1.0000 0.1830744829
C   C191      1.0  0.39757  0.24663  0.72350  1.0000 0.1830744829
C   C192      1.0  0.72350  0.39757  0.24663  1.0000 0.1830744829
C   C193      1.0  0.78174  0.95776  0.23830  1.0000 -0.1964956004
C   C194      1.0  0.95776  0.23830  0.78174  1.0000 -0.1964956004
C   C195      1.0  0.23830  0.78174  0.95776  1.0000 -0.1964956004
C   C196      1.0  0.71826  0.26170  0.54224  1.0000 -0.1964956004
C   C197      1.0  0.54224  0.71826  0.26170  1.0000 -0.1964956004
C   C198      1.0  0.26170  0.54224  0.71826  1.0000 -0.1964956004
C   C199      1.0  0.21826  0.04224  0.76170  1.0000 -0.1964956004
C   C200      1.0  0.04224  0.76170  0.21826  1.0000 -0.1964956004
C   C201      1.0  0.76170  0.21826  0.04224  1.0000 -0.1964956004
C   C202      1.0  0.28174  0.73830  0.45776  1.0000 -0.1964956004
C   C203      1.0  0.45776  0.28174  0.73830  1.0000 -0.1964956004
C   C204      1.0  0.73830  0.45776  0.28174  1.0000 -0.1964956004
C   C205      1.0  0.58439  0.70481  0.06730  1.0000 -0.0833101074
C   C206      1.0  0.70481  0.06730  0.58439  1.0000 -0.0833101074
C   C207      1.0  0.06730  0.58439  0.70481  1.0000 -0.0833101074
C   C208      1.0  0.91561  0.43270  0.79519  1.0000 -0.0833101074
C   C209      1.0  0.79519  0.91561  0.43270  1.0000 -0.0833101074
C   C210      1.0  0.43270  0.79519  0.91561  1.0000 -0.0833101074
C   C211      1.0  0.41561  0.29519  0.93270  1.0000 -0.0833101074
C   C212      1.0  0.29519  0.93270  0.41561  1.0000 -0.0833101074
C   C213      1.0  0.93270  0.41561  0.29519  1.0000 -0.0833101074
C   C214      1.0  0.08439  0.56730  0.20481  1.0000 -0.0833101074
C   C215      1.0  0.20481  0.08439  0.56730  1.0000 -0.0833101074
C   C216      1.0  0.56730  0.20481  0.08439  1.0000 -0.0833101074
C   C217      1.0  0.70692  0.78058  0.12280  1.0000 -0.1964956004
C   C218      1.0  0.78058  0.12280  0.70692  1.0000 -0.1964956004
C   C219      1.0  0.12280  0.70692  0.78058  1.0000 -0.1964956004
C   C220      1.0  0.79308  0.37720  0.71942  1.0000 -0.1964956004
C   C221      1.0  0.71942  0.79308  0.37720  1.0000 -0.1964956004
C   C222      1.0  0.37720  0.71942  0.79308  1.0000 -0.1964956004
C   C223      1.0  0.29308  0.21942  0.87720  1.0000 -0.1964956004
C   C224      1.0  0.21942  0.87720  0.29308  1.0000 -0.1964956004
C   C225      1.0  0.87720  0.29308  0.21942  1.0000 -0.1964956004
C   C226      1.0  0.20692  0.62280  0.28058  1.0000 -0.1964956004
C   C227      1.0  0.28058  0.20692  0.62280  1.0000 -0.1964956004
C   C228      1.0  0.62280  0.28058  0.20692  1.0000 -0.1964956004
C   C229      1.0  0.68570  0.72068  0.08299  1.0000 -0.0833101074
C   C230      1.0  0.72068  0.08299  0.68570  1.0000 -0.0833101074
C   C231      1.0  0.08299  0.68570  0.72068  1.0000 -0.0833101074
C   C232      1.0  0.81430  0.41701  0.77932  1.0000 -0.0833101074
C   C233      1.0  0.77932  0.81430  0.41701  1.0000 -0.0833101074
C   C234      1.0  0.41701  0.77932  0.81430  1.0000 -0.0833101074
C   C235      1.0  0.31430  0.27932  0.91701  1.0000 -0.0833101074
C   C236      1.0  0.27932  0.91701  0.31430  1.0000 -0.0833101074
C   C237      1.0  0.91701  0.31430  0.27932  1.0000 -0.0833101074
C   C238      1.0  0.18570  0.58299  0.22068  1.0000 -0.0833101074
C   C239      1.0  0.22068  0.18570  0.58299  1.0000 -0.0833101074
C   C240      1.0  0.58299  0.22068  0.18570  1.0000 -0.0833101074
C   C241      1.0  0.53209  0.97804  0.13188  1.0000 0.5682219303
C   C242      1.0  0.97804  0.13188  0.53209  1.0000 0.5682219303
C   C243      1.0  0.13188  0.53209  0.97804  1.0000 0.5682219303
C   C244      1.0  0.96791  0.36812  0.52196  1.0000 0.5682219303
C   C245      1.0  0.52196  0.96791  0.36812  1.0000 0.5682219303
C   C246      1.0  0.36812  0.52196  0.96791  1.0000 0.5682219303
C   C247      1.0  0.46791  0.02196  0.86812  1.0000 0.5682219303
C   C248      1.0  0.02196  0.86812  0.46791  1.0000 0.5682219303
C   C249      1.0  0.86812  0.46791  0.02196  1.0000 0.5682219303
C   C250      1.0  0.03209  0.63188  0.47804  1.0000 0.5682219303
C   C251      1.0  0.47804  0.03209  0.63188  1.0000 0.5682219303
C   C252      1.0  0.63188  0.47804  0.03209  1.0000 0.5682219303
N   N1        1.0  0.68870  0.86448  0.17334  1.0000 -0.188619388
N   N2        1.0  0.86448  0.17334  0.68870  1.0000 -0.188619388
N   N3        1.0  0.17334  0.68870  0.86448  1.0000 -0.188619388
N   N4        1.0  0.81130  0.32666  0.63552  1.0000 -0.188619388
N   N5        1.0  0.63552  0.81130  0.32666  1.0000 -0.188619388
N   N6        1.0  0.32666  0.63552  0.81130  1.0000 -0.188619388
N   N7        1.0  0.31130  0.13552  0.82666  1.0000 -0.188619388
N   N8        1.0  0.13552  0.82666  0.31130  1.0000 -0.188619388
N   N9        1.0  0.82666  0.31130  0.13552  1.0000 -0.188619388
N   N10       1.0  0.18870  0.67334  0.36448  1.0000 -0.188619388
N   N11       1.0  0.36448  0.18870  0.67334  1.0000 -0.1834351538
N   N12       1.0  0.67334  0.36448  0.18870  1.0000 -0.188619388
O   O1        1.0  0.94997  0.05283  0.38531  1.0000 -0.5712888901
O   O2        1.0  0.05283  0.38531  0.94997  1.0000 -0.5712888901
O   O3        1.0  0.38531  0.94997  0.05283  1.0000 -0.5712888901
O   O4        1.0  0.55003  0.11469  0.44717  1.0000 -0.5712888901
O   O5        1.0  0.44717  0.55003  0.11469  1.0000 -0.5712888901
O   O6        1.0  0.11469  0.44717  0.55003  1.0000 -0.5712888901
O   O7        1.0  0.05003  0.94717  0.61469  1.0000 -0.5712888901
O   O8        1.0  0.94717  0.61469  0.05003  1.0000 -0.5712888901
O   O9        1.0  0.61469  0.05003  0.94717  1.0000 -0.5712888901
O   O10       1.0  0.44997  0.88531  0.55283  1.0000 -0.5712888901
O   O11       1.0  0.55283  0.44997  0.88531  1.0000 -0.5712888901
O   O12       1.0  0.88531  0.55283  0.44997  1.0000 -0.5712888901
O   O13       1.0  0.93963  0.97082  0.40320  1.0000 -0.5537894879
O   O14       1.0  0.97082  0.40320  0.93963  1.0000 -0.5537894879
O   O15       1.0  0.40320  0.93963  0.97082  1.0000 -0.5537894879
O   O16       1.0  0.56037  0.09680  0.52918  1.0000 -0.5537894879
O   O17       1.0  0.52918  0.56037  0.09680  1.0000 -0.5537894879
O   O18       1.0  0.09680  0.52918  0.56037  1.0000 -0.5537894879
O   O19       1.0  0.06037  0.02918  0.59680  1.0000 -0.5537894879
O   O20       1.0  0.02918  0.59680  0.06037  1.0000 -0.5537894879
O   O21       1.0  0.59680  0.06037  0.02918  1.0000 -0.5537894879
O   O22       1.0  0.43963  0.90320  0.47082  1.0000 -0.5537894879
O   O23       1.0  0.47082  0.43963  0.90320  1.0000 -0.5537894879
O   O24       1.0  0.90320  0.47082  0.43963  1.0000 -0.5537894879
O   O25       1.0  0.52083  0.98857  0.08635  1.0000 -0.5712888901
O   O26       1.0  0.98857  0.08635  0.52083  1.0000 -0.5712888901
O   O27       1.0  0.08635  0.52083  0.98857  1.0000 -0.5712888901
O   O28       1.0  0.97917  0.41365  0.51143  1.0000 -0.5712888901
O   O29       1.0  0.51143  0.97917  0.41365  1.0000 -0.5712888901
O   O30       1.0  0.41365  0.51143  0.97917  1.0000 -0.5712888901
O   O31       1.0  0.47917  0.01143  0.91365  1.0000 -0.5712888901
O   O32       1.0  0.01143  0.91365  0.47917  1.0000 -0.5712888901
O   O33       1.0  0.91365  0.47917  0.01143  1.0000 -0.5712888901
O   O34       1.0  0.02083  0.58635  0.48857  1.0000 -0.5712888901
O   O35       1.0  0.48857  0.02083  0.58635  1.0000 -0.5712888901
O   O36       1.0  0.58635  0.48857  0.02083  1.0000 -0.5712888901
O   O37       1.0  0.50951  0.99079  0.16748  1.0000 -0.4995787257
O   O38       1.0  0.99079  0.16748  0.50951  1.0000 -0.4995787257
O   O39       1.0  0.16748  0.50951  0.99079  1.0000 -0.4995787257
O   O40       1.0  0.99049  0.33252  0.50921  1.0000 -0.4995787257
O   O41       1.0  0.50921  0.99049  0.33252  1.0000 -0.4995787257
O   O42       1.0  0.33252  0.50921  0.99049  1.0000 -0.4995787257
O   O43       1.0  0.49049  0.00921  0.83252  1.0000 -0.4995787257
O   O44       1.0  0.00921  0.83252  0.49049  1.0000 -0.4995787257
O   O45       1.0  0.83252  0.49049  0.00921  1.0000 -0.4995787257
O   O46       1.0  0.00951  0.66748  0.49079  1.0000 -0.4995787257
O   O47       1.0  0.49079  0.00951  0.66748  1.0000 -0.4995787257
O   O48       1.0  0.66748  0.49079  0.00951  1.0000 -0.4995787257
O   O49       1.0  0.54542  0.58420  0.98934  1.0000 -0.5832376942
O   O50       1.0  0.58420  0.98934  0.54542  1.0000 -0.5832376942
O   O51       1.0  0.98934  0.54542  0.58420  1.0000 -0.5832376942
O   O52       1.0  0.95458  0.51066  0.91580  1.0000 -0.5832376942
O   O53       1.0  0.91580  0.95458  0.51066  1.0000 -0.5832376942
O   O54       1.0  0.51066  0.91580  0.95458  1.0000 -0.5832376942
O   O55       1.0  0.45458  0.41580  0.01066  1.0000 -0.5832376942
O   O56       1.0  0.41580  0.01066  0.45458  1.0000 -0.5832376942
O   O57       1.0  0.01066  0.45458  0.41580  1.0000 -0.5832376942
O   O58       1.0  0.04542  0.48934  0.08420  1.0000 -0.5832376942
O   O59       1.0  0.08420  0.04542  0.48934  1.0000 -0.5832376942
O   O60       1.0  0.48934  0.08420  0.04542  1.0000 -0.5832376942
O   O61       1.0  0.64021  0.60258  0.00079  1.0000 -0.5537894879
O   O62       1.0  0.60258  0.00079  0.64021  1.0000 -0.5537894879
O   O63       1.0  0.00079  0.64021  0.60258  1.0000 -0.5537894879
O   O64       1.0  0.85979  0.49921  0.89742  1.0000 -0.5537894879
O   O65       1.0  0.89742  0.85979  0.49921  1.0000 -0.5537894879
O   O66       1.0  0.49921  0.89742  0.85979  1.0000 -0.5537894879
O   O67       1.0  0.35979  0.39742  0.99921  1.0000 -0.5537894879
O   O68       1.0  0.39742  0.99921  0.35979  1.0000 -0.5537894879
O   O69       1.0  0.99921  0.35979  0.39742  1.0000 -0.5537894879
O   O70       1.0  0.14021  0.50079  0.10258  1.0000 -0.5537894879
O   O71       1.0  0.10258  0.14021  0.50079  1.0000 -0.5537894879
O   O72       1.0  0.50079  0.10258  0.14021  1.0000 -0.5537894879
