# DDEC6 charges by PACMAN v1.1 (https://github.com/mtap-research/PACMAN-charge/)
data_2000[Mn][lvt]2[FSR]1
_chemical_formula_sum              "Mn24 H320 C336 N72 O80"
_cell_length_a       29.8909
_cell_length_b       29.8909
_cell_length_c       29.8909
_cell_angle_alpha    95.0937
_cell_angle_beta     95.0937
_cell_angle_gamma    145.329

_symmetry_space_group_name_H-M    "P 1"
_symmetry_Int_Tables_number       1

loop_
  _symmetry_equiv_pos_as_xyz
  'x, y, z'

loop_
  _atom_site_type_symbol
  _atom_site_label
  _atom_site_symmetry_multiplicity
  _atom_site_fract_x
  _atom_site_fract_y
  _atom_site_fract_z
  _atom_site_occupancy
  _atom_site_charge
Mn  Mn1       1.0  0.63106  0.52340  0.33492  1.0000 0.9068861537
Mn  Mn2       1.0  0.54614  0.38106  0.60766  1.0000 0.9068861537
Mn  Mn3       1.0  0.18848  0.29614  0.66508  1.0000 0.9068861537
Mn  Mn4       1.0  0.77340  0.93848  0.39234  1.0000 0.9068861537
Mn  Mn5       1.0  0.61894  0.22660  0.16508  1.0000 0.9068861537
Mn  Mn6       1.0  0.70386  0.36894  0.89234  1.0000 0.9068861537
Mn  Mn7       1.0  0.06152  0.45386  0.83492  1.0000 0.9068861537
Mn  Mn8       1.0  0.47660  0.81152  0.10766  1.0000 0.9068861537
Mn  Mn9       1.0  0.50536  0.28603  0.37019  1.0000 0.97236614
Mn  Mn10      1.0  0.38517  0.25536  0.71933  1.0000 0.97236614
Mn  Mn11      1.0  0.91584  0.13517  0.62981  1.0000 0.97236614
Mn  Mn12      1.0  0.53603  0.66584  0.28067  1.0000 0.97236614
Mn  Mn13      1.0  0.74464  0.46397  0.12981  1.0000 0.97236614
Mn  Mn14      1.0  0.86483  0.49464  0.78067  1.0000 0.97236614
Mn  Mn15      1.0  0.33416  0.61483  0.87019  1.0000 0.97236614
Mn  Mn16      1.0  0.71397  0.08416  0.21933  1.0000 0.97236614
Mn  Mn17      1.0  0.41067  0.08688  0.24479  1.0000 0.8783071645
Mn  Mn18      1.0  0.41588  0.16067  0.82379  1.0000 0.8783071645
Mn  Mn19      1.0  0.84209  0.16588  0.75521  1.0000 0.8727961488
Mn  Mn20      1.0  0.33688  0.59209  0.17621  1.0000 0.8783071645
Mn  Mn21      1.0  0.83933  0.66312  0.25521  1.0000 0.8727961488
Mn  Mn22      1.0  0.83412  0.58933  0.67621  1.0000 0.8783071645
Mn  Mn23      1.0  0.40791  0.58412  0.74479  1.0000 0.8783071645
Mn  Mn24      1.0  0.91312  0.15791  0.32379  1.0000 0.8783071645
H   H1        1.0  0.61280  0.45930  0.49630  1.0000 0.1198055913
H   H2        1.0  0.36650  0.36280  0.65350  1.0000 0.1198055913
H   H3        1.0  0.96300  0.11650  0.50370  1.0000 0.1198055913
H   H4        1.0  0.70930  0.71300  0.34650  1.0000 0.1198055913
H   H5        1.0  0.63720  0.29070  0.00370  1.0000 0.1198055913
H   H6        1.0  0.88350  0.38720  0.84650  1.0000 0.1198055913
H   H7        1.0  0.28700  0.63350  0.99630  1.0000 0.1198055913
H   H8        1.0  0.54070  0.03700  0.15350  1.0000 0.1198055913
H   H9        1.0  0.67850  0.56470  0.55740  1.0000 0.1198055913
H   H10       1.0  0.37110  0.42850  0.61380  1.0000 0.1198055913
H   H11       1.0  0.00730  0.12110  0.44260  1.0000 0.1198055913
H   H12       1.0  0.81470  0.75730  0.38620  1.0000 0.1198055913
H   H13       1.0  0.57150  0.18530  0.94260  1.0000 0.1198055913
H   H14       1.0  0.87890  0.32150  0.88620  1.0000 0.1198055913
H   H15       1.0  0.24270  0.62890  0.05740  1.0000 0.1198055913
H   H16       1.0  0.43530  0.99270  0.11380  1.0000 0.1198055913
H   H17       1.0  0.74390  0.68060  0.54290  1.0000 0.09892767
H   H18       1.0  0.45100  0.49390  0.56330  1.0000 0.09892767
H   H19       1.0  0.13770  0.20100  0.45710  1.0000 0.09892767
H   H20       1.0  0.93060  0.88770  0.43670  1.0000 0.09892767
H   H21       1.0  0.50610  0.06940  0.95710  1.0000 0.09892767
H   H22       1.0  0.79900  0.25610  0.93670  1.0000 0.09892767
H   H23       1.0  0.11230  0.54900  0.04290  1.0000 0.09892767
H   H24       1.0  0.31940  0.86230  0.06330  1.0000 0.09892767
H   H25       1.0  0.74610  0.69270  0.46760  1.0000 0.1315028424
H   H26       1.0  0.52850  0.49610  0.55340  1.0000 0.1315028424
H   H27       1.0  0.22510  0.27850  0.53240  1.0000 0.1315028424
H   H28       1.0  0.94270  0.97510  0.44660  1.0000 0.1315028424
H   H29       1.0  0.50390  0.05730  0.03240  1.0000 0.1315028424
H   H30       1.0  0.72150  0.25390  0.94660  1.0000 0.1315028424
H   H31       1.0  0.02490  0.47150  0.96760  1.0000 0.1315028424
H   H32       1.0  0.30730  0.77490  0.05340  1.0000 0.1315028424
H   H33       1.0  0.54840  0.34000  0.23140  1.0000 0.1613256284
H   H34       1.0  0.56700  0.29840  0.70840  1.0000 0.1613256284
H   H35       1.0  0.10860  0.31700  0.76860  1.0000 0.1613256284
H   H36       1.0  0.59000  0.85860  0.29160  1.0000 0.1613256284
H   H37       1.0  0.70160  0.41000  0.26860  1.0000 0.1613256284
H   H38       1.0  0.68300  0.45160  0.79160  1.0000 0.1613256284
H   H39       1.0  0.14140  0.43300  0.73140  1.0000 0.1613256284
H   H40       1.0  0.66000  0.89140  0.20840  1.0000 0.1613256284
H   H41       1.0  0.49550  0.27630  0.26040  1.0000 0.1613256284
H   H42       1.0  0.48510  0.24550  0.71920  1.0000 0.1613256284
H   H43       1.0  0.01590  0.23510  0.73960  1.0000 0.1613256284
H   H44       1.0  0.52630  0.76590  0.28080  1.0000 0.1613256284
H   H45       1.0  0.75450  0.47370  0.23960  1.0000 0.1613256284
H   H46       1.0  0.76490  0.50450  0.78080  1.0000 0.1613256284
H   H47       1.0  0.23410  0.51490  0.76040  1.0000 0.1613256284
H   H48       1.0  0.72370  0.98410  0.21920  1.0000 0.1613256284
H   H49       1.0  0.46050  0.28560  0.22810  1.0000 0.1677105332
H   H50       1.0  0.48240  0.21050  0.67490  1.0000 0.1677105332
H   H51       1.0  0.05750  0.23240  0.77190  1.0000 0.1677105332
H   H52       1.0  0.53560  0.80750  0.32510  1.0000 0.1677105332
H   H53       1.0  0.78950  0.46440  0.27190  1.0000 0.1677105332
H   H54       1.0  0.76760  0.53950  0.82510  1.0000 0.1677105332
H   H55       1.0  0.19250  0.51760  0.72810  1.0000 0.1677105332
H   H56       1.0  0.71440  0.94250  0.17490  1.0000 0.1677105332
H   H57       1.0  0.88330  0.55820  0.91310  1.0000 0.1101701233
H   H58       1.0  0.22020  0.63330  0.82510  1.0000 0.1101701233
H   H59       1.0  0.64510  0.97020  0.08690  1.0000 0.1101701233
H   H60       1.0  0.80820  0.39510  0.17490  1.0000 0.1101701233
H   H61       1.0  0.36670  0.19180  0.58690  1.0000 0.1101701233
H   H62       1.0  0.02980  0.11670  0.67490  1.0000 0.1101701233
H   H63       1.0  0.60490  0.77980  0.41310  1.0000 0.1101701233
H   H64       1.0  0.44180  0.35490  0.32510  1.0000 0.1101701233
H   H65       1.0  0.99480  0.67700  0.97140  1.0000 0.1398071479
H   H66       1.0  0.27340  0.74480  0.81780  1.0000 0.1398071479
H   H67       1.0  0.70560  0.02340  0.02860  1.0000 0.1398071479
H   H68       1.0  0.92700  0.45560  0.18220  1.0000 0.1398071479
H   H69       1.0  0.25520  0.07300  0.52860  1.0000 0.1398071479
H   H70       1.0  0.97660  0.00520  0.68220  1.0000 0.1398071479
H   H71       1.0  0.54440  0.72660  0.47140  1.0000 0.1398071479
H   H72       1.0  0.32300  0.29440  0.31780  1.0000 0.1398071479
H   H73       1.0  0.88670  0.54910  0.06340  1.0000 0.1473144169
H   H74       1.0  0.07330  0.63670  0.83760  1.0000 0.1473144169
H   H75       1.0  0.48570  0.82330  0.93660  1.0000 0.1473144169
H   H76       1.0  0.79910  0.23570  0.16240  1.0000 0.1473144169
H   H77       1.0  0.36330  0.20090  0.43660  1.0000 0.1473144169
H   H78       1.0  0.17670  0.11330  0.66240  1.0000 0.1473144169
H   H79       1.0  0.76430  0.92670  0.56340  1.0000 0.1473144169
H   H80       1.0  0.45090  0.51430  0.33760  1.0000 0.1473144169
H   H81       1.0  0.77540  0.43530  0.00250  1.0000 0.1198055913
H   H82       1.0  0.02290  0.52540  0.84010  1.0000 0.1198055913
H   H83       1.0  0.43280  0.77290  0.99750  1.0000 0.1198055913
H   H84       1.0  0.68530  0.18280  0.15990  1.0000 0.1198055913
H   H85       1.0  0.47460  0.31470  0.49750  1.0000 0.1198055913
H   H86       1.0  0.22710  0.22460  0.65990  1.0000 0.1198055913
H   H87       1.0  0.81720  0.97710  0.50250  1.0000 0.1198055913
H   H88       1.0  0.56470  0.56720  0.34010  1.0000 0.1198055913
H   H89       1.0  0.01790  0.73830  0.06220  1.0000 0.1398071479
H   H90       1.0  0.20570  0.76790  0.77960  1.0000 0.1315028424
H   H91       1.0  0.67610  0.95570  0.93780  1.0000 0.1315028424
H   H92       1.0  0.98830  0.42610  0.22040  1.0000 0.1315028424
H   H93       1.0  0.23210  0.01170  0.43780  1.0000 0.1315028424
H   H94       1.0  0.04430  0.98210  0.72040  1.0000 0.1315028424
H   H95       1.0  0.57390  0.79430  0.56220  1.0000 0.1315028424
H   H96       1.0  0.26170  0.32390  0.27960  1.0000 0.1315028424
H   H97       1.0  0.00720  0.69280  0.09460  1.0000 0.1398071479
H   H98       1.0  0.16260  0.75720  0.81440  1.0000 0.1398071479
H   H99       1.0  0.59820  0.91260  0.90540  1.0000 0.1398071479
H   H100      1.0  0.94280  0.34820  0.18560  1.0000 0.1398071479
H   H101      1.0  0.24280  0.05720  0.40540  1.0000 0.1398071479
H   H102      1.0  0.08740  0.99280  0.68560  1.0000 0.1398071479
H   H103      1.0  0.65180  0.83740  0.59460  1.0000 0.1398071479
H   H104      1.0  0.30720  0.40180  0.31440  1.0000 0.1398071479
H   H105      1.0  0.20740  0.99340  0.26680  1.0000 0.1101701233
H   H106      1.0  0.19060  0.95740  0.71400  1.0000 0.1101701233
H   H107      1.0  0.72660  0.94060  0.73320  1.0000 0.1101701233
H   H108      1.0  0.24340  0.47660  0.28600  1.0000 0.1101701233
H   H109      1.0  0.04260  0.75660  0.23320  1.0000 0.1101701233
H   H110      1.0  0.05940  0.79260  0.78600  1.0000 0.1101701233
H   H111      1.0  0.52340  0.80940  0.76680  1.0000 0.1101701233
H   H112      1.0  0.00660  0.27340  0.21400  1.0000 0.1101701233
H   H113      1.0  0.11190  0.96900  0.27450  1.0000 0.1198055913
H   H114      1.0  0.08740  0.86190  0.64290  1.0000 0.1198055913
H   H115      1.0  0.69450  0.83740  0.72550  1.0000 0.1198055913
H   H116      1.0  0.21900  0.44450  0.35710  1.0000 0.1198055913
H   H117      1.0  0.13810  0.78100  0.22550  1.0000 0.1198055913
H   H118      1.0  0.16260  0.88810  0.85710  1.0000 0.1198055913
H   H119      1.0  0.55550  0.91260  0.77450  1.0000 0.1198055913
H   H120      1.0  0.03100  0.30550  0.14290  1.0000 0.1198055913
H   H121      1.0  0.16090  0.07480  0.32490  1.0000 0.1101701233
H   H122      1.0  0.08600  0.91090  0.58610  1.0000 0.1101701233
H   H123      1.0  0.74990  0.83600  0.67510  1.0000 0.1101701233
H   H124      1.0  0.32480  0.49990  0.41390  1.0000 0.1101701233
H   H125      1.0  0.08910  0.67520  0.17510  1.0000 0.1101701233
H   H126      1.0  0.16400  0.83910  0.91390  1.0000 0.1101701233
H   H127      1.0  0.50010  0.91400  0.82490  1.0000 0.1101701233
H   H128      1.0  0.92520  0.25010  0.08610  1.0000 0.1101701233
H   H129      1.0  0.29420  0.19660  0.36120  1.0000 0.1315028424
H   H130      1.0  0.18300  0.04420  0.59760  1.0000 0.1315028424
H   H131      1.0  0.83540  0.93300  0.63880  1.0000 0.1315028424
H   H132      1.0  0.44660  0.58540  0.40240  1.0000 0.1315028424
H   H133      1.0  0.95580  0.55340  0.13880  1.0000 0.1315028424
H   H134      1.0  0.06700  0.70580  0.90240  1.0000 0.1315028424
H   H135      1.0  0.41460  0.81700  0.86120  1.0000 0.1315028424
H   H136      1.0  0.80340  0.16460  0.09760  1.0000 0.1315028424
H   H137      1.0  0.65140  0.28440  0.35800  1.0000 0.1613256284
H   H138      1.0  0.54340  0.40140  0.86700  1.0000 0.1613256284
H   H139      1.0  0.92640  0.29340  0.64200  1.0000 0.1613256284
H   H140      1.0  0.53440  0.67640  0.13300  1.0000 0.1613256284
H   H141      1.0  0.59860  0.46560  0.14200  1.0000 0.1613256284
H   H142      1.0  0.70660  0.34860  0.63300  1.0000 0.1613256284
H   H143      1.0  0.32360  0.45660  0.85800  1.0000 0.1613256284
H   H144      1.0  0.71560  0.07360  0.36700  1.0000 0.1613256284
H   H145      1.0  0.60230  0.23340  0.30510  1.0000 0.1613256284
H   H146      1.0  0.54720  0.35230  0.86890  1.0000 0.1613256284
H   H147      1.0  0.92830  0.29720  0.69490  1.0000 0.1613256284
H   H148      1.0  0.48340  0.67830  0.13110  1.0000 0.1613256284
H   H149      1.0  0.64770  0.51660  0.19490  1.0000 0.1613256284
H   H150      1.0  0.70280  0.39770  0.63110  1.0000 0.1613256284
H   H151      1.0  0.32170  0.45280  0.80510  1.0000 0.1613256284
H   H152      1.0  0.76660  0.07170  0.36890  1.0000 0.1613256284
H   H153      1.0  0.67250  0.32810  0.31960  1.0000 0.1677105332
H   H154      1.0  0.60290  0.42250  0.84440  1.0000 0.1677105332
H   H155      1.0  0.00850  0.35290  0.68040  1.0000 0.1677105332
H   H156      1.0  0.57810  0.75850  0.15560  1.0000 0.1677105332
H   H157      1.0  0.57750  0.42190  0.18040  1.0000 0.1677105332
H   H158      1.0  0.64710  0.32750  0.65560  1.0000 0.1677105332
H   H159      1.0  0.24150  0.39710  0.81960  1.0000 0.1677105332
H   H160      1.0  0.67190  0.99150  0.34440  1.0000 0.1677105332
H   H161      1.0  0.58570  0.28230  0.43900  1.0000 0.1198055913
H   H162      1.0  0.39670  0.33570  0.80340  1.0000 0.1198055913
H   H163      1.0  0.84330  0.14670  0.56100  1.0000 0.1198055913
H   H164      1.0  0.53230  0.59330  0.19660  1.0000 0.1198055913
H   H165      1.0  0.66430  0.46770  0.06100  1.0000 0.1198055913
H   H166      1.0  0.85330  0.41430  0.69660  1.0000 0.1198055913
H   H167      1.0  0.40670  0.60330  0.93900  1.0000 0.1198055913
H   H168      1.0  0.71770  0.15670  0.30340  1.0000 0.1198055913
H   H169      1.0  0.45270  0.19330  0.49940  1.0000 0.1315028424
H   H170      1.0  0.20330  0.20270  0.75940  1.0000 0.1315028424
H   H171      1.0  0.69390  0.95330  0.50060  1.0000 0.1315028424
H   H172      1.0  0.44330  0.44390  0.24060  1.0000 0.1315028424
H   H173      1.0  0.79730  0.55670  0.00060  1.0000 0.1315028424
H   H174      1.0  0.04670  0.54730  0.74060  1.0000 0.1315028424
H   H175      1.0  0.55610  0.79670  0.99940  1.0000 0.1315028424
H   H176      1.0  0.80670  0.30610  0.25940  1.0000 0.1315028424
H   H177      1.0  0.45540  0.14560  0.51200  1.0000 0.1198055913
H   H178      1.0  0.19340  0.20540  0.80980  1.0000 0.1198055913
H   H179      1.0  0.63360  0.94340  0.48800  1.0000 0.1198055913
H   H180      1.0  0.39560  0.38360  0.19020  1.0000 0.1198055913
H   H181      1.0  0.79460  0.60440  0.98800  1.0000 0.1198055913
H   H182      1.0  0.05660  0.54460  0.69020  1.0000 0.1198055913
H   H183      1.0  0.61640  0.80660  0.01200  1.0000 0.1198055913
H   H184      1.0  0.85440  0.36640  0.30980  1.0000 0.1198055913
H   H185      1.0  0.51680  0.23230  0.54490  1.0000 0.1398071479
H   H186      1.0  0.22190  0.26680  0.78450  1.0000 0.1398071479
H   H187      1.0  0.68740  0.97190  0.45510  1.0000 0.1398071479
H   H188      1.0  0.48230  0.43740  0.21550  1.0000 0.1398071479
H   H189      1.0  0.73320  0.51770  0.95510  1.0000 0.1398071479
H   H190      1.0  0.02810  0.48320  0.71550  1.0000 0.1398071479
H   H191      1.0  0.56260  0.77810  0.04490  1.0000 0.1398071479
H   H192      1.0  0.76770  0.31260  0.28450  1.0000 0.1398071479
H   H193      1.0  0.59420  0.22920  0.53360  1.0000 0.1398071479
H   H194      1.0  0.31060  0.34420  0.86500  1.0000 0.1398071479
H   H195      1.0  0.69560  0.06060  0.46640  1.0000 0.1398071479
H   H196      1.0  0.47920  0.44560  0.13500  1.0000 0.1398071479
H   H197      1.0  0.65580  0.52080  0.96640  1.0000 0.1398071479
H   H198      1.0  0.93940  0.40580  0.63500  1.0000 0.1398071479
H   H199      1.0  0.55440  0.68940  0.03360  1.0000 0.1398071479
H   H200      1.0  0.77080  0.30440  0.36500  1.0000 0.1398071479
H   H201      1.0  0.61470  0.24000  0.48550  1.0000 0.1315028424
H   H202      1.0  0.37920  0.36470  0.87470  1.0000 0.1315028424
H   H203      1.0  0.75450  0.12920  0.51450  1.0000 0.1315028424
H   H204      1.0  0.49000  0.50450  0.12530  1.0000 0.1315028424
H   H205      1.0  0.63530  0.51000  0.01450  1.0000 0.1315028424
H   H206      1.0  0.87080  0.38530  0.62530  1.0000 0.1315028424
H   H207      1.0  0.49550  0.62080  0.98550  1.0000 0.1315028424
H   H208      1.0  0.76000  0.24550  0.37470  1.0000 0.1315028424
H   H209      1.0  0.65930  0.31470  0.52380  1.0000 0.1398071479
H   H210      1.0  0.38550  0.40930  0.84460  1.0000 0.1398071479
H   H211      1.0  0.79090  0.13550  0.47620  1.0000 0.1398071479
H   H212      1.0  0.56470  0.54090  0.15540  1.0000 0.1398071479
H   H213      1.0  0.59070  0.43530  0.97620  1.0000 0.1398071479
H   H214      1.0  0.86450  0.34070  0.65540  1.0000 0.1398071479
H   H215      1.0  0.45910  0.61450  0.02380  1.0000 0.1398071479
H   H216      1.0  0.68530  0.20910  0.34460  1.0000 0.1398071479
H   H217      1.0  0.66667  0.66630  0.26290  1.0000 0.1198055913
H   H218      1.0  0.65370  0.41660  0.50030  1.0000 0.1198055913
H   H219      1.0  0.40340  0.40370  0.73710  1.0000 0.1198055913
H   H220      1.0  0.91630  0.15340  0.49970  1.0000 0.1198055913
H   H221      1.0  0.58340  0.08370  0.23710  1.0000 0.1198055913
H   H222      1.0  0.59630  0.33340  0.99970  1.0000 0.1198055913
H   H223      1.0  0.84660  0.34630  0.76290  1.0000 0.1198055913
H   H224      1.0  0.33370  0.59660  0.00030  1.0000 0.1198055913
H   H225      1.0  0.69660  0.74490  0.21910  1.0000 0.1198055913
H   H226      1.0  0.72750  0.44660  0.45170  1.0000 0.1198055913
H   H227      1.0  0.52580  0.47750  0.78090  1.0000 0.1198055913
H   H228      1.0  0.99490  0.27580  0.54830  1.0000 0.1198055913
H   H229      1.0  0.55340  0.00510  0.28090  1.0000 0.1198055913
H   H230      1.0  0.52250  0.30340  0.04830  1.0000 0.1198055913
H   H231      1.0  0.72420  0.27250  0.71910  1.0000 0.1198055913
H   H232      1.0  0.25510  0.47420  0.95170  1.0000 0.1198055913
H   H233      1.0  0.79520  0.81140  0.17900  1.0000 0.1101701233
H   H234      1.0  0.86620  0.54520  0.48380  1.0000 0.1101701233
H   H235      1.0  0.63240  0.61620  0.82100  1.0000 0.1101701233
H   H236      1.0  0.06140  0.38240  0.51620  1.0000 0.1101701233
H   H237      1.0  0.45480  0.93860  0.32100  1.0000 0.1101701233
H   H238      1.0  0.38380  0.20480  0.01620  1.0000 0.1101701233
H   H239      1.0  0.61760  0.13380  0.67900  1.0000 0.1101701233
H   H240      1.0  0.18860  0.36760  0.98380  1.0000 0.1101701233
H   H241      1.0  0.85900  0.79710  0.18250  1.0000 0.1315028424
H   H242      1.0  0.92650  0.60900  0.56190  1.0000 0.1315028424
H   H243      1.0  0.61460  0.67650  0.81750  1.0000 0.1315028424
H   H244      1.0  0.04710  0.36460  0.43810  1.0000 0.1315028424
H   H245      1.0  0.39100  0.95290  0.31750  1.0000 0.1315028424
H   H246      1.0  0.32350  0.14100  0.93810  1.0000 0.1315028424
H   H247      1.0  0.63540  0.07350  0.68250  1.0000 0.1315028424
H   H248      1.0  0.20290  0.38540  0.06190  1.0000 0.1315028424
H   H249      1.0  0.74910  0.53600  0.37770  1.0000 0.1613256284
H   H250      1.0  0.62140  0.49910  0.71310  1.0000 0.1613256284
H   H251      1.0  0.15830  0.37140  0.62230  1.0000 0.1613256284
H   H252      1.0  0.78600  0.90830  0.28690  1.0000 0.1613256284
H   H253      1.0  0.50090  0.21400  0.12230  1.0000 0.1613256284
H   H254      1.0  0.62860  0.25090  0.78690  1.0000 0.1613256284
H   H255      1.0  0.09170  0.37860  0.87770  1.0000 0.1613256284
H   H256      1.0  0.46400  0.84170  0.21310  1.0000 0.1613256284
H   H257      1.0  0.82490  0.57230  0.37000  1.0000 0.1677105332
H   H258      1.0  0.70490  0.57490  0.75260  1.0000 0.1677105332
H   H259      1.0  0.20230  0.45490  0.63000  1.0000 0.1677105332
H   H260      1.0  0.82230  0.95230  0.24740  1.0000 0.1677105332
H   H261      1.0  0.42510  0.17770  0.13000  1.0000 0.1677105332
H   H262      1.0  0.54510  0.17510  0.74740  1.0000 0.1677105332
H   H263      1.0  0.04770  0.29510  0.87000  1.0000 0.1677105332
H   H264      1.0  0.42770  0.79770  0.25260  1.0000 0.1677105332
H   H265      1.0  0.73640  0.48620  0.33780  1.0000 0.1677105332
H   H266      1.0  0.64860  0.48640  0.75020  1.0000 0.1677105332
H   H267      1.0  0.14840  0.39860  0.66220  1.0000 0.1677105332
H   H268      1.0  0.73620  0.89840  0.24980  1.0000 0.1677105332
H   H269      1.0  0.51360  0.26380  0.16220  1.0000 0.1677105332
H   H270      1.0  0.60140  0.26360  0.74980  1.0000 0.1677105332
H   H271      1.0  0.10160  0.35140  0.83780  1.0000 0.1677105332
H   H272      1.0  0.51380  0.85160  0.25020  1.0000 0.1677105332
H   H273      1.0  0.32660  0.93030  0.18050  1.0000 0.1101701233
H   H274      1.0  0.39610  0.07660  0.89630  1.0000 0.1101701233
H   H275      1.0  0.74980  0.14610  0.81950  1.0000 0.1101701233
H   H276      1.0  0.18030  0.49980  0.10370  1.0000 0.1101701233
H   H277      1.0  0.92340  0.81970  0.31950  1.0000 0.1101701233
H   H278      1.0  0.85390  0.67340  0.60370  1.0000 0.1101701233
H   H279      1.0  0.50020  0.60390  0.68050  1.0000 0.1101701233
H   H280      1.0  0.06970  0.25020  0.39630  1.0000 0.1101701233
H   H281      1.0  0.21700  0.81480  0.11760  1.0000 0.1473144169
H   H282      1.0  0.34940  0.96700  0.90220  1.0000 0.1398071479
H   H283      1.0  0.69720  0.09940  0.88240  1.0000 0.1398071479
H   H284      1.0  0.06480  0.44720  0.09780  1.0000 0.1398071479
H   H285      1.0  0.03300  0.93520  0.38240  1.0000 0.1398071479
H   H286      1.0  0.90060  0.78300  0.59780  1.0000 0.1398071479
H   H287      1.0  0.55280  0.65060  0.61760  1.0000 0.1398071479
H   H288      1.0  0.18520  0.30280  0.40220  1.0000 0.1398071479
H   H289      1.0  0.13250  0.86850  0.11860  1.0000 0.1398071479
H   H290      1.0  0.26390  0.88250  0.76400  1.0000 0.1398071479
H   H291      1.0  0.74990  0.01390  0.88140  1.0000 0.1398071479
H   H292      1.0  0.11850  0.49990  0.23600  1.0000 0.1398071479
H   H293      1.0  0.11750  0.88150  0.38140  1.0000 0.1398071479
H   H294      1.0  0.98610  0.86750  0.73600  1.0000 0.1398071479
H   H295      1.0  0.50010  0.73610  0.61860  1.0000 0.1398071479
H   H296      1.0  0.13150  0.25010  0.26400  1.0000 0.1398071479
H   H297      1.0  0.24540  0.98440  0.17920  1.0000 0.1198055913
H   H298      1.0  0.31620  0.99540  0.76100  1.0000 0.1198055913
H   H299      1.0  0.80520  0.06620  0.82080  1.0000 0.1198055913
H   H300      1.0  0.23440  0.55520  0.23900  1.0000 0.1198055913
H   H301      1.0  0.00460  0.76560  0.32080  1.0000 0.1198055913
H   H302      1.0  0.93380  0.75460  0.73900  1.0000 0.1198055913
H   H303      1.0  0.44480  0.68380  0.67920  1.0000 0.1198055913
H   H304      1.0  0.01560  0.19480  0.26100  1.0000 0.1198055913
H   H305      1.0  0.08830  0.71660  0.06470  1.0000 0.1315028424
H   H306      1.0  0.27360  0.83830  0.87170  1.0000 0.1315028424
H   H307      1.0  0.65190  0.02360  0.93530  1.0000 0.1315028424
H   H308      1.0  0.96660  0.40190  0.12830  1.0000 0.1315028424
H   H309      1.0  0.16170  0.03340  0.43530  1.0000 0.1315028424
H   H310      1.0  0.97640  0.91170  0.62830  1.0000 0.1315028424
H   H311      1.0  0.59810  0.72640  0.56470  1.0000 0.1315028424
H   H312      1.0  0.28340  0.34810  0.37170  1.0000 0.1315028424
H   H313      1.0  0.10420  0.77040  0.03860  1.0000 0.1315028424
H   H314      1.0  0.31560  0.85420  0.83380  1.0000 0.1315028424
H   H315      1.0  0.73180  0.06560  0.96140  1.0000 0.1315028424
H   H316      1.0  0.02040  0.48180  0.16620  1.0000 0.1315028424
H   H317      1.0  0.14580  0.97960  0.46140  1.0000 0.1315028424
H   H318      1.0  0.93440  0.89580  0.66620  1.0000 0.1315028424
H   H319      1.0  0.51820  0.68440  0.53860  1.0000 0.1315028424
H   H320      1.0  0.22960  0.26820  0.33380  1.0000 0.1315028424
C   C1        1.0  0.68210  0.58440  0.43590  1.0000 0.2885775276
C   C2        1.0  0.49620  0.43210  0.59770  1.0000 0.2885775276
C   C3        1.0  0.14850  0.24620  0.56410  1.0000 0.2885775276
C   C4        1.0  0.83440  0.89850  0.40230  1.0000 0.2885775276
C   C5        1.0  0.56790  0.16560  0.06410  1.0000 0.2885775276
C   C6        1.0  0.75380  0.31790  0.90230  1.0000 0.2885775276
C   C7        1.0  0.10150  0.50380  0.93590  1.0000 0.2885775276
C   C8        1.0  0.41560  0.85150  0.09770  1.0000 0.2885775276
C   C9        1.0  0.64160  0.51280  0.44440  1.0000 -0.1593641519
C   C10       1.0  0.44720  0.39160  0.62880  1.0000 -0.1593641519
C   C11       1.0  0.06840  0.19720  0.55560  1.0000 -0.1593641519
C   C12       1.0  0.76280  0.81840  0.37120  1.0000 -0.1593641519
C   C13       1.0  0.60840  0.23720  0.05560  1.0000 -0.1593641519
C   C14       1.0  0.80280  0.35840  0.87120  1.0000 -0.1593641519
C   C15       1.0  0.18160  0.55280  0.94440  1.0000 -0.1593641519
C   C16       1.0  0.48720  0.93160  0.12880  1.0000 -0.1593641519
C   C17       1.0  0.64040  0.50670  0.49050  1.0000 -0.0806008686
C   C18       1.0  0.39990  0.39040  0.63370  1.0000 -0.0806008686
C   C19       1.0  0.01620  0.14990  0.50950  1.0000 -0.0806008686
C   C20       1.0  0.75670  0.76620  0.36630  1.0000 -0.0806008686
C   C21       1.0  0.60960  0.24330  0.00950  1.0000 -0.0806008686
C   C22       1.0  0.85010  0.35960  0.86630  1.0000 -0.0806008686
C   C23       1.0  0.23380  0.60010  0.99050  1.0000 -0.0806008686
C   C24       1.0  0.49330  0.98380  0.13370  1.0000 -0.0806008686
C   C25       1.0  0.67900  0.56920  0.52700  1.0000 -0.1405117523
C   C26       1.0  0.40200  0.42900  0.60980  1.0000 -0.1405117523
C   C27       1.0  0.04220  0.15200  0.47300  1.0000 -0.1405117523
C   C28       1.0  0.81920  0.79220  0.39020  1.0000 -0.1405117523
C   C29       1.0  0.57100  0.18080  0.97300  1.0000 -0.1405117523
C   C30       1.0  0.84800  0.32100  0.89020  1.0000 -0.1405117523
C   C31       1.0  0.20780  0.59800  0.02700  1.0000 -0.1405117523
C   C32       1.0  0.43080  0.95780  0.10980  1.0000 -0.1405117523
C   C33       1.0  0.71810  0.63820  0.51830  1.0000 -0.0806008686
C   C34       1.0  0.44980  0.46810  0.57990  1.0000 -0.0806008686
C   C35       1.0  0.11990  0.19980  0.48170  1.0000 -0.0806008686
C   C36       1.0  0.88820  0.86990  0.42010  1.0000 -0.0806008686
C   C37       1.0  0.53190  0.11180  0.98170  1.0000 -0.0806008686
C   C38       1.0  0.80020  0.28190  0.92010  1.0000 -0.0806008686
C   C39       1.0  0.13010  0.55020  0.01830  1.0000 -0.0806008686
C   C40       1.0  0.36180  0.88010  0.07990  1.0000 -0.0806008686
C   C41       1.0  0.71940  0.64550  0.47290  1.0000 -0.2128882522
C   C42       1.0  0.49650  0.46940  0.57390  1.0000 -0.2128882522
C   C43       1.0  0.17260  0.24650  0.52710  1.0000 -0.2128882522
C   C44       1.0  0.89550  0.92260  0.42610  1.0000 -0.2128882522
C   C45       1.0  0.53060  0.10450  0.02710  1.0000 -0.2128882522
C   C46       1.0  0.75350  0.28060  0.92610  1.0000 -0.2128882522
C   C47       1.0  0.07740  0.50350  0.97290  1.0000 -0.2128882522
C   C48       1.0  0.35450  0.82740  0.07390  1.0000 -0.2128882522
C   C49       1.0  0.60090  0.44440  0.40810  1.0000 0.4341737803
C   C50       1.0  0.44280  0.35090  0.65650  1.0000 0.4341737803
C   C51       1.0  0.03630  0.19280  0.59190  1.0000 0.4341737803
C   C52       1.0  0.69440  0.78630  0.34350  1.0000 0.4341737803
C   C53       1.0  0.64910  0.30560  0.09190  1.0000 0.4341737803
C   C54       1.0  0.80720  0.39910  0.84350  1.0000 0.4341737803
C   C55       1.0  0.21370  0.55720  0.90810  1.0000 0.4341737803
C   C56       1.0  0.55560  0.96370  0.15650  1.0000 0.4341737803
C   C57       1.0  0.54500  0.37830  0.28830  1.0000 0.4961600609
C   C58       1.0  0.50670  0.29500  0.66667  1.0000 0.4961600609
C   C59       1.0  0.09000  0.25670  0.71170  1.0000 0.4961600609
C   C60       1.0  0.62830  0.84000  0.33333  1.0000 0.4961600609
C   C61       1.0  0.70500  0.37170  0.21170  1.0000 0.4961600609
C   C62       1.0  0.74330  0.45500  0.83330  1.0000 0.4961600609
C   C63       1.0  0.16000  0.49330  0.78830  1.0000 0.4961600609
C   C64       1.0  0.62170  0.91000  0.16670  1.0000 0.4961600609
C   C65       1.0  0.50920  0.31440  0.24860  1.0000 -0.5820746414
C   C66       1.0  0.51060  0.25920  0.69480  1.0000 -0.5820746414
C   C67       1.0  0.06580  0.26060  0.75140  1.0000 -0.5820746414
C   C68       1.0  0.56440  0.81580  0.30520  1.0000 -0.5820746414
C   C69       1.0  0.74080  0.43560  0.25140  1.0000 -0.5820746414
C   C70       1.0  0.73940  0.49080  0.80520  1.0000 -0.5820746414
C   C71       1.0  0.18420  0.48940  0.74860  1.0000 -0.5820746414
C   C72       1.0  0.68560  0.93420  0.19480  1.0000 -0.5820746414
C   C73       1.0  0.88290  0.55640  0.94390  1.0000 0.0772190176
C   C74       1.0  0.18900  0.63290  0.82650  1.0000 0.0772190176
C   C75       1.0  0.61250  0.93900  0.05610  1.0000 0.0772190176
C   C76       1.0  0.80640  0.36250  0.17350  1.0000 0.0772190176
C   C77       1.0  0.36710  0.19360  0.55610  1.0000 0.0772190176
C   C78       1.0  0.06100  0.11710  0.67350  1.0000 0.0772190176
C   C79       1.0  0.63750  0.81100  0.44390  1.0000 0.0772190176
C   C80       1.0  0.44360  0.38750  0.32650  1.0000 0.0772190176
C   C81       1.0  0.95020  0.62830  0.97890  1.0000 -0.2128882522
C   C82       1.0  0.22130  0.70020  0.82190  1.0000 -0.2128882522
C   C83       1.0  0.64940  0.97130  0.02110  1.0000 -0.2128882522
C   C84       1.0  0.87830  0.39940  0.17810  1.0000 -0.2128882522
C   C85       1.0  0.29980  0.12170  0.52110  1.0000 -0.2128882522
C   C86       1.0  0.02870  0.04980  0.67810  1.0000 -0.2128882522
C   C87       1.0  0.60060  0.77870  0.47890  1.0000 -0.2128882522
C   C88       1.0  0.37170  0.35060  0.32190  1.0000 -0.2128882522
C   C89       1.0  0.95170  0.62840  0.02490  1.0000 0.1473144169
C   C90       1.0  0.17680  0.70170  0.82330  1.0000 0.1473144169
C   C91       1.0  0.60350  0.92680  0.97510  1.0000 0.1473144169
C   C92       1.0  0.87840  0.35350  0.17670  1.0000 0.1473144169
C   C93       1.0  0.29830  0.12160  0.47510  1.0000 0.1473144169
C   C94       1.0  0.07320  0.04830  0.67670  1.0000 0.1473144169
C   C95       1.0  0.64650  0.82320  0.52490  1.0000 0.1473144169
C   C96       1.0  0.37160  0.39650  0.32330  1.0000 0.1473144169
C   C97       1.0  0.88640  0.55340  0.03300  1.0000 -0.1970214427
C   C98       1.0  0.10340  0.63640  0.83300  1.0000 -0.1970214427
C   C99       1.0  0.52040  0.85340  0.96700  1.0000 -0.1970214427
C   C100      1.0  0.80340  0.27040  0.16700  1.0000 -0.1970214427
C   C101      1.0  0.36360  0.19660  0.46700  1.0000 -0.1970214427
C   C102      1.0  0.14660  0.11360  0.66700  1.0000 -0.1970214427
C   C103      1.0  0.72960  0.89660  0.53300  1.0000 -0.1970214427
C   C104      1.0  0.44660  0.47960  0.33300  1.0000 -0.1970214427
C   C105      1.0  0.82060  0.48480  0.99580  1.0000 0.1101701233
C   C106      1.0  0.07480  0.57060  0.83580  1.0000 0.1101701233
C   C107      1.0  0.48900  0.82480  0.00420  1.0000 0.1101701233
C   C108      1.0  0.73480  0.23900  0.16420  1.0000 0.1101701233
C   C109      1.0  0.42940  0.26520  0.50420  1.0000 0.1101701233
C   C110      1.0  0.17520  0.17940  0.66420  1.0000 0.1101701233
C   C111      1.0  0.76100  0.92520  0.49580  1.0000 0.1101701233
C   C112      1.0  0.51520  0.51100  0.33580  1.0000 0.1101701233
C   C113      1.0  0.01840  0.70670  0.06530  1.0000 -0.2195455727
C   C114      1.0  0.20310  0.76840  0.81170  1.0000 -0.2195455727
C   C115      1.0  0.64140  0.95310  0.93470  1.0000 -0.2195455727
C   C116      1.0  0.95670  0.39140  0.18830  1.0000 -0.2195455727
C   C117      1.0  0.23160  0.04330  0.43470  1.0000 -0.2195455727
C   C118      1.0  0.04690  0.98160  0.68830  1.0000 -0.2195455727
C   C119      1.0  0.60860  0.79690  0.56530  1.0000 -0.2195455727
C   C120      1.0  0.29330  0.35860  0.31170  1.0000 -0.2195455727
C   C121      1.0  0.33500  0.17040  0.33940  1.0000 0.2964349099
C   C122      1.0  0.24560  0.08500  0.66460  1.0000 0.2964349099
C   C123      1.0  0.83100  0.99560  0.66060  1.0000 0.2964349099
C   C124      1.0  0.42040  0.58100  0.33540  1.0000 0.2964349099
C   C125      1.0  0.91500  0.57960  0.16060  1.0000 0.2964349099
C   C126      1.0  0.00440  0.66500  0.83540  1.0000 0.2964349099
C   C127      1.0  0.41900  0.75440  0.83940  1.0000 0.2964349099
C   C128      1.0  0.82960  0.16900  0.16460  1.0000 0.2964349099
C   C129      1.0  0.30890  0.11020  0.30850  1.0000 -0.1593641519
C   C130      1.0  0.25040  0.05890  0.69870  1.0000 -0.1593641519
C   C131      1.0  0.80170  0.00040  0.69150  1.0000 -0.1593641519
C   C132      1.0  0.36020  0.55170  0.30130  1.0000 -0.1593641519
C   C133      1.0  0.94110  0.63980  0.19150  1.0000 -0.1593641519
C   C134      1.0  0.99960  0.69110  0.80130  1.0000 -0.1593641519
C   C135      1.0  0.44830  0.74960  0.80850  1.0000 -0.1593641519
C   C136      1.0  0.88980  0.19830  0.19870  1.0000 -0.1593641519
C   C137      1.0  0.22520  0.03460  0.28580  1.0000 -0.0961760126
C   C138      1.0  0.18940  0.97520  0.69060  1.0000 -0.0961760126
C   C139      1.0  0.74880  0.93940  0.71420  1.0000 -0.0961760126
C   C140      1.0  0.28460  0.49880  0.30940  1.0000 -0.0961760126
C   C141      1.0  0.02480  0.71540  0.21420  1.0000 -0.0961760126
C   C142      1.0  0.06060  0.77480  0.80940  1.0000 -0.0961760126
C   C143      1.0  0.50120  0.81060  0.78580  1.0000 -0.0961760126
C   C144      1.0  0.96540  0.25120  0.19060  1.0000 -0.0961760126
C   C145      1.0  0.16740  0.01900  0.29040  1.0000 -0.1593641519
C   C146      1.0  0.12700  0.91740  0.64840  1.0000 -0.1593641519
C   C147      1.0  0.72860  0.87700  0.70960  1.0000 -0.1593641519
C   C148      1.0  0.26900  0.47860  0.35160  1.0000 -0.1593641519
C   C149      1.0  0.08260  0.73100  0.20960  1.0000 -0.1593641519
C   C150      1.0  0.12300  0.83260  0.85160  1.0000 -0.1593641519
C   C151      1.0  0.52140  0.87300  0.79040  1.0000 -0.1593641519
C   C152      1.0  0.98100  0.27140  0.14840  1.0000 -0.1593641519
C   C153      1.0  0.19780  0.08340  0.32060  1.0000 -0.0667670166
C   C154      1.0  0.12720  0.94780  0.61440  1.0000 -0.0667670166
C   C155      1.0  0.76280  0.87720  0.67940  1.0000 -0.0667670166
C   C156      1.0  0.33340  0.51280  0.38560  1.0000 -0.0667670166
C   C157      1.0  0.05220  0.66667  0.17940  1.0000 -0.0667670166
C   C158      1.0  0.12280  0.80220  0.88560  1.0000 -0.0667670166
C   C159      1.0  0.48720  0.87280  0.82060  1.0000 -0.0667670166
C   C160      1.0  0.91660  0.23720  0.11440  1.0000 -0.0667670166
C   C161      1.0  0.27680  0.15530  0.34290  1.0000 -0.228807334
C   C162      1.0  0.18390  0.02680  0.62150  1.0000 -0.228807334
C   C163      1.0  0.81240  0.93390  0.65710  1.0000 -0.228807334
C   C164      1.0  0.40530  0.56240  0.37850  1.0000 -0.228807334
C   C165      1.0  0.97320  0.59470  0.15710  1.0000 -0.228807334
C   C166      1.0  0.06610  0.72320  0.87850  1.0000 -0.228807334
C   C167      1.0  0.43760  0.81610  0.84290  1.0000 -0.228807334
C   C168      1.0  0.84470  0.18760  0.12150  1.0000 -0.228807334
C   C169      1.0  0.36370  0.12070  0.29940  1.0000 0.4416980266
C   C170      1.0  0.31430  0.11370  0.74300  1.0000 0.4416980266
C   C171      1.0  0.82130  0.06430  0.70060  1.0000 0.4416980266
C   C172      1.0  0.37070  0.57130  0.25700  1.0000 0.4416980266
C   C173      1.0  0.88630  0.62930  0.20060  1.0000 0.4416980266
C   C174      1.0  0.93570  0.63630  0.75700  1.0000 0.4416980266
C   C175      1.0  0.42870  0.68570  0.79940  1.0000 0.4416980266
C   C176      1.0  0.87930  0.17870  0.24300  1.0000 0.4416980266
C   C177      1.0  0.56710  0.26320  0.33430  1.0000 0.5130683043
C   C178      1.0  0.48280  0.31710  0.80390  1.0000 0.5130683043
C   C179      1.0  0.92890  0.23280  0.66570  1.0000 0.5130683043
C   C180      1.0  0.51320  0.67890  0.19610  1.0000 0.5130683043
C   C181      1.0  0.68290  0.48680  0.16570  1.0000 0.5130683043
C   C182      1.0  0.76720  0.43290  0.69610  1.0000 0.5130683043
C   C183      1.0  0.32110  0.51720  0.83430  1.0000 0.5130683043
C   C184      1.0  0.73680  0.07110  0.30390  1.0000 0.5130683043
C   C185      1.0  0.62900  0.27870  0.32870  1.0000 -0.5678785436
C   C186      1.0  0.55030  0.37900  0.85030  1.0000 -0.5678785436
C   C187      1.0  0.95000  0.30030  0.67130  1.0000 -0.5678785436
C   C188      1.0  0.52870  0.70000  0.14970  1.0000 -0.5678785436
C   C189      1.0  0.62100  0.47130  0.17130  1.0000 -0.5678785436
C   C190      1.0  0.69970  0.37100  0.64970  1.0000 -0.5678785436
C   C191      1.0  0.30000  0.44970  0.82870  1.0000 -0.5678785436
C   C192      1.0  0.72130  0.05000  0.35030  1.0000 -0.5678785436
C   C193      1.0  0.54170  0.25290  0.45080  1.0000 0.1796584626
C   C194      1.0  0.34090  0.29170  0.78880  1.0000 0.1796584626
C   C195      1.0  0.80210  0.09090  0.54920  1.0000 0.1796584626
C   C196      1.0  0.50290  0.55210  0.21120  1.0000 0.1796584626
C   C197      1.0  0.70830  0.49710  0.04920  1.0000 0.1862077125
C   C198      1.0  0.90910  0.45830  0.71120  1.0000 0.1796584626
C   C199      1.0  0.44790  0.65910  0.95080  1.0000 0.1796584626
C   C200      1.0  0.74710  0.19790  0.28880  1.0000 0.1796584626
C   C201      1.0  0.48790  0.19880  0.51290  1.0000 -0.2128882522
C   C202      1.0  0.22500  0.23790  0.78910  1.0000 -0.2128882522
C   C203      1.0  0.68590  0.97500  0.48710  1.0000 -0.2128882522
C   C204      1.0  0.44880  0.43590  0.21090  1.0000 -0.2128882522
C   C205      1.0  0.76210  0.55120  0.98710  1.0000 -0.2128882522
C   C206      1.0  0.02500  0.51210  0.71090  1.0000 -0.2128882522
C   C207      1.0  0.56410  0.77500  0.01290  1.0000 -0.2195455727
C   C208      1.0  0.80120  0.31410  0.28910  1.0000 -0.2195455727
C   C209      1.0  0.60810  0.25590  0.51000  1.0000 -0.343299403
C   C210      1.0  0.34810  0.35810  0.85220  1.0000 -0.343299403
C   C211      1.0  0.74590  0.09810  0.49000  1.0000 -0.343299403
C   C212      1.0  0.50590  0.49590  0.14780  1.0000 -0.343299403
C   C213      1.0  0.64190  0.49410  0.99000  1.0000 -0.343299403
C   C214      1.0  0.90190  0.39190  0.64780  1.0000 -0.343299403
C   C215      1.0  0.50410  0.65190  0.01000  1.0000 -0.343299403
C   C216      1.0  0.74410  0.25410  0.35220  1.0000 -0.343299403
C   C217      1.0  0.80100  0.71980  0.22400  1.0000 0.3189324558
C   C218      1.0  0.82700  0.55100  0.58120  1.0000 0.3189324558
C   C219      1.0  0.49580  0.57700  0.77600  1.0000 0.3189324558
C   C220      1.0  0.96980  0.24580  0.41880  1.0000 0.3189324558
C   C221      1.0  0.44900  0.03020  0.27600  1.0000 0.3189324558
C   C222      1.0  0.42300  0.19900  0.91880  1.0000 0.3189324558
C   C223      1.0  0.75420  0.17300  0.72400  1.0000 0.3189324558
C   C224      1.0  0.28020  0.50420  0.08120  1.0000 0.3189324558
C   C225      1.0  0.74190  0.68120  0.24910  1.0000 -0.1593641519
C   C226      1.0  0.74280  0.49190  0.56070  1.0000 -0.1593641519
C   C227      1.0  0.43210  0.49280  0.75090  1.0000 -0.1593641519
C   C228      1.0  0.93120  0.18210  0.43930  1.0000 -0.1593641519
C   C229      1.0  0.50810  0.06880  0.25090  1.0000 -0.1593641519
C   C230      1.0  0.50720  0.25810  0.93930  1.0000 -0.1593641519
C   C231      1.0  0.81790  0.25720  0.74910  1.0000 -0.1593641519
C   C232      1.0  0.31880  0.56790  0.06070  1.0000 -0.1593641519
C   C233      1.0  0.70500  0.69190  0.24650  1.0000 -0.0862137621
C   C234      1.0  0.70850  0.45500  0.51310  1.0000 -0.0862137621
C   C235      1.0  0.44540  0.45850  0.75350  1.0000 -0.0862137621
C   C236      1.0  0.94190  0.19540  0.48690  1.0000 -0.0862137621
C   C237      1.0  0.54500  0.05810  0.25350  1.0000 -0.0862137621
C   C238      1.0  0.54150  0.29500  0.98690  1.0000 -0.0862137621
C   C239      1.0  0.80460  0.29150  0.74650  1.0000 -0.0862137621
C   C240      1.0  0.30810  0.55460  0.01310  1.0000 -0.0862137621
C   C241      1.0  0.72300  0.73930  0.22050  1.0000 -0.1405117523
C   C242      1.0  0.75250  0.47300  0.48370  1.0000 -0.1405117523
C   C243      1.0  0.51880  0.50250  0.77950  1.0000 -0.1405117523
C   C244      1.0  0.98930  0.26880  0.51630  1.0000 -0.1405117523
C   C245      1.0  0.52700  0.01070  0.27950  1.0000 -0.1405117523
C   C246      1.0  0.49750  0.27700  0.01630  1.0000 -0.1405117523
C   C247      1.0  0.73120  0.24750  0.72050  1.0000 -0.1405117523
C   C248      1.0  0.26070  0.48120  0.98370  1.0000 -0.1405117523
C   C249      1.0  0.78190  0.77890  0.19640  1.0000 -0.0647176013
C   C250      1.0  0.83550  0.53190  0.50300  1.0000 -0.0647176013
C   C251      1.0  0.58250  0.58550  0.80360  1.0000 -0.0647176013
C   C252      1.0  0.02890  0.33250  0.49700  1.0000 -0.0647176013
C   C253      1.0  0.46810  0.97110  0.30360  1.0000 -0.0647176013
C   C254      1.0  0.41450  0.21810  0.99700  1.0000 -0.0647176013
C   C255      1.0  0.66750  0.16450  0.69640  1.0000 -0.0647176013
C   C256      1.0  0.22110  0.41750  0.00300  1.0000 -0.0647176013
C   C257      1.0  0.81960  0.76980  0.19840  1.0000 -0.2195455727
C   C258      1.0  0.87120  0.56960  0.54980  1.0000 -0.2195455727
C   C259      1.0  0.57140  0.62120  0.80160  1.0000 -0.2195455727
C   C260      1.0  0.01980  0.32140  0.45020  1.0000 -0.2195455727
C   C261      1.0  0.43040  0.98020  0.30160  1.0000 -0.2195455727
C   C262      1.0  0.37880  0.18040  0.95020  1.0000 -0.2195455727
C   C263      1.0  0.67860  0.12880  0.69840  1.0000 -0.2195455727
C   C264      1.0  0.23020  0.42860  0.04980  1.0000 -0.2195455727
C   C265      1.0  0.72210  0.63310  0.27880  1.0000 0.4341737803
C   C266      1.0  0.69330  0.47210  0.58900  1.0000 0.4341737803
C   C267      1.0  0.35430  0.44330  0.72120  1.0000 0.4341737803
C   C268      1.0  0.88310  0.10430  0.41100  1.0000 0.4341737803
C   C269      1.0  0.52790  0.11690  0.22120  1.0000 0.4341737803
C   C270      1.0  0.55670  0.27790  0.91100  1.0000 0.4341737803
C   C271      1.0  0.89570  0.30670  0.77880  1.0000 0.4341737803
C   C272      1.0  0.36690  0.64570  0.08900  1.0000 0.4341737803
C   C273      1.0  0.78140  0.58040  0.32120  1.0000 0.5271438293
C   C274      1.0  0.71020  0.53140  0.70100  1.0000 0.5271438293
C   C275      1.0  0.25920  0.46020  0.67880  1.0000 0.5271438293
C   C276      1.0  0.83040  0.00920  0.29900  1.0000 0.5271438293
C   C277      1.0  0.46860  0.16960  0.17880  1.0000 0.5271438293
C   C278      1.0  0.53980  0.21860  0.79900  1.0000 0.5271438293
C   C279      1.0  0.99080  0.28980  0.82120  1.0000 0.5271438293
C   C280      1.0  0.41960  0.74080  0.20100  1.0000 0.5271438293
C   C281      1.0  0.77220  0.54010  0.35470  1.0000 -0.5558213808
C   C282      1.0  0.66750  0.52220  0.73210  1.0000 -0.5558213808
C   C283      1.0  0.18540  0.41750  0.64530  1.0000 -0.5558213808
C   C284      1.0  0.79010  0.93540  0.26790  1.0000 -0.5558213808
C   C285      1.0  0.47780  0.20990  0.14530  1.0000 -0.5558213808
C   C286      1.0  0.58250  0.22780  0.76790  1.0000 -0.5558213808
C   C287      1.0  0.06460  0.33250  0.85470  1.0000 -0.5558213808
C   C288      1.0  0.45990  0.81460  0.23210  1.0000 -0.5558213808
C   C289      1.0  0.28640  0.91750  0.16830  1.0000 0.0931778669
C   C290      1.0  0.36810  0.03640  0.86890  1.0000 0.0931778669
C   C291      1.0  0.74920  0.11810  0.83170  1.0000 0.0931778669
C   C292      1.0  0.16750  0.49920  0.13110  1.0000 0.0931778669
C   C293      1.0  0.96360  0.83250  0.33170  1.0000 0.0931778669
C   C294      1.0  0.88190  0.71360  0.63110  1.0000 0.0931778669
C   C295      1.0  0.50080  0.63190  0.66830  1.0000 0.0931778669
C   C296      1.0  0.08250  0.25080  0.36890  1.0000 0.0931778669
C   C297      1.0  0.22000  0.84720  0.12980  1.0000 -0.2195455727
C   C298      1.0  0.34020  0.97000  0.87280  1.0000 -0.2195455727
C   C299      1.0  0.71740  0.09020  0.87020  1.0000 -0.2195455727
C   C300      1.0  0.09720  0.46740  0.12720  1.0000 -0.2195455727
C   C301      1.0  0.03000  0.90280  0.37020  1.0000 -0.2195455727
C   C302      1.0  0.90980  0.78000  0.62720  1.0000 -0.2195455727
C   C303      1.0  0.53260  0.65980  0.62980  1.0000 -0.2195455727
C   C304      1.0  0.15280  0.28260  0.37280  1.0000 -0.2195455727
C   C305      1.0  0.16120  0.82720  0.11100  1.0000 0.1613256284
C   C306      1.0  0.30020  0.91120  0.83400  1.0000 0.1613256284
C   C307      1.0  0.71620  0.05020  0.88900  1.0000 0.1613256284
C   C308      1.0  0.07720  0.46620  0.16600  1.0000 0.1613256284
C   C309      1.0  0.08880  0.92280  0.38900  1.0000 0.1613256284
C   C310      1.0  0.94980  0.83880  0.66600  1.0000 0.1613256284
C   C311      1.0  0.53380  0.69980  0.61100  1.0000 0.1613256284
C   C312      1.0  0.17280  0.28380  0.33400  1.0000 0.1613256284
C   C313      1.0  0.17160  0.87980  0.13060  1.0000 -0.2195455727
C   C314      1.0  0.29100  0.92160  0.79180  1.0000 -0.2195455727
C   C315      1.0  0.74920  0.04100  0.86940  1.0000 -0.2195455727
C   C316      1.0  0.12980  0.49920  0.20820  1.0000 -0.2195455727
C   C317      1.0  0.07840  0.87020  0.36940  1.0000 -0.2195455727
C   C318      1.0  0.95900  0.82840  0.70820  1.0000 -0.2195455727
C   C319      1.0  0.50080  0.70900  0.63060  1.0000 -0.2195455727
C   C320      1.0  0.12020  0.25080  0.29180  1.0000 -0.2195455727
C   C321      1.0  0.23910  0.94890  0.16800  1.0000 0.09892767
C   C322      1.0  0.32110  0.98910  0.79020  1.0000 0.09892767
C   C323      1.0  0.78090  0.07110  0.83200  1.0000 0.09892767
C   C324      1.0  0.19890  0.53090  0.20980  1.0000 0.09892767
C   C325      1.0  0.01090  0.80110  0.33200  1.0000 0.09892767
C   C326      1.0  0.92890  0.76090  0.70980  1.0000 0.09892767
C   C327      1.0  0.46910  0.67890  0.66800  1.0000 0.09892767
C   C328      1.0  0.05110  0.21910  0.29020  1.0000 0.09892767
C   C329      1.0  0.09060  0.75110  0.06630  1.0000 -0.2128882522
C   C330      1.0  0.27430  0.84060  0.83950  1.0000 -0.2128882522
C   C331      1.0  0.68480  0.02430  0.93370  1.0000 -0.2128882522
C   C332      1.0  0.00110  0.43480  0.16050  1.0000 -0.2128882522
C   C333      1.0  0.15940  0.99890  0.43370  1.0000 -0.2128882522
C   C334      1.0  0.97570  0.90940  0.66050  1.0000 -0.2128882522
C   C335      1.0  0.56520  0.72570  0.56630  1.0000 -0.2128882522
C   C336      1.0  0.24890  0.31520  0.33950  1.0000 -0.2128882522
N   N1        1.0  0.59464  0.44414  0.36358  1.0000 -0.343299403
N   N2        1.0  0.48106  0.34464  0.65050  1.0000 -0.343299403
N   N3        1.0  0.08056  0.23106  0.63642  1.0000 -0.343299403
N   N4        1.0  0.69414  0.83056  0.34950  1.0000 -0.343299403
N   N5        1.0  0.65536  0.30586  0.13642  1.0000 -0.343299403
N   N6        1.0  0.76894  0.40536  0.84950  1.0000 -0.343299403
N   N7        1.0  0.16944  0.51894  0.86358  1.0000 -0.343299403
N   N8        1.0  0.55586  0.91944  0.15050  1.0000 -0.343299403
N   N9        1.0  0.55420  0.37571  0.33091  1.0000 -0.3277463104
N   N10       1.0  0.47329  0.30420  0.67849  1.0000 -0.3277463104
N   N11       1.0  0.04480  0.22329  0.66909  1.0000 -0.3277463104
N   N12       1.0  0.62571  0.79480  0.32151  1.0000 -0.3277463104
N   N13       1.0  0.69580  0.37429  0.16909  1.0000 -0.3277463104
N   N14       1.0  0.77671  0.44580  0.82151  1.0000 -0.3277463104
N   N15       1.0  0.20520  0.52671  0.83091  1.0000 -0.3277463104
N   N16       1.0  0.62429  0.95520  0.17849  1.0000 -0.3277463104
N   N17       1.0  0.81670  0.48380  0.95170  1.0000 -0.228807334
N   N18       1.0  0.11500  0.56670  0.83290  1.0000 -0.228807334
N   N19       1.0  0.53210  0.86500  0.04830  1.0000 -0.228807334
N   N20       1.0  0.73380  0.28210  0.16710  1.0000 -0.228807334
N   N21       1.0  0.43330  0.26620  0.54830  1.0000 -0.228807334
N   N22       1.0  0.13500  0.18330  0.66710  1.0000 -0.228807334
N   N23       1.0  0.71790  0.88500  0.45170  1.0000 -0.228807334
N   N24       1.0  0.51620  0.46790  0.33290  1.0000 -0.228807334
N   N25       1.0  0.44469  0.19218  0.32147  1.0000 -0.3479620807
N   N26       1.0  0.37322  0.19469  0.75251  1.0000 -0.3479620807
N   N27       1.0  0.87071  0.12322  0.67853  1.0000 -0.3479620807
N   N28       1.0  0.44218  0.62071  0.24749  1.0000 -0.3479620807
N   N29       1.0  0.80531  0.55782  0.17853  1.0000 -0.3479620807
N   N30       1.0  0.87678  0.55531  0.74749  1.0000 -0.3479620807
N   N31       1.0  0.37929  0.62678  0.82147  1.0000 -0.3479620807
N   N32       1.0  0.80782  0.12929  0.25251  1.0000 -0.3479620807
N   N33       1.0  0.49107  0.19470  0.30897  1.0000 -0.3115545802
N   N34       1.0  0.43210  0.24107  0.79637  1.0000 -0.3115545802
N   N35       1.0  0.88573  0.18210  0.69103  1.0000 -0.3115545802
N   N36       1.0  0.44470  0.63573  0.20363  1.0000 -0.3115545802
N   N37       1.0  0.75893  0.55530  0.19103  1.0000 -0.3115545802
N   N38       1.0  0.81790  0.50893  0.70363  1.0000 -0.3115545802
N   N39       1.0  0.36427  0.56790  0.80897  1.0000 -0.3115545802
N   N40       1.0  0.80530  0.11427  0.29637  1.0000 -0.3115545802
N   N41       1.0  0.54000  0.23280  0.48940  1.0000 0.0437251821
N   N42       1.0  0.30060  0.29000  0.80720  1.0000 0.0437251821
N   N43       1.0  0.74340  0.05060  0.51060  1.0000 0.0437251821
N   N44       1.0  0.48280  0.49340  0.19280  1.0000 0.0437251821
N   N45       1.0  0.71000  0.51720  0.01060  1.0000 0.0437251821
N   N46       1.0  0.94940  0.46000  0.69280  1.0000 0.0437251821
N   N47       1.0  0.50660  0.69940  0.98940  1.0000 0.0437251821
N   N48       1.0  0.76720  0.25660  0.30720  1.0000 0.0437251821
N   N49       1.0  0.76240  0.62891  0.28611  1.0000 -0.3277463104
N   N50       1.0  0.72629  0.51240  0.63349  1.0000 -0.3277463104
N   N51       1.0  0.34280  0.47629  0.71389  1.0000 -0.3277463104
N   N52       1.0  0.87891  0.09280  0.36651  1.0000 -0.3277463104
N   N53       1.0  0.48760  0.12109  0.21389  1.0000 -0.3277463104
N   N54       1.0  0.52371  0.23760  0.86651  1.0000 -0.3277463104
N   N55       1.0  0.90720  0.27371  0.78611  1.0000 -0.3277463104
N   N56       1.0  0.37109  0.65720  0.13349  1.0000 -0.3277463104
N   N57       1.0  0.74340  0.58720  0.31860  1.0000 -0.3156773813
N   N58       1.0  0.67480  0.49340  0.65620  1.0000 -0.3156773813
N   N59       1.0  0.26860  0.42480  0.68140  1.0000 -0.3156773813
N   N60       1.0  0.83720  0.01860  0.34380  1.0000 -0.3156773813
N   N61       1.0  0.50660  0.16280  0.18140  1.0000 -0.3156773813
N   N62       1.0  0.57520  0.25660  0.84380  1.0000 -0.3156773813
N   N63       1.0  0.98140  0.32520  0.81860  1.0000 -0.3156773813
N   N64       1.0  0.41280  0.73140  0.15620  1.0000 -0.3156773813
N   N65       1.0  0.29530  0.96660  0.18830  1.0000 -0.2128882522
N   N66       1.0  0.35700  0.04530  0.82870  1.0000 -0.2128882522
N   N67       1.0  0.77830  0.10700  0.81170  1.0000 -0.2128882522
N   N68       1.0  0.21660  0.52830  0.17130  1.0000 -0.2128882522
N   N69       1.0  0.95470  0.78340  0.31170  1.0000 -0.2128882522
N   N70       1.0  0.89300  0.70470  0.67130  1.0000 -0.2128882522
N   N71       1.0  0.47170  0.64300  0.68830  1.0000 -0.2128882522
N   N72       1.0  0.03340  0.22170  0.32870  1.0000 -0.2128882522
O   O1        1.0  0.68614  0.59638  0.39312  1.0000 -0.4865094684
O   O2        1.0  0.54302  0.43614  0.58976  1.0000 -0.4865094684
O   O3        1.0  0.20326  0.29302  0.60688  1.0000 -0.4865094684
O   O4        1.0  0.84638  0.95326  0.41024  1.0000 -0.4865094684
O   O5        1.0  0.56386  0.15362  0.10688  1.0000 -0.4865094684
O   O6        1.0  0.70698  0.31386  0.91024  1.0000 -0.4865094684
O   O7        1.0  0.04674  0.45698  0.89312  1.0000 -0.4865094684
O   O8        1.0  0.40362  0.79674  0.08976  1.0000 -0.4865094684
O   O9        1.0  0.57241  0.38500  0.41981  1.0000 -0.4816883849
O   O10       1.0  0.40260  0.32241  0.68741  1.0000 -0.4816883849
O   O11       1.0  0.96519  0.15260  0.58019  1.0000 -0.4816883849
O   O12       1.0  0.63500  0.71519  0.31259  1.0000 -0.4865094684
O   O13       1.0  0.67759  0.36500  0.08019  1.0000 -0.4816883849
O   O14       1.0  0.84740  0.42759  0.81259  1.0000 -0.4816883849
O   O15       1.0  0.28481  0.59740  0.91981  1.0000 -0.4865094684
O   O16       1.0  0.61500  0.03481  0.18741  1.0000 -0.4816883849
O   O17       1.0  0.57091  0.43729  0.27920  1.0000 -0.5000084706
O   O18       1.0  0.54171  0.32091  0.63362  1.0000 -0.5000084706
O   O19       1.0  0.15809  0.29171  0.72080  1.0000 -0.5000084706
O   O20       1.0  0.68729  0.90809  0.36638  1.0000 -0.5000084706
O   O21       1.0  0.67909  0.31271  0.22080  1.0000 -0.5000084706
O   O22       1.0  0.70829  0.42909  0.86638  1.0000 -0.5000084706
O   O23       1.0  0.09191  0.45829  0.77920  1.0000 -0.5000084706
O   O24       1.0  0.56271  0.84191  0.13362  1.0000 -0.5000084706
O   O25       1.0  0.41144  0.24189  0.36573  1.0000 -0.4816883849
O   O26       1.0  0.29571  0.16144  0.66955  1.0000 -0.4816883849
O   O27       1.0  0.87616  0.04571  0.63427  1.0000 -0.4816883849
O   O28       1.0  0.49189  0.62616  0.33045  1.0000 -0.4816883849
O   O29       1.0  0.83856  0.50811  0.13427  1.0000 -0.4816883849
O   O30       1.0  0.95429  0.58856  0.83045  1.0000 -0.4816883849
O   O31       1.0  0.37384  0.70429  0.86573  1.0000 -0.4816883849
O   O32       1.0  0.75811  0.12384  0.16955  1.0000 -0.4816883849
O   O33       1.0  0.33496  0.06236  0.27072  1.0000 -0.4816883849
O   O34       1.0  0.31424  0.08496  0.77260  1.0000 -0.4816883849
O   O35       1.0  0.79164  0.06424  0.72928  1.0000 -0.4816883849
O   O36       1.0  0.31236  0.54164  0.22740  1.0000 -0.4816883849
O   O37       1.0  0.91504  0.68764  0.22928  1.0000 -0.4816883849
O   O38       1.0  0.93576  0.66504  0.72740  1.0000 -0.4816883849
O   O39       1.0  0.45836  0.68576  0.77072  1.0000 -0.4816883849
O   O40       1.0  0.93764  0.20836  0.27260  1.0000 -0.4816883849
O   O41       1.0  0.59160  0.31614  0.36634  1.0000 -0.5160736807
O   O42       1.0  0.47526  0.34160  0.77546  1.0000 -0.5160736807
O   O43       1.0  0.94980  0.22526  0.63366  1.0000 -0.5160736807
O   O44       1.0  0.56614  0.69980  0.22454  1.0000 -0.5160736807
O   O45       1.0  0.65840  0.43386  0.13366  1.0000 -0.5160736807
O   O46       1.0  0.77474  0.40840  0.72454  1.0000 -0.5160736807
O   O47       1.0  0.30020  0.52474  0.86634  1.0000 -0.5160736807
O   O48       1.0  0.68386  0.05020  0.27546  1.0000 -0.5160736807
O   O49       1.0  0.49030  0.23620  0.42910  1.0000 -0.42853707
O   O50       1.0  0.31120  0.24030  0.75410  1.0000 -0.42853707
O   O51       1.0  0.80710  0.06120  0.57090  1.0000 -0.42853707
O   O52       1.0  0.48620  0.55710  0.24590  1.0000 -0.42853707
O   O53       1.0  0.75970  0.51380  0.07090  1.0000 -0.42853707
O   O54       1.0  0.93880  0.50970  0.74590  1.0000 -0.42853707
O   O55       1.0  0.44290  0.68880  0.92910  1.0000 -0.42853707
O   O56       1.0  0.76380  0.19290  0.25410  1.0000 -0.42853707
O   O57       1.0  0.84086  0.71492  0.22358  1.0000 -0.4517386399
O   O58       1.0  0.86728  0.59086  0.62594  1.0000 -0.4517386399
O   O59       1.0  0.49134  0.61728  0.77642  1.0000 -0.4517386399
O   O60       1.0  0.96492  0.24134  0.37406  1.0000 -0.4517386399
O   O61       1.0  0.40914  0.03508  0.27642  1.0000 -0.4517386399
O   O62       1.0  0.38272  0.15914  0.87406  1.0000 -0.4517386399
O   O63       1.0  0.75866  0.13272  0.72358  1.0000 -0.4517386399
O   O64       1.0  0.28508  0.50866  0.12594  1.0000 -0.4517386399
O   O65       1.0  0.66691  0.59783  0.29874  1.0000 -0.4596574299
O   O66       1.0  0.61817  0.41691  0.56908  1.0000 -0.4596574299
O   O67       1.0  0.29909  0.36817  0.70126  1.0000 -0.4596574299
O   O68       1.0  0.84783  0.04909  0.43092  1.0000 -0.4596574299
O   O69       1.0  0.58309  0.15217  0.20126  1.0000 -0.4596574299
O   O70       1.0  0.63183  0.33309  0.93092  1.0000 -0.4596574299
O   O71       1.0  0.95091  0.38183  0.79874  1.0000 -0.4596574299
O   O72       1.0  0.40217  0.70091  0.06908  1.0000 -0.4596574299
O   O73       1.0  0.82840  0.60767  0.29467  1.0000 -0.5000084706
O   O74       1.0  0.78373  0.57840  0.72073  1.0000 -0.5000084706
O   O75       1.0  0.31300  0.53373  0.70533  1.0000 -0.5000084706
O   O76       1.0  0.85767  0.06300  0.27927  1.0000 -0.5000084706
O   O77       1.0  0.42160  0.14233  0.20533  1.0000 -0.5000084706
O   O78       1.0  0.46627  0.17160  0.77927  1.0000 -0.5000084706
O   O79       1.0  0.93700  0.21627  0.79467  1.0000 -0.5000084706
O   O80       1.0  0.39233  0.68700  0.22073  1.0000 -0.5000084706
