# DDEC6 charges by PACMAN v1.1 (https://github.com/mtap-research/PACMAN-charge/)
data_2002[Zn][pcu]3[FSR]1
_chemical_formula_sum              "Zn8 H24 C48 O26"
_cell_length_a       18.266
_cell_length_b       18.266
_cell_length_c       18.266
_cell_angle_alpha    60
_cell_angle_beta     60
_cell_angle_gamma    60

_symmetry_space_group_name_H-M    "P 1"
_symmetry_Int_Tables_number       1

loop_
  _symmetry_equiv_pos_as_xyz
  'x, y, z'

loop_
  _atom_site_type_symbol
  _atom_site_label
  _atom_site_symmetry_multiplicity
  _atom_site_fract_x
  _atom_site_fract_y
  _atom_site_fract_z
  _atom_site_occupancy
  _atom_site_charge
Zn  Zn1       1.0  0.11986  0.29338  0.29338  1.0000 0.9687970881
Zn  Zn2       1.0  0.29338  0.11986  0.29338  1.0000 0.9687970881
Zn  Zn3       1.0  0.29338  0.29338  0.11986  1.0000 0.9687970881
Zn  Zn4       1.0  0.88014  0.70662  0.70662  1.0000 0.9687970881
Zn  Zn5       1.0  0.70662  0.70662  0.70662  1.0000 0.9687970881
Zn  Zn6       1.0  0.70662  0.70662  0.88014  1.0000 0.9687970881
Zn  Zn7       1.0  0.70662  0.88014  0.70662  1.0000 0.9687970881
Zn  Zn8       1.0  0.29338  0.29338  0.29338  1.0000 0.9687970881
H   H1        1.0  0.93500  0.45520  0.45520  1.0000 0.1257164805
H   H2        1.0  0.45520  0.93500  0.45520  1.0000 0.1257164805
H   H3        1.0  0.45520  0.45520  0.93500  1.0000 0.1257164805
H   H4        1.0  0.06500  0.54480  0.84540  1.0000 0.1257164805
H   H5        1.0  0.54480  0.84540  0.54480  1.0000 0.1257164805
H   H6        1.0  0.84540  0.54480  0.06500  1.0000 0.1257164805
H   H7        1.0  0.54480  0.06500  0.84540  1.0000 0.1257164805
H   H8        1.0  0.84540  0.54480  0.54480  1.0000 0.1257164805
H   H9        1.0  0.54480  0.84540  0.06500  1.0000 0.1257164805
H   H10       1.0  0.54480  0.54480  0.84540  1.0000 0.1257164805
H   H11       1.0  0.06500  0.84540  0.54480  1.0000 0.1257164805
H   H12       1.0  0.84540  0.06500  0.54480  1.0000 0.1257164805
H   H13       1.0  0.45520  0.93500  0.15460  1.0000 0.1257164805
H   H14       1.0  0.45520  0.15460  0.93500  1.0000 0.1257164805
H   H15       1.0  0.15460  0.45520  0.45520  1.0000 0.1257164805
H   H16       1.0  0.15460  0.45520  0.93500  1.0000 0.1257164805
H   H17       1.0  0.93500  0.45520  0.15460  1.0000 0.1257164805
H   H18       1.0  0.45520  0.15460  0.45520  1.0000 0.1257164805
H   H19       1.0  0.93500  0.15460  0.45520  1.0000 0.1257164805
H   H20       1.0  0.15460  0.93500  0.45520  1.0000 0.1257164805
H   H21       1.0  0.45520  0.45520  0.15460  1.0000 0.1257164805
H   H22       1.0  0.54480  0.06500  0.54480  1.0000 0.1257164805
H   H23       1.0  0.06500  0.54480  0.54480  1.0000 0.1257164805
H   H24       1.0  0.54480  0.54480  0.06500  1.0000 0.1257164805
C   C1        1.0  0.11130  0.38870  0.38870  1.0000 0.5970014288
C   C2        1.0  0.38870  0.11130  0.38870  1.0000 0.5970014288
C   C3        1.0  0.38870  0.38870  0.11130  1.0000 0.5970014288
C   C4        1.0  0.88870  0.61130  0.88870  1.0000 0.5970014288
C   C5        1.0  0.61130  0.88870  0.61130  1.0000 0.5970014288
C   C6        1.0  0.61130  0.88870  0.88870  1.0000 0.5970014288
C   C7        1.0  0.88870  0.61130  0.61130  1.0000 0.5970014288
C   C8        1.0  0.61130  0.61130  0.88870  1.0000 0.5970014288
C   C9        1.0  0.88870  0.88870  0.61130  1.0000 0.5970014288
C   C10       1.0  0.38870  0.11130  0.11130  1.0000 0.5970014288
C   C11       1.0  0.11130  0.38870  0.11130  1.0000 0.5970014288
C   C12       1.0  0.11130  0.11130  0.38870  1.0000 0.5970014288
C   C13       1.0  0.05380  0.44620  0.44620  1.0000 -0.0327418944
C   C14       1.0  0.44620  0.05380  0.44620  1.0000 -0.0327418944
C   C15       1.0  0.44620  0.44620  0.05380  1.0000 -0.0327418944
C   C16       1.0  0.94620  0.55380  0.94620  1.0000 -0.0327418944
C   C17       1.0  0.55380  0.94620  0.55380  1.0000 -0.0327418944
C   C18       1.0  0.55380  0.94620  0.94620  1.0000 -0.0327418944
C   C19       1.0  0.94620  0.55380  0.55380  1.0000 -0.0327418944
C   C20       1.0  0.55380  0.55380  0.94620  1.0000 -0.0327418944
C   C21       1.0  0.94620  0.94620  0.55380  1.0000 -0.0327418944
C   C22       1.0  0.44620  0.05380  0.05380  1.0000 -0.0352213938
C   C23       1.0  0.05380  0.44620  0.05380  1.0000 -0.0327418944
C   C24       1.0  0.05380  0.05380  0.44620  1.0000 -0.0327418944
C   C25       1.0  0.96110  0.47310  0.47310  1.0000 -0.0873540574
C   C26       1.0  0.47310  0.96110  0.47310  1.0000 -0.0873540574
C   C27       1.0  0.47310  0.47310  0.96110  1.0000 -0.0873540574
C   C28       1.0  0.03890  0.52690  0.90730  1.0000 -0.0873540574
C   C29       1.0  0.52690  0.90730  0.52690  1.0000 -0.0873540574
C   C30       1.0  0.90730  0.52690  0.03890  1.0000 -0.0873540574
C   C31       1.0  0.52690  0.03890  0.90730  1.0000 -0.0873540574
C   C32       1.0  0.90730  0.52690  0.52690  1.0000 -0.0873540574
C   C33       1.0  0.52690  0.90730  0.03890  1.0000 -0.0873540574
C   C34       1.0  0.52690  0.52690  0.90730  1.0000 -0.0873540574
C   C35       1.0  0.03890  0.90730  0.52690  1.0000 -0.0873540574
C   C36       1.0  0.90730  0.03890  0.52690  1.0000 -0.0873540574
C   C37       1.0  0.47310  0.96110  0.09270  1.0000 -0.0873540574
C   C38       1.0  0.47310  0.09270  0.96110  1.0000 -0.0873540574
C   C39       1.0  0.09270  0.47310  0.47310  1.0000 -0.0873540574
C   C40       1.0  0.09270  0.47310  0.96110  1.0000 -0.0873540574
C   C41       1.0  0.96110  0.47310  0.09270  1.0000 -0.0873540574
C   C42       1.0  0.47310  0.09270  0.47310  1.0000 -0.0873540574
C   C43       1.0  0.96110  0.09270  0.47310  1.0000 -0.0873540574
C   C44       1.0  0.09270  0.96110  0.47310  1.0000 -0.0873540574
C   C45       1.0  0.47310  0.47310  0.09270  1.0000 -0.0873540574
C   C46       1.0  0.52690  0.03890  0.52690  1.0000 -0.0873540574
C   C47       1.0  0.03890  0.52690  0.52690  1.0000 -0.0873540574
C   C48       1.0  0.52690  0.52690  0.03890  1.0000 -0.0873540574
O   O1        1.0  0.25000  0.25000  0.25000  1.0000 -1.0498357411
O   O2        1.0  0.75000  0.75000  0.75000  1.0000 -1.0498357411
O   O3        1.0  0.07023  0.36600  0.36600  1.0000 -0.5558349288
O   O4        1.0  0.36600  0.07023  0.36600  1.0000 -0.5558349288
O   O5        1.0  0.36600  0.36600  0.07023  1.0000 -0.5558349288
O   O6        1.0  0.92977  0.63400  0.80223  1.0000 -0.5558349288
O   O7        1.0  0.63400  0.80223  0.63400  1.0000 -0.5558349288
O   O8        1.0  0.80223  0.63400  0.92977  1.0000 -0.5558349288
O   O9        1.0  0.63400  0.92977  0.80223  1.0000 -0.5558349288
O   O10       1.0  0.80223  0.63400  0.63400  1.0000 -0.5558349288
O   O11       1.0  0.63400  0.80223  0.92977  1.0000 -0.5558349288
O   O12       1.0  0.63400  0.63400  0.80223  1.0000 -0.5558349288
O   O13       1.0  0.92977  0.80223  0.63400  1.0000 -0.5558349288
O   O14       1.0  0.80223  0.92977  0.63400  1.0000 -0.5558349288
O   O15       1.0  0.36600  0.07023  0.19777  1.0000 -0.5558349288
O   O16       1.0  0.36600  0.19777  0.07023  1.0000 -0.5558349288
O   O17       1.0  0.19777  0.36600  0.36600  1.0000 -0.5558349288
O   O18       1.0  0.19777  0.36600  0.07023  1.0000 -0.5558349288
O   O19       1.0  0.07023  0.36600  0.19777  1.0000 -0.5558349288
O   O20       1.0  0.36600  0.19777  0.36600  1.0000 -0.5558349288
O   O21       1.0  0.07023  0.19777  0.36600  1.0000 -0.5558349288
O   O22       1.0  0.19777  0.07023  0.36600  1.0000 -0.5558349288
O   O23       1.0  0.36600  0.36600  0.19777  1.0000 -0.5558349288
O   O24       1.0  0.63400  0.92977  0.63400  1.0000 -0.5558349288
O   O25       1.0  0.92977  0.63400  0.63400  1.0000 -0.5558349288
O   O26       1.0  0.63400  0.63400  0.92977  1.0000 -0.5558349288
