# DDEC6 charges by PACMAN v1.1 (https://github.com/mtap-research/PACMAN-charge/)
data_2003[Co][neb]3[FSR]2
_chemical_formula_sum              "Co4 H24 C24 N16"
_cell_length_a       16.4214
_cell_length_b       14.5052
_cell_length_c       9.93552
_cell_angle_alpha    82.1326
_cell_angle_beta     61.0448
_cell_angle_gamma    36.8226

_symmetry_space_group_name_H-M    "P 1"
_symmetry_Int_Tables_number       1

loop_
  _symmetry_equiv_pos_as_xyz
  'x, y, z'

loop_
  _atom_site_type_symbol
  _atom_site_label
  _atom_site_symmetry_multiplicity
  _atom_site_fract_x
  _atom_site_fract_y
  _atom_site_fract_z
  _atom_site_occupancy
  _atom_site_charge
Co  Co1       1.0  0.02500  0.10258  0.39384  1.0000 0.6182030657
Co  Co2       1.0  0.47858  0.39384  0.10258  1.0000 0.6182030657
Co  Co3       1.0  0.14742  0.22500  0.77142  1.0000 0.6182030657
Co  Co4       1.0  0.85616  0.77142  0.22500  1.0000 0.6182030657
H   H1        1.0  0.73470  0.31490  0.79250  1.0000 0.0898705194
H   H2        1.0  0.15790  0.79250  0.31490  1.0000 0.0898705194
H   H3        1.0  0.93510  0.51530  0.09210  1.0000 0.0898705194
H   H4        1.0  0.45750  0.09210  0.51530  1.0000 0.0898705194
H   H5        1.0  0.82520  0.07620  0.46080  1.0000 0.0991776394
H   H6        1.0  0.63780  0.46080  0.07620  1.0000 0.0991776394
H   H7        1.0  0.17380  0.42480  0.61220  1.0000 0.0991776394
H   H8        1.0  0.78920  0.61220  0.42480  1.0000 0.0991776394
H   H9        1.0  0.60330  0.19550  0.74830  1.0000 0.1096930014
H   H10       1.0  0.45290  0.74830  0.19550  1.0000 0.1096930014
H   H11       1.0  0.05450  0.64670  0.79710  1.0000 0.1096930014
H   H12       1.0  0.50170  0.79710  0.64670  1.0000 0.1096930014
H   H13       1.0  0.20450  0.02710  0.53850  1.0000 0.0898705194
H   H14       1.0  0.22990  0.53850  0.02710  1.0000 0.0898705194
H   H15       1.0  0.22290  0.04550  0.02010  1.0000 0.0898705194
H   H16       1.0  0.71150  0.02010  0.04550  1.0000 0.0898705194
H   H17       1.0  0.79750  0.47050  0.58650  1.0000 0.0991776394
H   H18       1.0  0.14550  0.58650  0.47050  1.0000 0.0991776394
H   H19       1.0  0.77950  0.45250  0.10450  1.0000 0.0991776394
H   H20       1.0  0.66350  0.10450  0.45250  1.0000 0.0991776394
H   H21       1.0  0.84160  0.52540  0.74060  1.0000 0.1096930014
H   H22       1.0  0.89240  0.74060  0.52540  1.0000 0.1096930014
H   H23       1.0  0.72460  0.40840  0.35760  1.0000 0.1096930014
H   H24       1.0  0.50940  0.35760  0.40840  1.0000 0.1096930014
C   C1        1.0  0.73220  0.26660  0.74580  1.0000 0.1300674001
C   C2        1.0  0.25540  0.74580  0.26660  1.0000 0.1300674001
C   C3        1.0  0.98340  0.51780  0.99460  1.0000 0.1300674001
C   C4        1.0  0.50420  0.99460  0.51780  1.0000 0.1300674001
C   C5        1.0  0.78070  0.13830  0.56370  1.0000 -0.0707446948
C   C6        1.0  0.51730  0.56370  0.13830  1.0000 -0.0707446948
C   C7        1.0  0.11170  0.46930  0.73270  1.0000 -0.0707446948
C   C8        1.0  0.68630  0.73270  0.46930  1.0000 -0.0707446948
C   C9        1.0  0.66090  0.20190  0.72150  1.0000 -0.0810142798
C   C10       1.0  0.41570  0.72150  0.20190  1.0000 -0.0810142798
C   C11       1.0  0.04810  0.58910  0.83430  1.0000 -0.0810142798
C   C12       1.0  0.52850  0.83430  0.58910  1.0000 -0.0810142798
C   C13       1.0  0.10910  0.14470  0.56790  1.0000 0.1237775194
C   C14       1.0  0.17830  0.56790  0.14470  1.0000 0.1237775194
C   C15       1.0  0.10530  0.14090  0.07170  1.0000 0.1237775194
C   C16       1.0  0.68210  0.07170  0.14090  1.0000 0.1237775194
C   C17       1.0  0.88650  0.38610  0.59470  1.0000 -0.0810142798
C   C18       1.0  0.13270  0.59470  0.38610  1.0000 -0.0810142798
C   C19       1.0  0.86390  0.36350  0.11730  1.0000 -0.0810142798
C   C20       1.0  0.65530  0.11730  0.36350  1.0000 -0.0810142798
C   C21       1.0  0.91120  0.41680  0.67880  1.0000 -0.0707446948
C   C22       1.0  0.99320  0.67880  0.41680  1.0000 -0.0707446948
C   C23       1.0  0.83320  0.33880  0.25680  1.0000 -0.0707446948
C   C24       1.0  0.57120  0.25680  0.33880  1.0000 -0.0707446948
N   N1        1.0  0.82990  0.17750  0.57470  1.0000 -0.2881693498
N   N2        1.0  0.41790  0.57470  0.17750  1.0000 -0.2881693498
N   N3        1.0  0.07250  0.42010  0.83210  1.0000 -0.2881693498
N   N4        1.0  0.67530  0.83210  0.42010  1.0000 -0.2881693498
N   N5        1.0  0.63070  0.27890  0.84230  1.0000 -0.2881693498
N   N6        1.0  0.24810  0.84230  0.27890  1.0000 -0.2881693498
N   N7        1.0  0.97110  0.61930  0.00190  1.0000 -0.2881693498
N   N8        1.0  0.40770  0.00190  0.61930  1.0000 -0.2881693498
N   N9        1.0  0.01080  0.21280  0.52260  1.0000 -0.301504307
N   N10       1.0  0.25380  0.52260  0.21280  1.0000 -0.301504307
N   N11       1.0  0.03720  0.23920  0.99620  1.0000 -0.301504307
N   N12       1.0  0.72740  0.99620  0.23920  1.0000 -0.301504307
N   N13       1.0  0.05624  0.26144  0.65836  1.0000 -0.2881693498
N   N14       1.0  0.02396  0.65836  0.26144  1.0000 -0.2881693498
N   N15       1.0  0.98856  0.19376  0.22604  1.0000 -0.2881693498
N   N16       1.0  0.59164  0.22604  0.19376  1.0000 -0.2881693498
