# DDEC6 charges by PACMAN v1.1 (https://github.com/mtap-research/PACMAN-charge/)
data_2003[Co][pcu]3[FSR]1
_chemical_formula_sum              "Co4 H144 C168 N24 O24"
_cell_length_a       18.352
_cell_length_b       18.352
_cell_length_c       18.352
_cell_angle_alpha    90
_cell_angle_beta     90
_cell_angle_gamma    90

_symmetry_space_group_name_H-M    "P 1"
_symmetry_Int_Tables_number       1

loop_
  _symmetry_equiv_pos_as_xyz
  'x, y, z'

loop_
  _atom_site_type_symbol
  _atom_site_label
  _atom_site_symmetry_multiplicity
  _atom_site_fract_x
  _atom_site_fract_y
  _atom_site_fract_z
  _atom_site_occupancy
  _atom_site_charge
Co  Co1       1.0  0.50000  0.50000  0.00000  1.0000 1.0248790107
Co  Co2       1.0  0.00000  0.50000  0.50000  1.0000 1.0248790107
Co  Co3       1.0  0.50000  0.00000  0.50000  1.0000 1.0248790107
Co  Co4       1.0  0.00000  0.00000  0.00000  1.0000 1.0248790107
H   H1        1.0  0.49750  0.42980  0.33640  1.0000 0.1099542536
H   H2        1.0  0.33640  0.49750  0.42980  1.0000 0.1099542536
H   H3        1.0  0.42980  0.33640  0.49750  1.0000 0.1099542536
H   H4        1.0  0.00250  0.57020  0.83640  1.0000 0.1099542536
H   H5        1.0  0.50250  0.92980  0.16360  1.0000 0.1099542536
H   H6        1.0  0.99750  0.07020  0.66360  1.0000 0.1099542536
H   H7        1.0  0.83640  0.00250  0.57020  1.0000 0.1099542536
H   H8        1.0  0.16360  0.50250  0.92980  1.0000 0.1099542536
H   H9        1.0  0.66360  0.99750  0.07020  1.0000 0.1099542536
H   H10       1.0  0.57020  0.83640  0.00250  1.0000 0.1099542536
H   H11       1.0  0.92980  0.16360  0.50250  1.0000 0.1099542536
H   H12       1.0  0.07020  0.66360  0.99750  1.0000 0.1099542536
H   H13       1.0  0.50250  0.57020  0.66360  1.0000 0.1099542536
H   H14       1.0  0.66360  0.50250  0.57020  1.0000 0.1099542536
H   H15       1.0  0.57020  0.66360  0.50250  1.0000 0.1099542536
H   H16       1.0  0.99750  0.42980  0.16360  1.0000 0.1099542536
H   H17       1.0  0.49750  0.07020  0.83640  1.0000 0.1099542536
H   H18       1.0  0.00250  0.92980  0.33640  1.0000 0.1099542536
H   H19       1.0  0.16360  0.99750  0.42980  1.0000 0.1099542536
H   H20       1.0  0.83640  0.49750  0.07020  1.0000 0.1099542536
H   H21       1.0  0.33640  0.00250  0.92980  1.0000 0.1099542536
H   H22       1.0  0.42980  0.16360  0.99750  1.0000 0.1099542536
H   H23       1.0  0.07020  0.83640  0.49750  1.0000 0.1099542536
H   H24       1.0  0.92980  0.33640  0.00250  1.0000 0.1099542536
H   H25       1.0  0.44440  0.40980  0.22630  1.0000 0.1499940868
H   H26       1.0  0.22630  0.44440  0.40980  1.0000 0.1499940868
H   H27       1.0  0.40980  0.22630  0.44440  1.0000 0.1499940868
H   H28       1.0  0.05560  0.59020  0.72630  1.0000 0.1499940868
H   H29       1.0  0.55560  0.90980  0.27370  1.0000 0.1499940868
H   H30       1.0  0.94440  0.09020  0.77370  1.0000 0.1499940868
H   H31       1.0  0.72630  0.05560  0.59020  1.0000 0.1499940868
H   H32       1.0  0.27370  0.55560  0.90980  1.0000 0.1499940868
H   H33       1.0  0.77370  0.94440  0.09020  1.0000 0.1499940868
H   H34       1.0  0.59020  0.72630  0.05560  1.0000 0.1499940868
H   H35       1.0  0.90980  0.27370  0.55560  1.0000 0.1499940868
H   H36       1.0  0.09020  0.77370  0.94440  1.0000 0.1499940868
H   H37       1.0  0.55560  0.59020  0.77370  1.0000 0.1499940868
H   H38       1.0  0.77370  0.55560  0.59020  1.0000 0.1499940868
H   H39       1.0  0.59020  0.77370  0.55560  1.0000 0.1499940868
H   H40       1.0  0.94440  0.40980  0.27370  1.0000 0.1499940868
H   H41       1.0  0.44440  0.09020  0.72630  1.0000 0.1499940868
H   H42       1.0  0.05560  0.90980  0.22630  1.0000 0.1499940868
H   H43       1.0  0.27370  0.94440  0.40980  1.0000 0.1499940868
H   H44       1.0  0.72630  0.44440  0.09020  1.0000 0.1499940868
H   H45       1.0  0.22630  0.05560  0.90980  1.0000 0.1499940868
H   H46       1.0  0.40980  0.27370  0.94440  1.0000 0.1499940868
H   H47       1.0  0.09020  0.72630  0.44440  1.0000 0.1499940868
H   H48       1.0  0.90980  0.22630  0.05560  1.0000 0.1499940868
H   H49       1.0  0.57660  0.56560  0.14070  1.0000 0.1499940868
H   H50       1.0  0.14070  0.57660  0.56560  1.0000 0.1499940868
H   H51       1.0  0.56560  0.14070  0.57660  1.0000 0.1499940868
H   H52       1.0  0.92340  0.43440  0.64070  1.0000 0.1499940868
H   H53       1.0  0.42340  0.06560  0.35930  1.0000 0.1499940868
H   H54       1.0  0.07660  0.93440  0.85930  1.0000 0.1499940868
H   H55       1.0  0.64070  0.92340  0.43440  1.0000 0.1499940868
H   H56       1.0  0.35930  0.42340  0.06560  1.0000 0.1499940868
H   H57       1.0  0.85930  0.07660  0.93440  1.0000 0.1499940868
H   H58       1.0  0.43440  0.64070  0.92340  1.0000 0.1499940868
H   H59       1.0  0.06560  0.35930  0.42340  1.0000 0.1499940868
H   H60       1.0  0.93440  0.85930  0.07660  1.0000 0.1499940868
H   H61       1.0  0.42340  0.43440  0.85930  1.0000 0.1499940868
H   H62       1.0  0.85930  0.42340  0.43440  1.0000 0.1499940868
H   H63       1.0  0.43440  0.85930  0.42340  1.0000 0.1499940868
H   H64       1.0  0.07660  0.56560  0.35930  1.0000 0.1499940868
H   H65       1.0  0.57660  0.93440  0.64070  1.0000 0.1499940868
H   H66       1.0  0.92340  0.06560  0.14070  1.0000 0.1499940868
H   H67       1.0  0.35930  0.07660  0.56560  1.0000 0.1499940868
H   H68       1.0  0.64070  0.57660  0.93440  1.0000 0.1499940868
H   H69       1.0  0.14070  0.92340  0.06560  1.0000 0.1499940868
H   H70       1.0  0.56560  0.35930  0.07660  1.0000 0.1499940868
H   H71       1.0  0.93440  0.64070  0.57660  1.0000 0.1499940868
H   H72       1.0  0.06560  0.14070  0.92340  1.0000 0.1499940868
H   H73       1.0  0.62290  0.58200  0.25310  1.0000 0.1219040712
H   H74       1.0  0.25310  0.62290  0.58200  1.0000 0.1219040712
H   H75       1.0  0.58200  0.25310  0.62290  1.0000 0.1219040712
H   H76       1.0  0.87710  0.41800  0.75310  1.0000 0.1219040712
H   H77       1.0  0.37710  0.08200  0.24690  1.0000 0.1219040712
H   H78       1.0  0.12290  0.91800  0.74690  1.0000 0.1219040712
H   H79       1.0  0.75310  0.87710  0.41800  1.0000 0.1219040712
H   H80       1.0  0.24690  0.37710  0.08200  1.0000 0.1219040712
H   H81       1.0  0.74690  0.12290  0.91800  1.0000 0.1219040712
H   H82       1.0  0.41800  0.75310  0.87710  1.0000 0.1219040712
H   H83       1.0  0.08200  0.24690  0.37710  1.0000 0.1219040712
H   H84       1.0  0.91800  0.74690  0.12290  1.0000 0.1219040712
H   H85       1.0  0.37710  0.41800  0.74690  1.0000 0.1219040712
H   H86       1.0  0.74690  0.37710  0.41800  1.0000 0.1219040712
H   H87       1.0  0.41800  0.74690  0.37710  1.0000 0.1219040712
H   H88       1.0  0.12290  0.58200  0.24690  1.0000 0.1219040712
H   H89       1.0  0.62290  0.91800  0.75310  1.0000 0.1219040712
H   H90       1.0  0.87710  0.08200  0.25310  1.0000 0.1219040712
H   H91       1.0  0.24690  0.12290  0.58200  1.0000 0.1219040712
H   H92       1.0  0.75310  0.62290  0.91800  1.0000 0.1219040712
H   H93       1.0  0.25310  0.87710  0.08200  1.0000 0.1219040712
H   H94       1.0  0.58200  0.24690  0.12290  1.0000 0.1219040712
H   H95       1.0  0.91800  0.75310  0.62290  1.0000 0.1219040712
H   H96       1.0  0.08200  0.25310  0.87710  1.0000 0.1219040712
H   H97       1.0  0.62110  0.56730  0.37890  1.0000 0.1099542536
H   H98       1.0  0.37890  0.62110  0.56730  1.0000 0.1099542536
H   H99       1.0  0.56730  0.37890  0.62110  1.0000 0.1099542536
H   H100      1.0  0.87890  0.43270  0.87890  1.0000 0.1099542536
H   H101      1.0  0.37890  0.06730  0.12110  1.0000 0.1099542536
H   H102      1.0  0.12110  0.93270  0.62110  1.0000 0.1099542536
H   H103      1.0  0.87890  0.87890  0.43270  1.0000 0.1099542536
H   H104      1.0  0.12110  0.37890  0.06730  1.0000 0.1099542536
H   H105      1.0  0.62110  0.12110  0.93270  1.0000 0.1099542536
H   H106      1.0  0.43270  0.87890  0.87890  1.0000 0.1099542536
H   H107      1.0  0.06730  0.12110  0.37890  1.0000 0.1099542536
H   H108      1.0  0.93270  0.62110  0.12110  1.0000 0.1099542536
H   H109      1.0  0.37890  0.43270  0.62110  1.0000 0.1099542536
H   H110      1.0  0.62110  0.37890  0.43270  1.0000 0.1099542536
H   H111      1.0  0.43270  0.62110  0.37890  1.0000 0.1099542536
H   H112      1.0  0.12110  0.56730  0.12110  1.0000 0.1099542536
H   H113      1.0  0.62110  0.93270  0.87890  1.0000 0.1099542536
H   H114      1.0  0.87890  0.06730  0.37890  1.0000 0.1099542536
H   H115      1.0  0.12110  0.12110  0.56730  1.0000 0.1099542536
H   H116      1.0  0.87890  0.62110  0.93270  1.0000 0.1099542536
H   H117      1.0  0.37890  0.87890  0.06730  1.0000 0.1099542536
H   H118      1.0  0.56730  0.12110  0.12110  1.0000 0.1099542536
H   H119      1.0  0.93270  0.87890  0.62110  1.0000 0.1099542536
H   H120      1.0  0.06730  0.37890  0.87890  1.0000 0.1099542536
H   H121      1.0  0.64010  0.48410  0.38210  1.0000 0.1099542536
H   H122      1.0  0.38210  0.64010  0.48410  1.0000 0.1099542536
H   H123      1.0  0.48410  0.38210  0.64010  1.0000 0.1099542536
H   H124      1.0  0.85990  0.51590  0.88210  1.0000 0.1099542536
H   H125      1.0  0.35990  0.98410  0.11790  1.0000 0.1099542536
H   H126      1.0  0.14010  0.01590  0.61790  1.0000 0.1099542536
H   H127      1.0  0.88210  0.85990  0.51590  1.0000 0.1099542536
H   H128      1.0  0.11790  0.35990  0.98410  1.0000 0.1099542536
H   H129      1.0  0.61790  0.14010  0.01590  1.0000 0.1099542536
H   H130      1.0  0.51590  0.88210  0.85990  1.0000 0.1099542536
H   H131      1.0  0.98410  0.11790  0.35990  1.0000 0.1099542536
H   H132      1.0  0.01590  0.61790  0.14010  1.0000 0.1099542536
H   H133      1.0  0.35990  0.51590  0.61790  1.0000 0.1099542536
H   H134      1.0  0.61790  0.35990  0.51590  1.0000 0.1099542536
H   H135      1.0  0.51590  0.61790  0.35990  1.0000 0.1099542536
H   H136      1.0  0.14010  0.48410  0.11790  1.0000 0.1099542536
H   H137      1.0  0.64010  0.01590  0.88210  1.0000 0.1099542536
H   H138      1.0  0.85990  0.98410  0.38210  1.0000 0.1099542536
H   H139      1.0  0.11790  0.14010  0.48410  1.0000 0.1099542536
H   H140      1.0  0.88210  0.64010  0.01590  1.0000 0.1099542536
H   H141      1.0  0.38210  0.85990  0.98410  1.0000 0.1099542536
H   H142      1.0  0.48410  0.11790  0.14010  1.0000 0.1099542536
H   H143      1.0  0.01590  0.88210  0.64010  1.0000 0.1099542536
H   H144      1.0  0.98410  0.38210  0.85990  1.0000 0.1099542536
C   C1        1.0  0.51250  0.45730  0.29660  1.0000 -0.0442762992
C   C2        1.0  0.29660  0.51250  0.45730  1.0000 -0.0442762992
C   C3        1.0  0.45730  0.29660  0.51250  1.0000 -0.0442762992
C   C4        1.0  0.98750  0.54270  0.79660  1.0000 -0.0458888596
C   C5        1.0  0.48750  0.95730  0.20340  1.0000 -0.0442762992
C   C6        1.0  0.01250  0.04270  0.70340  1.0000 -0.0442762992
C   C7        1.0  0.79660  0.98750  0.54270  1.0000 -0.0458888596
C   C8        1.0  0.20340  0.48750  0.95730  1.0000 -0.0442762992
C   C9        1.0  0.70340  0.01250  0.04270  1.0000 -0.0442762992
C   C10       1.0  0.54270  0.79660  0.98750  1.0000 -0.0458888596
C   C11       1.0  0.95730  0.20340  0.48750  1.0000 -0.0442762992
C   C12       1.0  0.04270  0.70340  0.01250  1.0000 -0.0442762992
C   C13       1.0  0.48750  0.54270  0.70340  1.0000 -0.0442762992
C   C14       1.0  0.70340  0.48750  0.54270  1.0000 -0.0442762992
C   C15       1.0  0.54270  0.70340  0.48750  1.0000 -0.0442762992
C   C16       1.0  0.01250  0.45730  0.20340  1.0000 -0.0442762992
C   C17       1.0  0.51250  0.04270  0.79660  1.0000 -0.0458888596
C   C18       1.0  0.98750  0.95730  0.29660  1.0000 -0.0442762992
C   C19       1.0  0.20340  0.01250  0.45730  1.0000 -0.0442762992
C   C20       1.0  0.79660  0.51250  0.04270  1.0000 -0.0442762992
C   C21       1.0  0.29660  0.98750  0.95730  1.0000 -0.0442762992
C   C22       1.0  0.45730  0.20340  0.01250  1.0000 -0.0442762992
C   C23       1.0  0.04270  0.79660  0.51250  1.0000 -0.0458888596
C   C24       1.0  0.95730  0.29660  0.98750  1.0000 -0.0442762992
C   C25       1.0  0.48080  0.44480  0.23050  1.0000 -0.2872915445
C   C26       1.0  0.23050  0.48080  0.44480  1.0000 -0.2872915445
C   C27       1.0  0.44480  0.23050  0.48080  1.0000 -0.2872915445
C   C28       1.0  0.01920  0.55520  0.73050  1.0000 -0.2872915445
C   C29       1.0  0.51920  0.94480  0.26950  1.0000 -0.2872915445
C   C30       1.0  0.98080  0.05520  0.76950  1.0000 -0.2872915445
C   C31       1.0  0.73050  0.01920  0.55520  1.0000 -0.2872915445
C   C32       1.0  0.26950  0.51920  0.94480  1.0000 -0.2872915445
C   C33       1.0  0.76950  0.98080  0.05520  1.0000 -0.2872915445
C   C34       1.0  0.55520  0.73050  0.01920  1.0000 -0.2872915445
C   C35       1.0  0.94480  0.26950  0.51920  1.0000 -0.2872915445
C   C36       1.0  0.05520  0.76950  0.98080  1.0000 -0.2872915445
C   C37       1.0  0.51920  0.55520  0.76950  1.0000 -0.2872915445
C   C38       1.0  0.76950  0.51920  0.55520  1.0000 -0.2872915445
C   C39       1.0  0.55520  0.76950  0.51920  1.0000 -0.2872915445
C   C40       1.0  0.98080  0.44480  0.26950  1.0000 -0.2872915445
C   C41       1.0  0.48080  0.05520  0.73050  1.0000 -0.2872915445
C   C42       1.0  0.01920  0.94480  0.23050  1.0000 -0.2872915445
C   C43       1.0  0.26950  0.98080  0.44480  1.0000 -0.2872915445
C   C44       1.0  0.73050  0.48080  0.05520  1.0000 -0.2872915445
C   C45       1.0  0.23050  0.01920  0.94480  1.0000 -0.2872915445
C   C46       1.0  0.44480  0.26950  0.98080  1.0000 -0.2872915445
C   C47       1.0  0.05520  0.73050  0.48080  1.0000 -0.2872915445
C   C48       1.0  0.94480  0.23050  0.01920  1.0000 -0.2872915445
C   C49       1.0  0.50280  0.48460  0.16810  1.0000 0.4225054555
C   C50       1.0  0.16810  0.50280  0.48460  1.0000 0.4225054555
C   C51       1.0  0.48460  0.16810  0.50280  1.0000 0.4225054555
C   C52       1.0  0.99720  0.51540  0.66810  1.0000 0.4225054555
C   C53       1.0  0.49720  0.98460  0.33190  1.0000 0.4225054555
C   C54       1.0  0.00280  0.01540  0.83190  1.0000 0.4225054555
C   C55       1.0  0.66810  0.99720  0.51540  1.0000 0.4225054555
C   C56       1.0  0.33190  0.49720  0.98460  1.0000 0.4225054555
C   C57       1.0  0.83190  0.00280  0.01540  1.0000 0.4225054555
C   C58       1.0  0.51540  0.66810  0.99720  1.0000 0.4225054555
C   C59       1.0  0.98460  0.33190  0.49720  1.0000 0.4225054555
C   C60       1.0  0.01540  0.83190  0.00280  1.0000 0.4225054555
C   C61       1.0  0.49720  0.51540  0.83190  1.0000 0.4225054555
C   C62       1.0  0.83190  0.49720  0.51540  1.0000 0.4225054555
C   C63       1.0  0.51540  0.83190  0.49720  1.0000 0.4225054555
C   C64       1.0  0.00280  0.48460  0.33190  1.0000 0.4225054555
C   C65       1.0  0.50280  0.01540  0.66810  1.0000 0.4225054555
C   C66       1.0  0.99720  0.98460  0.16810  1.0000 0.4225054555
C   C67       1.0  0.33190  0.00280  0.48460  1.0000 0.4225054555
C   C68       1.0  0.66810  0.50280  0.01540  1.0000 0.4225054555
C   C69       1.0  0.16810  0.99720  0.98460  1.0000 0.4225054555
C   C70       1.0  0.48460  0.33190  0.00280  1.0000 0.4225054555
C   C71       1.0  0.01540  0.66810  0.50280  1.0000 0.4225054555
C   C72       1.0  0.98460  0.16810  0.99720  1.0000 0.4225054555
C   C73       1.0  0.55930  0.53790  0.17940  1.0000 -0.248315077
C   C74       1.0  0.17940  0.55930  0.53790  1.0000 -0.248315077
C   C75       1.0  0.53790  0.17940  0.55930  1.0000 -0.248315077
C   C76       1.0  0.94070  0.46210  0.67940  1.0000 -0.248315077
C   C77       1.0  0.44070  0.03790  0.32060  1.0000 -0.248315077
C   C78       1.0  0.05930  0.96210  0.82060  1.0000 -0.248315077
C   C79       1.0  0.67940  0.94070  0.46210  1.0000 -0.248315077
C   C80       1.0  0.32060  0.44070  0.03790  1.0000 -0.248315077
C   C81       1.0  0.82060  0.05930  0.96210  1.0000 -0.248315077
C   C82       1.0  0.46210  0.67940  0.94070  1.0000 -0.248315077
C   C83       1.0  0.03790  0.32060  0.44070  1.0000 -0.248315077
C   C84       1.0  0.96210  0.82060  0.05930  1.0000 -0.248315077
C   C85       1.0  0.44070  0.46210  0.82060  1.0000 -0.248315077
C   C86       1.0  0.82060  0.44070  0.46210  1.0000 -0.248315077
C   C87       1.0  0.46210  0.82060  0.44070  1.0000 -0.248315077
C   C88       1.0  0.05930  0.53790  0.32060  1.0000 -0.248315077
C   C89       1.0  0.55930  0.96210  0.67940  1.0000 -0.248315077
C   C90       1.0  0.94070  0.03790  0.17940  1.0000 -0.248315077
C   C91       1.0  0.32060  0.05930  0.53790  1.0000 -0.248315077
C   C92       1.0  0.67940  0.55930  0.96210  1.0000 -0.248315077
C   C93       1.0  0.17940  0.94070  0.03790  1.0000 -0.248315077
C   C94       1.0  0.53790  0.32060  0.05930  1.0000 -0.248315077
C   C95       1.0  0.96210  0.67940  0.55930  1.0000 -0.248315077
C   C96       1.0  0.03790  0.17940  0.94070  1.0000 -0.248315077
C   C97       1.0  0.58670  0.54710  0.24660  1.0000 -0.0442762992
C   C98       1.0  0.24660  0.58670  0.54710  1.0000 -0.0442762992
C   C99       1.0  0.54710  0.24660  0.58670  1.0000 -0.0442762992
C   C100      1.0  0.91330  0.45290  0.74660  1.0000 -0.0442762992
C   C101      1.0  0.41330  0.04710  0.25340  1.0000 -0.0442762992
C   C102      1.0  0.08670  0.95290  0.75340  1.0000 -0.0458888596
C   C103      1.0  0.74660  0.91330  0.45290  1.0000 -0.0442762992
C   C104      1.0  0.25340  0.41330  0.04710  1.0000 -0.0442762992
C   C105      1.0  0.75340  0.08670  0.95290  1.0000 -0.0458888596
C   C106      1.0  0.45290  0.74660  0.91330  1.0000 -0.0442762992
C   C107      1.0  0.04710  0.25340  0.41330  1.0000 -0.0442762992
C   C108      1.0  0.95290  0.75340  0.08670  1.0000 -0.0442762992
C   C109      1.0  0.41330  0.45290  0.75340  1.0000 -0.0458888596
C   C110      1.0  0.75340  0.41330  0.45290  1.0000 -0.0442762992
C   C111      1.0  0.45290  0.75340  0.41330  1.0000 -0.0458888596
C   C112      1.0  0.08670  0.54710  0.25340  1.0000 -0.0442762992
C   C113      1.0  0.58670  0.95290  0.74660  1.0000 -0.0442762992
C   C114      1.0  0.91330  0.04710  0.24660  1.0000 -0.0442762992
C   C115      1.0  0.25340  0.08670  0.54710  1.0000 -0.0442762992
C   C116      1.0  0.74660  0.58670  0.95290  1.0000 -0.0442762992
C   C117      1.0  0.24660  0.91330  0.04710  1.0000 -0.0442762992
C   C118      1.0  0.54710  0.25340  0.08670  1.0000 -0.0442762992
C   C119      1.0  0.95290  0.74660  0.58670  1.0000 -0.0442762992
C   C120      1.0  0.04710  0.24660  0.91330  1.0000 -0.0442762992
C   C121      1.0  0.60050  0.51870  0.37730  1.0000 -0.205458609
C   C122      1.0  0.37730  0.60050  0.51870  1.0000 -0.205458609
C   C123      1.0  0.51870  0.37730  0.60050  1.0000 -0.2043108684
C   C124      1.0  0.89950  0.48130  0.87730  1.0000 -0.2043108684
C   C125      1.0  0.39950  0.01870  0.12270  1.0000 -0.2043108684
C   C126      1.0  0.10050  0.98130  0.62270  1.0000 -0.2043108684
C   C127      1.0  0.87730  0.89950  0.48130  1.0000 -0.2043108684
C   C128      1.0  0.12270  0.39950  0.01870  1.0000 -0.2043108684
C   C129      1.0  0.62270  0.10050  0.98130  1.0000 -0.2043108684
C   C130      1.0  0.48130  0.87730  0.89950  1.0000 -0.2043108684
C   C131      1.0  0.01870  0.12270  0.39950  1.0000 -0.2043108684
C   C132      1.0  0.98130  0.62270  0.10050  1.0000 -0.2043108684
C   C133      1.0  0.39950  0.48130  0.62270  1.0000 -0.2043108684
C   C134      1.0  0.62270  0.39950  0.48130  1.0000 -0.2043108684
C   C135      1.0  0.48130  0.62270  0.39950  1.0000 -0.2043108684
C   C136      1.0  0.10050  0.51870  0.12270  1.0000 -0.2043108684
C   C137      1.0  0.60050  0.98130  0.87730  1.0000 -0.2043108684
C   C138      1.0  0.89950  0.01870  0.37730  1.0000 -0.2043108684
C   C139      1.0  0.12270  0.10050  0.51870  1.0000 -0.2043108684
C   C140      1.0  0.87730  0.60050  0.98130  1.0000 -0.2043108684
C   C141      1.0  0.37730  0.89950  0.01870  1.0000 -0.2043108684
C   C142      1.0  0.51870  0.12270  0.10050  1.0000 -0.2043108684
C   C143      1.0  0.98130  0.87730  0.60050  1.0000 -0.2043108684
C   C144      1.0  0.01870  0.37730  0.89950  1.0000 -0.205458609
C   C145      1.0  0.54760  0.50910  0.44180  1.0000 -0.0174452743
C   C146      1.0  0.44180  0.54760  0.50910  1.0000 -0.0174452743
C   C147      1.0  0.50910  0.44180  0.54760  1.0000 -0.0174452743
C   C148      1.0  0.95240  0.49090  0.94180  1.0000 -0.0174452743
C   C149      1.0  0.45240  0.00910  0.05820  1.0000 -0.0174452743
C   C150      1.0  0.04760  0.99090  0.55820  1.0000 -0.0174452743
C   C151      1.0  0.94180  0.95240  0.49090  1.0000 -0.0174452743
C   C152      1.0  0.05820  0.45240  0.00910  1.0000 -0.0174452743
C   C153      1.0  0.55820  0.04760  0.99090  1.0000 -0.0174452743
C   C154      1.0  0.49090  0.94180  0.95240  1.0000 -0.0174452743
C   C155      1.0  0.00910  0.05820  0.45240  1.0000 -0.0174452743
C   C156      1.0  0.99090  0.55820  0.04760  1.0000 -0.0174452743
C   C157      1.0  0.45240  0.49090  0.55820  1.0000 -0.0174452743
C   C158      1.0  0.55820  0.45240  0.49090  1.0000 -0.0174452743
C   C159      1.0  0.49090  0.55820  0.45240  1.0000 -0.0174452743
C   C160      1.0  0.04760  0.50910  0.05820  1.0000 -0.0174452743
C   C161      1.0  0.54760  0.99090  0.94180  1.0000 -0.0174452743
C   C162      1.0  0.95240  0.00910  0.44180  1.0000 -0.0174452743
C   C163      1.0  0.05820  0.04760  0.50910  1.0000 -0.0174452743
C   C164      1.0  0.94180  0.54760  0.99090  1.0000 -0.0174452743
C   C165      1.0  0.44180  0.95240  0.00910  1.0000 -0.0174452743
C   C166      1.0  0.50910  0.05820  0.04760  1.0000 -0.0174452743
C   C167      1.0  0.99090  0.94180  0.54760  1.0000 -0.0174452743
C   C168      1.0  0.00910  0.44180  0.95240  1.0000 -0.0174452743
N   N1        1.0  0.56420  0.50770  0.30620  1.0000 0.0344554729
N   N2        1.0  0.30620  0.56420  0.50770  1.0000 0.0344554729
N   N3        1.0  0.50770  0.30620  0.56420  1.0000 0.0344554729
N   N4        1.0  0.93580  0.49230  0.80620  1.0000 0.0350074455
N   N5        1.0  0.43580  0.00770  0.19380  1.0000 0.0344554729
N   N6        1.0  0.06420  0.99230  0.69380  1.0000 0.0350074455
N   N7        1.0  0.80620  0.93580  0.49230  1.0000 0.0350074455
N   N8        1.0  0.19380  0.43580  0.00770  1.0000 0.0344554729
N   N9        1.0  0.69380  0.06420  0.99230  1.0000 0.0350074455
N   N10       1.0  0.49230  0.80620  0.93580  1.0000 0.0350074455
N   N11       1.0  0.00770  0.19380  0.43580  1.0000 0.0344554729
N   N12       1.0  0.99230  0.69380  0.06420  1.0000 0.0350074455
N   N13       1.0  0.43580  0.49230  0.69380  1.0000 0.0350074455
N   N14       1.0  0.69380  0.43580  0.49230  1.0000 0.0350074455
N   N15       1.0  0.49230  0.69380  0.43580  1.0000 0.0350074455
N   N16       1.0  0.06420  0.50770  0.19380  1.0000 0.0344554729
N   N17       1.0  0.56420  0.99230  0.80620  1.0000 0.0350074455
N   N18       1.0  0.93580  0.00770  0.30620  1.0000 0.0344554729
N   N19       1.0  0.19380  0.06420  0.50770  1.0000 0.0344554729
N   N20       1.0  0.80620  0.56420  0.99230  1.0000 0.0350074455
N   N21       1.0  0.30620  0.93580  0.00770  1.0000 0.0350074455
N   N22       1.0  0.50770  0.19380  0.06420  1.0000 0.0344554729
N   N23       1.0  0.99230  0.80620  0.56420  1.0000 0.0350074455
N   N24       1.0  0.00770  0.30620  0.93580  1.0000 0.0350074455
O   O1        1.0  0.47200  0.47480  0.10660  1.0000 -0.5331875461
O   O2        1.0  0.10660  0.47200  0.47480  1.0000 -0.5331875461
O   O3        1.0  0.47480  0.10660  0.47200  1.0000 -0.5331875461
O   O4        1.0  0.02800  0.52520  0.60660  1.0000 -0.5331875461
O   O5        1.0  0.52800  0.97480  0.39340  1.0000 -0.5331875461
O   O6        1.0  0.97200  0.02520  0.89340  1.0000 -0.5331875461
O   O7        1.0  0.60660  0.02800  0.52520  1.0000 -0.5331875461
O   O8        1.0  0.39340  0.52800  0.97480  1.0000 -0.5331875461
O   O9        1.0  0.89340  0.97200  0.02520  1.0000 -0.5331875461
O   O10       1.0  0.52520  0.60660  0.02800  1.0000 -0.5331875461
O   O11       1.0  0.97480  0.39340  0.52800  1.0000 -0.5331875461
O   O12       1.0  0.02520  0.89340  0.97200  1.0000 -0.5331875461
O   O13       1.0  0.52800  0.52520  0.89340  1.0000 -0.5331875461
O   O14       1.0  0.89340  0.52800  0.52520  1.0000 -0.5331875461
O   O15       1.0  0.52520  0.89340  0.52800  1.0000 -0.5331875461
O   O16       1.0  0.97200  0.47480  0.39340  1.0000 -0.5331875461
O   O17       1.0  0.47200  0.02520  0.60660  1.0000 -0.5331875461
O   O18       1.0  0.02800  0.97480  0.10660  1.0000 -0.5331875461
O   O19       1.0  0.39340  0.97200  0.47480  1.0000 -0.5331875461
O   O20       1.0  0.60660  0.47200  0.02520  1.0000 -0.5331875461
O   O21       1.0  0.10660  0.02800  0.97480  1.0000 -0.5331875461
O   O22       1.0  0.47480  0.39340  0.97200  1.0000 -0.5331875461
O   O23       1.0  0.02520  0.60660  0.47200  1.0000 -0.5331875461
O   O24       1.0  0.97480  0.10660  0.02800  1.0000 -0.5331875461
