# DDEC6 charges by PACMAN v1.1 (https://github.com/mtap-research/PACMAN-charge/)
data_2005[Zn][pcu]3[FSR]8
_chemical_formula_sum              "Zn8 H24 C48 O26"
_cell_length_a       18.3063
_cell_length_b       18.3063
_cell_length_c       18.3063
_cell_angle_alpha    60
_cell_angle_beta     60
_cell_angle_gamma    60

_symmetry_space_group_name_H-M    "P 1"
_symmetry_Int_Tables_number       1

loop_
  _symmetry_equiv_pos_as_xyz
  'x, y, z'

loop_
  _atom_site_type_symbol
  _atom_site_label
  _atom_site_symmetry_multiplicity
  _atom_site_fract_x
  _atom_site_fract_y
  _atom_site_fract_z
  _atom_site_occupancy
  _atom_site_charge
Zn  Zn1       1.0  0.20665  0.20665  0.38005  1.0000 0.9563547934
Zn  Zn2       1.0  0.38005  0.20665  0.20665  1.0000 0.9528602327
Zn  Zn3       1.0  0.20665  0.38005  0.20665  1.0000 0.9528602327
Zn  Zn4       1.0  0.79335  0.79335  0.79335  1.0000 0.9528602327
Zn  Zn5       1.0  0.61995  0.79335  0.79335  1.0000 0.9528602327
Zn  Zn6       1.0  0.79335  0.61995  0.79335  1.0000 0.9528602327
Zn  Zn7       1.0  0.79335  0.79335  0.61995  1.0000 0.9528602327
Zn  Zn8       1.0  0.20665  0.20665  0.20665  1.0000 0.9528602327
H   H1        1.0  0.34400  0.04520  0.56560  1.0000 0.1255746857
H   H2        1.0  0.56560  0.34400  0.04520  1.0000 0.1255746857
H   H3        1.0  0.04520  0.56560  0.34400  1.0000 0.1255746857
H   H4        1.0  0.65600  0.95480  0.95480  1.0000 0.124598753
H   H5        1.0  0.43440  0.95480  0.95480  1.0000 0.1255746857
H   H6        1.0  0.95480  0.43440  0.65600  1.0000 0.1255746857
H   H7        1.0  0.43440  0.65600  0.95480  1.0000 0.124598753
H   H8        1.0  0.95480  0.95480  0.43440  1.0000 0.1255746857
H   H9        1.0  0.95480  0.95480  0.65600  1.0000 0.1255746857
H   H10       1.0  0.95480  0.43440  0.95480  1.0000 0.124598753
H   H11       1.0  0.65600  0.95480  0.43440  1.0000 0.124598753
H   H12       1.0  0.95480  0.65600  0.95480  1.0000 0.1255746857
H   H13       1.0  0.04520  0.34400  0.04520  1.0000 0.1255746857
H   H14       1.0  0.56560  0.04520  0.34400  1.0000 0.1255746857
H   H15       1.0  0.04520  0.56560  0.04520  1.0000 0.1255746857
H   H16       1.0  0.04520  0.04520  0.34400  1.0000 0.1255746857
H   H17       1.0  0.34400  0.56560  0.04520  1.0000 0.1255746857
H   H18       1.0  0.04520  0.04520  0.56560  1.0000 0.1255746857
H   H19       1.0  0.34400  0.04520  0.04520  1.0000 0.1255746857
H   H20       1.0  0.04520  0.34400  0.56560  1.0000 0.1255746857
H   H21       1.0  0.56560  0.04520  0.04520  1.0000 0.1255746857
H   H22       1.0  0.95480  0.65600  0.43440  1.0000 0.1255746857
H   H23       1.0  0.65600  0.43440  0.95480  1.0000 0.124598753
H   H24       1.0  0.43440  0.95480  0.65600  1.0000 0.1255746857
C   C1        1.0  0.38856  0.11144  0.38856  1.0000 0.5986762111
C   C2        1.0  0.38856  0.38856  0.11144  1.0000 0.5986762111
C   C3        1.0  0.11144  0.38856  0.38856  1.0000 0.5986762111
C   C4        1.0  0.61144  0.88856  0.88856  1.0000 0.5986762111
C   C5        1.0  0.88856  0.61144  0.61144  1.0000 0.5986762111
C   C6        1.0  0.61144  0.61144  0.88856  1.0000 0.5986762111
C   C7        1.0  0.88856  0.88856  0.61144  1.0000 0.5986762111
C   C8        1.0  0.88856  0.61144  0.88856  1.0000 0.5986762111
C   C9        1.0  0.61144  0.88856  0.61144  1.0000 0.5986762111
C   C10       1.0  0.11144  0.38856  0.11144  1.0000 0.5986762111
C   C11       1.0  0.11144  0.11144  0.38856  1.0000 0.5986762111
C   C12       1.0  0.38856  0.11144  0.11144  1.0000 0.5986762111
C   C13       1.0  0.44619  0.05381  0.44619  1.0000 -0.037618222
C   C14       1.0  0.44619  0.44619  0.05381  1.0000 -0.037618222
C   C15       1.0  0.05381  0.44619  0.44619  1.0000 -0.037618222
C   C16       1.0  0.55381  0.94619  0.94619  1.0000 -0.037618222
C   C17       1.0  0.94619  0.55381  0.55381  1.0000 -0.037618222
C   C18       1.0  0.55381  0.55381  0.94619  1.0000 -0.037618222
C   C19       1.0  0.94619  0.94619  0.55381  1.0000 -0.037618222
C   C20       1.0  0.94619  0.55381  0.94619  1.0000 -0.037618222
C   C21       1.0  0.55381  0.94619  0.55381  1.0000 -0.037618222
C   C22       1.0  0.05381  0.44619  0.05381  1.0000 -0.037618222
C   C23       1.0  0.05381  0.05381  0.44619  1.0000 -0.037618222
C   C24       1.0  0.44619  0.05381  0.05381  1.0000 -0.037618222
C   C25       1.0  0.40729  0.02683  0.53905  1.0000 -0.0938694293
C   C26       1.0  0.53905  0.40729  0.02683  1.0000 -0.0956214552
C   C27       1.0  0.02683  0.53905  0.40729  1.0000 -0.0956214552
C   C28       1.0  0.59271  0.97317  0.97317  1.0000 -0.0938694293
C   C29       1.0  0.46095  0.97317  0.97317  1.0000 -0.0938694293
C   C30       1.0  0.97317  0.46095  0.59271  1.0000 -0.0938694293
C   C31       1.0  0.46095  0.59271  0.97317  1.0000 -0.0938694293
C   C32       1.0  0.97317  0.97317  0.46095  1.0000 -0.0956214552
C   C33       1.0  0.97317  0.97317  0.59271  1.0000 -0.0938694293
C   C34       1.0  0.97317  0.46095  0.97317  1.0000 -0.0938694293
C   C35       1.0  0.59271  0.97317  0.46095  1.0000 -0.0956214552
C   C36       1.0  0.97317  0.59271  0.97317  1.0000 -0.0938694293
C   C37       1.0  0.02683  0.40729  0.02683  1.0000 -0.0956214552
C   C38       1.0  0.53905  0.02683  0.40729  1.0000 -0.0956214552
C   C39       1.0  0.02683  0.53905  0.02683  1.0000 -0.0956214552
C   C40       1.0  0.02683  0.02683  0.40729  1.0000 -0.0956214552
C   C41       1.0  0.40729  0.53905  0.02683  1.0000 -0.0956214552
C   C42       1.0  0.02683  0.02683  0.53905  1.0000 -0.0938694293
C   C43       1.0  0.40729  0.02683  0.02683  1.0000 -0.0938694293
C   C44       1.0  0.02683  0.40729  0.53905  1.0000 -0.0956214552
C   C45       1.0  0.53905  0.02683  0.02683  1.0000 -0.0938694293
C   C46       1.0  0.97317  0.59271  0.46095  1.0000 -0.0938694293
C   C47       1.0  0.59271  0.46095  0.97317  1.0000 -0.0938694293
C   C48       1.0  0.46095  0.97317  0.59271  1.0000 -0.0938694293
O   O1        1.0  0.25000  0.25000  0.25000  1.0000 -1.0397245918
O   O2        1.0  0.75000  0.75000  0.75000  1.0000 -1.0397245918
O   O3        1.0  0.30496  0.13368  0.42768  1.0000 -0.5424228891
O   O4        1.0  0.42768  0.30496  0.13368  1.0000 -0.5424228891
O   O5        1.0  0.13368  0.42768  0.30496  1.0000 -0.5424228891
O   O6        1.0  0.69504  0.86632  0.86632  1.0000 -0.5424228891
O   O7        1.0  0.57232  0.86632  0.86632  1.0000 -0.5424228891
O   O8        1.0  0.86632  0.57232  0.69504  1.0000 -0.5424228891
O   O9        1.0  0.57232  0.69504  0.86632  1.0000 -0.5424228891
O   O10       1.0  0.86632  0.86632  0.57232  1.0000 -0.5424228891
O   O11       1.0  0.86632  0.86632  0.69504  1.0000 -0.5424228891
O   O12       1.0  0.86632  0.57232  0.86632  1.0000 -0.5424228891
O   O13       1.0  0.69504  0.86632  0.57232  1.0000 -0.5424228891
O   O14       1.0  0.86632  0.69504  0.86632  1.0000 -0.5424228891
O   O15       1.0  0.13368  0.30496  0.13368  1.0000 -0.5424228891
O   O16       1.0  0.42768  0.13368  0.30496  1.0000 -0.5424228891
O   O17       1.0  0.13368  0.42768  0.13368  1.0000 -0.5424228891
O   O18       1.0  0.13368  0.13368  0.30496  1.0000 -0.5424228891
O   O19       1.0  0.30496  0.42768  0.13368  1.0000 -0.5424228891
O   O20       1.0  0.13368  0.13368  0.42768  1.0000 -0.5424228891
O   O21       1.0  0.30496  0.13368  0.13368  1.0000 -0.5424228891
O   O22       1.0  0.13368  0.30496  0.42768  1.0000 -0.5424228891
O   O23       1.0  0.42768  0.13368  0.13368  1.0000 -0.5424228891
O   O24       1.0  0.86632  0.69504  0.57232  1.0000 -0.5424228891
O   O25       1.0  0.69504  0.57232  0.86632  1.0000 -0.5424228891
O   O26       1.0  0.57232  0.86632  0.69504  1.0000 -0.5424228891
