# DDEC6 charges by PACMAN v1.1 (https://github.com/mtap-research/PACMAN-charge/)
data_2005[Zn][pcu]3[FSR]6
_chemical_formula_sum              "Zn8 H24 C48 O26"
_cell_length_a       18.283
_cell_length_b       18.283
_cell_length_c       18.283
_cell_angle_alpha    60
_cell_angle_beta     60
_cell_angle_gamma    60

_symmetry_space_group_name_H-M    "P 1"
_symmetry_Int_Tables_number       1

loop_
  _symmetry_equiv_pos_as_xyz
  'x, y, z'

loop_
  _atom_site_type_symbol
  _atom_site_label
  _atom_site_symmetry_multiplicity
  _atom_site_fract_x
  _atom_site_fract_y
  _atom_site_fract_z
  _atom_site_occupancy
  _atom_site_charge
Zn  Zn1       1.0  0.20656  0.20656  0.38032  1.0000 0.952367113
Zn  Zn2       1.0  0.38032  0.20656  0.20656  1.0000 0.952367113
Zn  Zn3       1.0  0.20656  0.38032  0.20656  1.0000 0.952367113
Zn  Zn4       1.0  0.79344  0.79344  0.79344  1.0000 0.952367113
Zn  Zn5       1.0  0.61968  0.79344  0.79344  1.0000 0.952367113
Zn  Zn6       1.0  0.79344  0.61968  0.79344  1.0000 0.952367113
Zn  Zn7       1.0  0.79344  0.79344  0.61968  1.0000 0.952367113
Zn  Zn8       1.0  0.20656  0.20656  0.20656  1.0000 0.952367113
H   H1        1.0  0.34460  0.04500  0.56540  1.0000 0.1232096562
H   H2        1.0  0.56540  0.34460  0.04500  1.0000 0.1232096562
H   H3        1.0  0.04500  0.56540  0.34460  1.0000 0.1232096562
H   H4        1.0  0.65540  0.95500  0.95500  1.0000 0.1232096562
H   H5        1.0  0.43460  0.95500  0.95500  1.0000 0.1232096562
H   H6        1.0  0.95500  0.43460  0.65540  1.0000 0.1232096562
H   H7        1.0  0.43460  0.65540  0.95500  1.0000 0.1232096562
H   H8        1.0  0.95500  0.95500  0.43460  1.0000 0.1232096562
H   H9        1.0  0.95500  0.95500  0.65540  1.0000 0.1232096562
H   H10       1.0  0.95500  0.43460  0.95500  1.0000 0.1232096562
H   H11       1.0  0.65540  0.95500  0.43460  1.0000 0.1232096562
H   H12       1.0  0.95500  0.65540  0.95500  1.0000 0.1232096562
H   H13       1.0  0.04500  0.34460  0.04500  1.0000 0.1232096562
H   H14       1.0  0.56540  0.04500  0.34460  1.0000 0.1232096562
H   H15       1.0  0.04500  0.56540  0.04500  1.0000 0.1232096562
H   H16       1.0  0.04500  0.04500  0.34460  1.0000 0.1232096562
H   H17       1.0  0.34460  0.56540  0.04500  1.0000 0.1232096562
H   H18       1.0  0.04500  0.04500  0.56540  1.0000 0.1232096562
H   H19       1.0  0.34460  0.04500  0.04500  1.0000 0.1232096562
H   H20       1.0  0.04500  0.34460  0.56540  1.0000 0.1232096562
H   H21       1.0  0.56540  0.04500  0.04500  1.0000 0.1232096562
H   H22       1.0  0.95500  0.65540  0.43460  1.0000 0.1232096562
H   H23       1.0  0.65540  0.43460  0.95500  1.0000 0.1232096562
H   H24       1.0  0.43460  0.95500  0.65540  1.0000 0.1232096562
C   C1        1.0  0.38852  0.11148  0.38852  1.0000 0.596105641
C   C2        1.0  0.38852  0.38852  0.11148  1.0000 0.596105641
C   C3        1.0  0.11148  0.38852  0.38852  1.0000 0.596105641
C   C4        1.0  0.61148  0.88852  0.88852  1.0000 0.596105641
C   C5        1.0  0.88852  0.61148  0.61148  1.0000 0.596105641
C   C6        1.0  0.61148  0.61148  0.88852  1.0000 0.596105641
C   C7        1.0  0.88852  0.88852  0.61148  1.0000 0.596105641
C   C8        1.0  0.88852  0.61148  0.88852  1.0000 0.596105641
C   C9        1.0  0.61148  0.88852  0.61148  1.0000 0.596105641
C   C10       1.0  0.11148  0.38852  0.11148  1.0000 0.596105641
C   C11       1.0  0.11148  0.11148  0.38852  1.0000 0.596105641
C   C12       1.0  0.38852  0.11148  0.11148  1.0000 0.596105641
C   C13       1.0  0.44628  0.05372  0.44628  1.0000 -0.0346431537
C   C14       1.0  0.44628  0.44628  0.05372  1.0000 -0.0346431537
C   C15       1.0  0.05372  0.44628  0.44628  1.0000 -0.0346431537
C   C16       1.0  0.55372  0.94628  0.94628  1.0000 -0.0346431537
C   C17       1.0  0.94628  0.55372  0.55372  1.0000 -0.0353699504
C   C18       1.0  0.55372  0.55372  0.94628  1.0000 -0.0346431537
C   C19       1.0  0.94628  0.94628  0.55372  1.0000 -0.0346431537
C   C20       1.0  0.94628  0.55372  0.94628  1.0000 -0.0346431537
C   C21       1.0  0.55372  0.94628  0.55372  1.0000 -0.0346431537
C   C22       1.0  0.05372  0.44628  0.05372  1.0000 -0.0346431537
C   C23       1.0  0.05372  0.05372  0.44628  1.0000 -0.0346431537
C   C24       1.0  0.44628  0.05372  0.05372  1.0000 -0.0346431537
C   C25       1.0  0.40796  0.02670  0.53864  1.0000 -0.0914919324
C   C26       1.0  0.53864  0.40796  0.02670  1.0000 -0.0914919324
C   C27       1.0  0.02670  0.53864  0.40796  1.0000 -0.0914919324
C   C28       1.0  0.59204  0.97330  0.97330  1.0000 -0.0914919324
C   C29       1.0  0.46136  0.97330  0.97330  1.0000 -0.0914919324
C   C30       1.0  0.97330  0.46136  0.59204  1.0000 -0.0914919324
C   C31       1.0  0.46136  0.59204  0.97330  1.0000 -0.0914919324
C   C32       1.0  0.97330  0.97330  0.46136  1.0000 -0.0914919324
C   C33       1.0  0.97330  0.97330  0.59204  1.0000 -0.0914919324
C   C34       1.0  0.97330  0.46136  0.97330  1.0000 -0.0914919324
C   C35       1.0  0.59204  0.97330  0.46136  1.0000 -0.0914919324
C   C36       1.0  0.97330  0.59204  0.97330  1.0000 -0.0914919324
C   C37       1.0  0.02670  0.40796  0.02670  1.0000 -0.0914919324
C   C38       1.0  0.53864  0.02670  0.40796  1.0000 -0.0914919324
C   C39       1.0  0.02670  0.53864  0.02670  1.0000 -0.0914919324
C   C40       1.0  0.02670  0.02670  0.40796  1.0000 -0.0914919324
C   C41       1.0  0.40796  0.53864  0.02670  1.0000 -0.0914919324
C   C42       1.0  0.02670  0.02670  0.53864  1.0000 -0.0914919324
C   C43       1.0  0.40796  0.02670  0.02670  1.0000 -0.0914919324
C   C44       1.0  0.02670  0.40796  0.53864  1.0000 -0.0914919324
C   C45       1.0  0.53864  0.02670  0.02670  1.0000 -0.0914919324
C   C46       1.0  0.97330  0.59204  0.46136  1.0000 -0.0914919324
C   C47       1.0  0.59204  0.46136  0.97330  1.0000 -0.0914919324
C   C48       1.0  0.46136  0.97330  0.59204  1.0000 -0.0914919324
O   O1        1.0  0.25000  0.25000  0.25000  1.0000 -1.0425800821
O   O2        1.0  0.75000  0.75000  0.75000  1.0000 -1.0425800821
O   O3        1.0  0.30503  0.13373  0.42751  1.0000 -0.5429927151
O   O4        1.0  0.42751  0.30503  0.13373  1.0000 -0.5429927151
O   O5        1.0  0.13373  0.42751  0.30503  1.0000 -0.5429927151
O   O6        1.0  0.69497  0.86627  0.86627  1.0000 -0.5429927151
O   O7        1.0  0.57249  0.86627  0.86627  1.0000 -0.5429927151
O   O8        1.0  0.86627  0.57249  0.69497  1.0000 -0.5429927151
O   O9        1.0  0.57249  0.69497  0.86627  1.0000 -0.5429927151
O   O10       1.0  0.86627  0.86627  0.57249  1.0000 -0.5429927151
O   O11       1.0  0.86627  0.86627  0.69497  1.0000 -0.5429927151
O   O12       1.0  0.86627  0.57249  0.86627  1.0000 -0.5429927151
O   O13       1.0  0.69497  0.86627  0.57249  1.0000 -0.5429927151
O   O14       1.0  0.86627  0.69497  0.86627  1.0000 -0.5429927151
O   O15       1.0  0.13373  0.30503  0.13373  1.0000 -0.5429927151
O   O16       1.0  0.42751  0.13373  0.30503  1.0000 -0.5429927151
O   O17       1.0  0.13373  0.42751  0.13373  1.0000 -0.5429927151
O   O18       1.0  0.13373  0.13373  0.30503  1.0000 -0.5429927151
O   O19       1.0  0.30503  0.42751  0.13373  1.0000 -0.5429927151
O   O20       1.0  0.13373  0.13373  0.42751  1.0000 -0.5429927151
O   O21       1.0  0.30503  0.13373  0.13373  1.0000 -0.5429927151
O   O22       1.0  0.13373  0.30503  0.42751  1.0000 -0.5429927151
O   O23       1.0  0.42751  0.13373  0.13373  1.0000 -0.5429927151
O   O24       1.0  0.86627  0.69497  0.57249  1.0000 -0.5429927151
O   O25       1.0  0.69497  0.57249  0.86627  1.0000 -0.5429927151
O   O26       1.0  0.57249  0.86627  0.69497  1.0000 -0.5429927151
