# DDEC6 charges by PACMAN v1.1 (https://github.com/mtap-research/PACMAN-charge/)
data_2006[Zn][pcu]3[FSR]8
_chemical_formula_sum              "Zn8 H24 C48 O26"
_cell_length_a       18.283
_cell_length_b       18.283
_cell_length_c       18.283
_cell_angle_alpha    60
_cell_angle_beta     60
_cell_angle_gamma    60

_symmetry_space_group_name_H-M    "P 1"
_symmetry_Int_Tables_number       1

loop_
  _symmetry_equiv_pos_as_xyz
  'x, y, z'

loop_
  _atom_site_type_symbol
  _atom_site_label
  _atom_site_symmetry_multiplicity
  _atom_site_fract_x
  _atom_site_fract_y
  _atom_site_fract_z
  _atom_site_occupancy
  _atom_site_charge
Zn  Zn1       1.0  0.20540  0.20540  0.38380  1.0000 0.9737680962
Zn  Zn2       1.0  0.38380  0.20540  0.20540  1.0000 0.9737680962
Zn  Zn3       1.0  0.20540  0.38380  0.20540  1.0000 0.9737680962
Zn  Zn4       1.0  0.79460  0.79460  0.79460  1.0000 0.9737680962
Zn  Zn5       1.0  0.61620  0.79460  0.79460  1.0000 0.9737680962
Zn  Zn6       1.0  0.79460  0.61620  0.79460  1.0000 0.9737680962
Zn  Zn7       1.0  0.79460  0.79460  0.61620  1.0000 0.9737680962
Zn  Zn8       1.0  0.20540  0.20540  0.20540  1.0000 0.9737680962
H   H1        1.0  0.33870  0.04750  0.56630  1.0000 0.1237494087
H   H2        1.0  0.56630  0.33870  0.04750  1.0000 0.1237494087
H   H3        1.0  0.04750  0.56630  0.33870  1.0000 0.1237494087
H   H4        1.0  0.66130  0.95250  0.95250  1.0000 0.1237494087
H   H5        1.0  0.43370  0.95250  0.95250  1.0000 0.1237494087
H   H6        1.0  0.95250  0.43370  0.66130  1.0000 0.1237494087
H   H7        1.0  0.43370  0.66130  0.95250  1.0000 0.1237494087
H   H8        1.0  0.95250  0.95250  0.43370  1.0000 0.1237494087
H   H9        1.0  0.95250  0.95250  0.66130  1.0000 0.1237494087
H   H10       1.0  0.95250  0.43370  0.95250  1.0000 0.1237494087
H   H11       1.0  0.66130  0.95250  0.43370  1.0000 0.1237494087
H   H12       1.0  0.95250  0.66130  0.95250  1.0000 0.1237494087
H   H13       1.0  0.04750  0.33870  0.04750  1.0000 0.1237494087
H   H14       1.0  0.56630  0.04750  0.33870  1.0000 0.1237494087
H   H15       1.0  0.04750  0.56630  0.04750  1.0000 0.1237494087
H   H16       1.0  0.04750  0.04750  0.33870  1.0000 0.1237494087
H   H17       1.0  0.33870  0.56630  0.04750  1.0000 0.1237494087
H   H18       1.0  0.04750  0.04750  0.56630  1.0000 0.1237494087
H   H19       1.0  0.33870  0.04750  0.04750  1.0000 0.1237494087
H   H20       1.0  0.04750  0.33870  0.56630  1.0000 0.1237494087
H   H21       1.0  0.56630  0.04750  0.04750  1.0000 0.1237494087
H   H22       1.0  0.95250  0.66130  0.43370  1.0000 0.1237494087
H   H23       1.0  0.66130  0.43370  0.95250  1.0000 0.1237494087
H   H24       1.0  0.43370  0.95250  0.66130  1.0000 0.1237494087
C   C1        1.0  0.38940  0.11060  0.38940  1.0000 0.5923265527
C   C2        1.0  0.38940  0.38940  0.11060  1.0000 0.5923265527
C   C3        1.0  0.11060  0.38940  0.38940  1.0000 0.5923265527
C   C4        1.0  0.61060  0.88940  0.88940  1.0000 0.5923265527
C   C5        1.0  0.88940  0.61060  0.61060  1.0000 0.5923265527
C   C6        1.0  0.61060  0.61060  0.88940  1.0000 0.5923265527
C   C7        1.0  0.88940  0.88940  0.61060  1.0000 0.5923265527
C   C8        1.0  0.88940  0.61060  0.88940  1.0000 0.5923265527
C   C9        1.0  0.61060  0.88940  0.61060  1.0000 0.5923265527
C   C10       1.0  0.11060  0.38940  0.11060  1.0000 0.5923265527
C   C11       1.0  0.11060  0.11060  0.38940  1.0000 0.5923265527
C   C12       1.0  0.38940  0.11060  0.11060  1.0000 0.5923265527
C   C13       1.0  0.44490  0.05510  0.44490  1.0000 -0.0740072581
C   C14       1.0  0.44490  0.44490  0.05510  1.0000 -0.0740072581
C   C15       1.0  0.05510  0.44490  0.44490  1.0000 -0.0740072581
C   C16       1.0  0.55510  0.94490  0.94490  1.0000 -0.0740072581
C   C17       1.0  0.94490  0.55510  0.55510  1.0000 -0.0740072581
C   C18       1.0  0.55510  0.55510  0.94490  1.0000 -0.0740072581
C   C19       1.0  0.94490  0.94490  0.55510  1.0000 -0.0740072581
C   C20       1.0  0.94490  0.55510  0.94490  1.0000 -0.0740072581
C   C21       1.0  0.55510  0.94490  0.55510  1.0000 -0.0740072581
C   C22       1.0  0.05510  0.44490  0.05510  1.0000 -0.0740072581
C   C23       1.0  0.05510  0.05510  0.44490  1.0000 -0.0740072581
C   C24       1.0  0.44490  0.05510  0.05510  1.0000 -0.0740072581
C   C25       1.0  0.40750  0.02670  0.53910  1.0000 -0.0834840333
C   C26       1.0  0.53910  0.40750  0.02670  1.0000 -0.0834840333
C   C27       1.0  0.02670  0.53910  0.40750  1.0000 -0.0834840333
C   C28       1.0  0.59250  0.97330  0.97330  1.0000 -0.0834840333
C   C29       1.0  0.46090  0.97330  0.97330  1.0000 -0.0834840333
C   C30       1.0  0.97330  0.46090  0.59250  1.0000 -0.0834840333
C   C31       1.0  0.46090  0.59250  0.97330  1.0000 -0.0834840333
C   C32       1.0  0.97330  0.97330  0.46090  1.0000 -0.0834840333
C   C33       1.0  0.97330  0.97330  0.59250  1.0000 -0.0834840333
C   C34       1.0  0.97330  0.46090  0.97330  1.0000 -0.0834840333
C   C35       1.0  0.59250  0.97330  0.46090  1.0000 -0.0834840333
C   C36       1.0  0.97330  0.59250  0.97330  1.0000 -0.0834840333
C   C37       1.0  0.02670  0.40750  0.02670  1.0000 -0.0834840333
C   C38       1.0  0.53910  0.02670  0.40750  1.0000 -0.0834840333
C   C39       1.0  0.02670  0.53910  0.02670  1.0000 -0.0834840333
C   C40       1.0  0.02670  0.02670  0.40750  1.0000 -0.0834840333
C   C41       1.0  0.40750  0.53910  0.02670  1.0000 -0.0834840333
C   C42       1.0  0.02670  0.02670  0.53910  1.0000 -0.0834840333
C   C43       1.0  0.40750  0.02670  0.02670  1.0000 -0.0834840333
C   C44       1.0  0.02670  0.40750  0.53910  1.0000 -0.0834840333
C   C45       1.0  0.53910  0.02670  0.02670  1.0000 -0.0834840333
C   C46       1.0  0.97330  0.59250  0.46090  1.0000 -0.0834840333
C   C47       1.0  0.59250  0.46090  0.97330  1.0000 -0.0834840333
C   C48       1.0  0.46090  0.97330  0.59250  1.0000 -0.0834840333
O   O1        1.0  0.25000  0.25000  0.25000  1.0000 -1.0246166179
O   O2        1.0  0.75000  0.75000  0.75000  1.0000 -1.0246166179
O   O3        1.0  0.30490  0.13390  0.42730  1.0000 -0.5386296699
O   O4        1.0  0.42730  0.30490  0.13390  1.0000 -0.5386296699
O   O5        1.0  0.13390  0.42730  0.30490  1.0000 -0.5386296699
O   O6        1.0  0.69510  0.86610  0.86610  1.0000 -0.5386296699
O   O7        1.0  0.57270  0.86610  0.86610  1.0000 -0.5386296699
O   O8        1.0  0.86610  0.57270  0.69510  1.0000 -0.5386296699
O   O9        1.0  0.57270  0.69510  0.86610  1.0000 -0.5386296699
O   O10       1.0  0.86610  0.86610  0.57270  1.0000 -0.5386296699
O   O11       1.0  0.86610  0.86610  0.69510  1.0000 -0.5386296699
O   O12       1.0  0.86610  0.57270  0.86610  1.0000 -0.5386296699
O   O13       1.0  0.69510  0.86610  0.57270  1.0000 -0.5386296699
O   O14       1.0  0.86610  0.69510  0.86610  1.0000 -0.5386296699
O   O15       1.0  0.13390  0.30490  0.13390  1.0000 -0.5386296699
O   O16       1.0  0.42730  0.13390  0.30490  1.0000 -0.5386296699
O   O17       1.0  0.13390  0.42730  0.13390  1.0000 -0.5386296699
O   O18       1.0  0.13390  0.13390  0.30490  1.0000 -0.5386296699
O   O19       1.0  0.30490  0.42730  0.13390  1.0000 -0.5386296699
O   O20       1.0  0.13390  0.13390  0.42730  1.0000 -0.5386296699
O   O21       1.0  0.30490  0.13390  0.13390  1.0000 -0.5386296699
O   O22       1.0  0.13390  0.30490  0.42730  1.0000 -0.5386296699
O   O23       1.0  0.42730  0.13390  0.13390  1.0000 -0.5386296699
O   O24       1.0  0.86610  0.69510  0.57270  1.0000 -0.5386296699
O   O25       1.0  0.69510  0.57270  0.86610  1.0000 -0.5386296699
O   O26       1.0  0.57270  0.86610  0.69510  1.0000 -0.5386296699
