# DDEC6 charges by PACMAN v1.1 (https://github.com/mtap-research/PACMAN-charge/)
data_2006[ZnSi][cds]3[FSR]1
_chemical_formula_sum              "Zn2 Si2 H32 C40 S8 N8 F12"
_cell_length_a       10.6241
_cell_length_b       10.6241
_cell_length_c       15.436
_cell_angle_alpha    83.4357
_cell_angle_beta     96.5643
_cell_angle_gamma    68.2755

_symmetry_space_group_name_H-M    "P 1"
_symmetry_Int_Tables_number       1

loop_
  _symmetry_equiv_pos_as_xyz
  'x, y, z'

loop_
  _atom_site_type_symbol
  _atom_site_label
  _atom_site_symmetry_multiplicity
  _atom_site_fract_x
  _atom_site_fract_y
  _atom_site_fract_z
  _atom_site_occupancy
  _atom_site_charge
Zn  Zn1       1.0  0.50000  0.50000  0.00000  1.0000 0.7606232925
Zn  Zn2       1.0  0.50000  0.50000  0.50000  1.0000 0.7606232925
Si  Si1       1.0  0.49646  0.49646  0.75000  1.0000 1.7112880214
Si  Si2       1.0  0.50354  0.50354  0.25000  1.0000 1.7112880214
H   H1        1.0  0.31960  0.72360  0.85200  1.0000 0.1313620886
H   H2        1.0  0.72360  0.31960  0.64800  1.0000 0.1313620886
H   H3        1.0  0.68040  0.27640  0.14800  1.0000 0.1313620886
H   H4        1.0  0.27640  0.68040  0.35200  1.0000 0.1313620886
H   H5        1.0  0.10010  0.88810  0.80400  1.0000 0.1313620886
H   H6        1.0  0.88810  0.10010  0.69600  1.0000 0.1313620886
H   H7        1.0  0.89990  0.11190  0.19600  1.0000 0.1313620886
H   H8        1.0  0.11190  0.89990  0.30400  1.0000 0.1313620886
H   H9        1.0  0.01120  0.77720  0.03800  1.0000 0.1313620886
H   H10       1.0  0.77720  0.01120  0.46200  1.0000 0.1313620886
H   H11       1.0  0.98880  0.22280  0.96200  1.0000 0.1313620886
H   H12       1.0  0.22280  0.98880  0.53800  1.0000 0.1313620886
H   H13       1.0  0.23530  0.63130  0.08000  1.0000 0.1313620886
H   H14       1.0  0.63130  0.23530  0.42000  1.0000 0.1313620886
H   H15       1.0  0.76470  0.36870  0.92000  1.0000 0.1313620886
H   H16       1.0  0.36870  0.76470  0.58000  1.0000 0.1313620886
H   H17       1.0  0.53900  0.71900  0.09500  1.0000 0.1383353695
H   H18       1.0  0.71900  0.53900  0.40500  1.0000 0.1383353695
H   H19       1.0  0.46100  0.28100  0.90500  1.0000 0.1383353695
H   H20       1.0  0.28100  0.46100  0.59500  1.0000 0.1383353695
H   H21       1.0  0.61710  0.88510  0.09100  1.0000 0.1453400567
H   H22       1.0  0.88510  0.61710  0.40900  1.0000 0.1453400567
H   H23       1.0  0.38290  0.11490  0.90900  1.0000 0.1453400567
H   H24       1.0  0.11490  0.38290  0.59100  1.0000 0.1453400567
H   H25       1.0  0.74600  0.78400  0.86800  1.0000 0.1383353695
H   H26       1.0  0.78400  0.74600  0.63200  1.0000 0.1383353695
H   H27       1.0  0.25400  0.21600  0.13200  1.0000 0.1383353695
H   H28       1.0  0.21600  0.25400  0.36800  1.0000 0.1383353695
H   H29       1.0  0.64680  0.62880  0.88000  1.0000 0.1383353695
H   H30       1.0  0.62880  0.64680  0.62000  1.0000 0.1383353695
H   H31       1.0  0.35320  0.37120  0.12000  1.0000 0.1313620886
H   H32       1.0  0.37120  0.35320  0.38000  1.0000 0.1313620886
C   C1        1.0  0.25461  0.73741  0.88815  1.0000 0.1004024349
C   C2        1.0  0.73741  0.25461  0.61185  1.0000 0.1004024349
C   C3        1.0  0.74539  0.26259  0.11185  1.0000 0.1004024349
C   C4        1.0  0.26259  0.74539  0.38815  1.0000 0.1004024349
C   C5        1.0  0.12443  0.83523  0.86050  1.0000 -0.2107832567
C   C6        1.0  0.83523  0.12443  0.63950  1.0000 -0.2107832567
C   C7        1.0  0.87557  0.16477  0.13950  1.0000 -0.2107832567
C   C8        1.0  0.16477  0.87557  0.36050  1.0000 -0.2107832567
C   C9        1.0  0.02840  0.85320  0.91722  1.0000 0.0922753807
C   C10       1.0  0.85320  0.02840  0.58278  1.0000 0.0922753807
C   C11       1.0  0.97160  0.14680  0.08278  1.0000 0.0922753807
C   C12       1.0  0.14680  0.97160  0.41722  1.0000 0.0922753807
C   C13       1.0  0.07147  0.77347  0.00070  1.0000 -0.2107832567
C   C14       1.0  0.77347  0.07147  0.49930  1.0000 -0.2107832567
C   C15       1.0  0.92853  0.22653  0.99930  1.0000 -0.215343906
C   C16       1.0  0.22653  0.92853  0.50070  1.0000 -0.215343906
C   C17       1.0  0.20476  0.67916  0.02337  1.0000 0.0922753807
C   C18       1.0  0.67916  0.20476  0.47663  1.0000 0.0922753807
C   C19       1.0  0.79524  0.32084  0.97663  1.0000 0.0922753807
C   C20       1.0  0.32084  0.79524  0.52337  1.0000 0.0922753807
C   C21       1.0  0.57928  0.73528  0.05078  1.0000 0.1004024349
C   C22       1.0  0.73528  0.57928  0.44922  1.0000 0.1004024349
C   C23       1.0  0.42072  0.26472  0.94922  1.0000 0.1004024349
C   C24       1.0  0.26472  0.42072  0.55078  1.0000 0.1004024349
C   C25       1.0  0.63201  0.83561  0.04810  1.0000 -0.2007519439
C   C26       1.0  0.83561  0.63201  0.45190  1.0000 -0.2007519439
C   C27       1.0  0.36799  0.16439  0.95190  1.0000 -0.2007519439
C   C28       1.0  0.16439  0.36799  0.54810  1.0000 -0.2007519439
C   C29       1.0  0.69365  0.85905  0.97761  1.0000 0.0922753807
C   C30       1.0  0.85905  0.69365  0.52239  1.0000 0.0922753807
C   C31       1.0  0.30635  0.14095  0.02239  1.0000 0.0922753807
C   C32       1.0  0.14095  0.30635  0.47761  1.0000 0.0922753807
C   C33       1.0  0.70013  0.77953  0.91280  1.0000 -0.2007519439
C   C34       1.0  0.77953  0.70013  0.58720  1.0000 -0.2007519439
C   C35       1.0  0.29987  0.22047  0.08720  1.0000 -0.2007519439
C   C36       1.0  0.22047  0.29987  0.41280  1.0000 -0.2007519439
C   C37       1.0  0.64437  0.68137  0.92010  1.0000 0.1004024349
C   C38       1.0  0.68137  0.64437  0.57990  1.0000 0.1004024349
C   C39       1.0  0.35563  0.31863  0.07990  1.0000 0.1004024349
C   C40       1.0  0.31863  0.35563  0.42010  1.0000 0.1004024349
S   S1        1.0  0.86104  0.97956  0.87493  1.0000 0.0299975657
S   S2        1.0  0.97956  0.86104  0.62507  1.0000 0.0299975657
S   S3        1.0  0.13896  0.02044  0.12507  1.0000 0.024501137
S   S4        1.0  0.02044  0.13896  0.37493  1.0000 0.024501137
S   S5        1.0  0.75848  0.99168  0.97833  1.0000 0.0299975657
S   S6        1.0  0.99168  0.75848  0.52167  1.0000 0.0299975657
S   S7        1.0  0.24152  0.00832  0.02167  1.0000 0.0299975657
S   S8        1.0  0.00832  0.24152  0.47833  1.0000 0.0299975657
N   N1        1.0  0.29681  0.65761  0.96811  1.0000 -0.2466291883
N   N2        1.0  0.65761  0.29681  0.53189  1.0000 -0.2466291883
N   N3        1.0  0.70319  0.34239  0.03189  1.0000 -0.2466291883
N   N4        1.0  0.34239  0.70319  0.46811  1.0000 -0.2466291883
N   N5        1.0  0.58386  0.65776  0.98819  1.0000 -0.2375006214
N   N6        1.0  0.65776  0.58386  0.51181  1.0000 -0.2375006214
N   N7        1.0  0.41614  0.34224  0.01181  1.0000 -0.2375006214
N   N8        1.0  0.34224  0.41614  0.48819  1.0000 -0.2375006214
F   F1        1.0  0.50332  0.49032  0.86283  1.0000 -0.5264607207
F   F2        1.0  0.49032  0.50332  0.63717  1.0000 -0.5264607207
F   F3        1.0  0.49668  0.50968  0.13717  1.0000 -0.5264607207
F   F4        1.0  0.50968  0.49668  0.36283  1.0000 -0.5264607207
F   F5        1.0  0.66470  0.46322  0.76307  1.0000 -0.5588013218
F   F6        1.0  0.46322  0.66470  0.73693  1.0000 -0.5588013218
F   F7        1.0  0.33530  0.53678  0.23693  1.0000 -0.5588013218
F   F8        1.0  0.53678  0.33530  0.26307  1.0000 -0.5588013218
F   F9        1.0  0.52997  0.32867  0.76233  1.0000 -0.5588013218
F   F10       1.0  0.32867  0.52997  0.73767  1.0000 -0.5588013218
F   F11       1.0  0.47003  0.67133  0.23767  1.0000 -0.5588013218
F   F12       1.0  0.67133  0.47003  0.26233  1.0000 -0.5588013218
