# DDEC6 charges by PACMAN v1.1 (https://github.com/mtap-research/PACMAN-charge/)
data_2007[Zn][srs]3[FSR]3
_chemical_formula_sum              "Zn24 H192 C288 I48 N96"
_cell_length_a       13.692
_cell_length_b       27.122
_cell_length_c       45.963
_cell_angle_alpha    90
_cell_angle_beta     90
_cell_angle_gamma    90

_symmetry_space_group_name_H-M    "P 1"
_symmetry_Int_Tables_number       1

loop_
  _symmetry_equiv_pos_as_xyz
  'x, y, z'

loop_
  _atom_site_type_symbol
  _atom_site_label
  _atom_site_symmetry_multiplicity
  _atom_site_fract_x
  _atom_site_fract_y
  _atom_site_fract_z
  _atom_site_occupancy
  _atom_site_charge
Zn  Zn1       1.0  0.36111  0.45069  0.93142  1.0000 0.4526471973
Zn  Zn2       1.0  0.63889  0.04931  0.43142  1.0000 0.4554961701
Zn  Zn3       1.0  0.86111  0.54931  0.56858  1.0000 0.4554961701
Zn  Zn4       1.0  0.13889  0.95069  0.06858  1.0000 0.4526471973
Zn  Zn5       1.0  0.35077  0.25254  0.19015  1.0000 0.468302392
Zn  Zn6       1.0  0.64923  0.24746  0.69015  1.0000 0.468302392
Zn  Zn7       1.0  0.85077  0.74746  0.30985  1.0000 0.468302392
Zn  Zn8       1.0  0.14923  0.75254  0.80985  1.0000 0.468302392
Zn  Zn9       1.0  0.15011  0.46719  0.09271  1.0000 0.4526471973
Zn  Zn10      1.0  0.84989  0.03281  0.59271  1.0000 0.4526471973
Zn  Zn11      1.0  0.65011  0.53281  0.40729  1.0000 0.4526471973
Zn  Zn12      1.0  0.34989  0.96719  0.90729  1.0000 0.4526471973
Zn  Zn13      1.0  0.63889  0.54931  0.06858  1.0000 0.4554961701
Zn  Zn14      1.0  0.36111  0.95069  0.56858  1.0000 0.4526471973
Zn  Zn15      1.0  0.13889  0.45069  0.43142  1.0000 0.4526471973
Zn  Zn16      1.0  0.86111  0.04931  0.93142  1.0000 0.4554961701
Zn  Zn17      1.0  0.64923  0.74746  0.80985  1.0000 0.468302392
Zn  Zn18      1.0  0.35077  0.75254  0.30985  1.0000 0.468302392
Zn  Zn19      1.0  0.14923  0.25254  0.69015  1.0000 0.468302392
Zn  Zn20      1.0  0.85077  0.24746  0.19015  1.0000 0.468302392
Zn  Zn21      1.0  0.84989  0.53281  0.90729  1.0000 0.4526471973
Zn  Zn22      1.0  0.15011  0.96719  0.40729  1.0000 0.4526471973
Zn  Zn23      1.0  0.34989  0.46719  0.59271  1.0000 0.4526471973
Zn  Zn24      1.0  0.65011  0.03281  0.09271  1.0000 0.4526471973
H   H1        1.0  0.31350  0.30800  0.13570  1.0000 0.1099892122
H   H2        1.0  0.68650  0.19200  0.63570  1.0000 0.1099892122
H   H3        1.0  0.81350  0.69200  0.36430  1.0000 0.1099892122
H   H4        1.0  0.18650  0.80800  0.86430  1.0000 0.1099892122
H   H5        1.0  0.39730  0.34230  0.09720  1.0000 0.1326983645
H   H6        1.0  0.60270  0.15770  0.59720  1.0000 0.1326983645
H   H7        1.0  0.89730  0.65770  0.40280  1.0000 0.1326983645
H   H8        1.0  0.10270  0.84230  0.90280  1.0000 0.1326983645
H   H9        1.0  0.55920  0.27310  0.17420  1.0000 0.1099892122
H   H10       1.0  0.44080  0.22690  0.67420  1.0000 0.1099892122
H   H11       1.0  0.05920  0.72690  0.32580  1.0000 0.1099892122
H   H12       1.0  0.94080  0.77310  0.82580  1.0000 0.1099892122
H   H13       1.0  0.64970  0.30740  0.13710  1.0000 0.1367540827
H   H14       1.0  0.35030  0.19260  0.63710  1.0000 0.1367540827
H   H15       1.0  0.14970  0.69260  0.36290  1.0000 0.1367540827
H   H16       1.0  0.85030  0.80740  0.86290  1.0000 0.1367540827
H   H17       1.0  0.97650  0.43570  0.12610  1.0000 0.1099892122
H   H18       1.0  0.02350  0.06430  0.62610  1.0000 0.1099892122
H   H19       1.0  0.47650  0.56430  0.37390  1.0000 0.1099892122
H   H20       1.0  0.52350  0.93570  0.87390  1.0000 0.1099892122
H   H21       1.0  0.82090  0.40510  0.12000  1.0000 0.1367540827
H   H22       1.0  0.17910  0.09490  0.62000  1.0000 0.1367540827
H   H23       1.0  0.32090  0.59490  0.38000  1.0000 0.1367540827
H   H24       1.0  0.67910  0.90510  0.88000  1.0000 0.1367540827
H   H25       1.0  0.02550  0.43120  0.04260  1.0000 0.1099892122
H   H26       1.0  0.97450  0.06880  0.54260  1.0000 0.1099892122
H   H27       1.0  0.52550  0.56880  0.45740  1.0000 0.1099892122
H   H28       1.0  0.47450  0.93120  0.95740  1.0000 0.1099892122
H   H29       1.0  0.86990  0.40340  0.03370  1.0000 0.1326983645
H   H30       1.0  0.13010  0.09660  0.53370  1.0000 0.1326983645
H   H31       1.0  0.36990  0.59660  0.46630  1.0000 0.1326983645
H   H32       1.0  0.63010  0.90340  0.96630  1.0000 0.1326983645
H   H33       1.0  0.55620  0.46710  0.96020  1.0000 0.1099892122
H   H34       1.0  0.44380  0.03290  0.46020  1.0000 0.1099892122
H   H35       1.0  0.05620  0.53290  0.53980  1.0000 0.1099892122
H   H36       1.0  0.94380  0.96710  0.03980  1.0000 0.1099892122
H   H37       1.0  0.64470  0.44110  0.99960  1.0000 0.1367540827
H   H38       1.0  0.35530  0.05890  0.49960  1.0000 0.1367540827
H   H39       1.0  0.14470  0.55890  0.50040  1.0000 0.1367540827
H   H40       1.0  0.85530  0.94110  0.00040  1.0000 0.1367540827
H   H41       1.0  0.32300  0.39460  0.98650  1.0000 0.0999756485
H   H42       1.0  0.67700  0.10540  0.48650  1.0000 0.0999756485
H   H43       1.0  0.82300  0.60540  0.51350  1.0000 0.0999756485
H   H44       1.0  0.17700  0.89460  0.01350  1.0000 0.0999756485
H   H45       1.0  0.40850  0.36510  0.02680  1.0000 0.1367540827
H   H46       1.0  0.59150  0.13490  0.52680  1.0000 0.1367540827
H   H47       1.0  0.90850  0.63490  0.47320  1.0000 0.1367540827
H   H48       1.0  0.09150  0.86510  0.97320  1.0000 0.1367540827
H   H49       1.0  0.35480  0.34040  0.93880  1.0000 0.0999756485
H   H50       1.0  0.64520  0.15960  0.43880  1.0000 0.0999756485
H   H51       1.0  0.85480  0.65960  0.56120  1.0000 0.0999756485
H   H52       1.0  0.14520  0.84040  0.06120  1.0000 0.0999756485
H   H53       1.0  0.38070  0.26890  0.91270  1.0000 0.1367540827
H   H54       1.0  0.61930  0.23110  0.41270  1.0000 0.1367540827
H   H55       1.0  0.88070  0.73110  0.58730  1.0000 0.1367540827
H   H56       1.0  0.11930  0.76890  0.08730  1.0000 0.1367540827
H   H57       1.0  0.42040  0.42220  0.87100  1.0000 0.0999756485
H   H58       1.0  0.57960  0.07780  0.37100  1.0000 0.0999756485
H   H59       1.0  0.92040  0.57780  0.62900  1.0000 0.0999756485
H   H60       1.0  0.07960  0.92220  0.12900  1.0000 0.0999756485
H   H61       1.0  0.44630  0.35300  0.84280  1.0000 0.1326983645
H   H62       1.0  0.55370  0.14700  0.34280  1.0000 0.1326983645
H   H63       1.0  0.94630  0.64700  0.65720  1.0000 0.1326983645
H   H64       1.0  0.05370  0.85300  0.15720  1.0000 0.1326983645
H   H65       1.0  0.54200  0.31030  0.73380  1.0000 0.1099892122
H   H66       1.0  0.45800  0.18970  0.23380  1.0000 0.1099892122
H   H67       1.0  0.04200  0.68970  0.76620  1.0000 0.1099892122
H   H68       1.0  0.95800  0.81030  0.26620  1.0000 0.1099892122
H   H69       1.0  0.48370  0.30350  0.78080  1.0000 0.1326983645
H   H70       1.0  0.51630  0.19650  0.28080  1.0000 0.1326983645
H   H71       1.0  0.98370  0.69650  0.71920  1.0000 0.1326983645
H   H72       1.0  0.01630  0.80350  0.21920  1.0000 0.1326983645
H   H73       1.0  0.58020  0.16760  0.72870  1.0000 0.1099892122
H   H74       1.0  0.41980  0.33240  0.22870  1.0000 0.1099892122
H   H75       1.0  0.08020  0.83240  0.77130  1.0000 0.1099892122
H   H76       1.0  0.91980  0.66760  0.27130  1.0000 0.1099892122
H   H77       1.0  0.52050  0.15620  0.77530  1.0000 0.1326983645
H   H78       1.0  0.47950  0.34380  0.27530  1.0000 0.1326983645
H   H79       1.0  0.02050  0.84380  0.72470  1.0000 0.1326983645
H   H80       1.0  0.97950  0.65620  0.22470  1.0000 0.1326983645
H   H81       1.0  0.39840  0.01180  0.84890  1.0000 0.0999756485
H   H82       1.0  0.60160  0.48820  0.34890  1.0000 0.0999756485
H   H83       1.0  0.89840  0.98820  0.65110  1.0000 0.0999756485
H   H84       1.0  0.10160  0.51180  0.15110  1.0000 0.0999756485
H   H85       1.0  0.43110  0.08790  0.82810  1.0000 0.1326983645
H   H86       1.0  0.56890  0.41210  0.32810  1.0000 0.1326983645
H   H87       1.0  0.93110  0.91210  0.67190  1.0000 0.1326983645
H   H88       1.0  0.06890  0.58790  0.17190  1.0000 0.1326983645
H   H89       1.0  0.38380  0.07080  0.92670  1.0000 0.1099892122
H   H90       1.0  0.61620  0.42920  0.42670  1.0000 0.1099892122
H   H91       1.0  0.88380  0.92920  0.57330  1.0000 0.1099892122
H   H92       1.0  0.11620  0.57080  0.07330  1.0000 0.1099892122
H   H93       1.0  0.41020  0.14860  0.90800  1.0000 0.1326983645
H   H94       1.0  0.58980  0.35140  0.40800  1.0000 0.1326983645
H   H95       1.0  0.91020  0.85140  0.59200  1.0000 0.1326983645
H   H96       1.0  0.08980  0.64860  0.09200  1.0000 0.1326983645
H   H97       1.0  0.68650  0.69200  0.86430  1.0000 0.1099892122
H   H98       1.0  0.31350  0.80800  0.36430  1.0000 0.1099892122
H   H99       1.0  0.18650  0.30800  0.63570  1.0000 0.1099892122
H   H100      1.0  0.81350  0.19200  0.13570  1.0000 0.1099892122
H   H101      1.0  0.60270  0.65770  0.90280  1.0000 0.1326983645
H   H102      1.0  0.39730  0.84230  0.40280  1.0000 0.1326983645
H   H103      1.0  0.10270  0.34230  0.59720  1.0000 0.1326983645
H   H104      1.0  0.89730  0.15770  0.09720  1.0000 0.1326983645
H   H105      1.0  0.44080  0.72690  0.82580  1.0000 0.1099892122
H   H106      1.0  0.55920  0.77310  0.32580  1.0000 0.1099892122
H   H107      1.0  0.94080  0.27310  0.67420  1.0000 0.1099892122
H   H108      1.0  0.05920  0.22690  0.17420  1.0000 0.1099892122
H   H109      1.0  0.35030  0.69260  0.86290  1.0000 0.1367540827
H   H110      1.0  0.64970  0.80740  0.36290  1.0000 0.1367540827
H   H111      1.0  0.85030  0.30740  0.63710  1.0000 0.1367540827
H   H112      1.0  0.14970  0.19260  0.13710  1.0000 0.1367540827
H   H113      1.0  0.02350  0.56430  0.87390  1.0000 0.1099892122
H   H114      1.0  0.97650  0.93570  0.37390  1.0000 0.1099892122
H   H115      1.0  0.52350  0.43570  0.62610  1.0000 0.1099892122
H   H116      1.0  0.47650  0.06430  0.12610  1.0000 0.1099892122
H   H117      1.0  0.17910  0.59490  0.88000  1.0000 0.1367540827
H   H118      1.0  0.82090  0.90510  0.38000  1.0000 0.1367540827
H   H119      1.0  0.67910  0.40510  0.62000  1.0000 0.1367540827
H   H120      1.0  0.32090  0.09490  0.12000  1.0000 0.1367540827
H   H121      1.0  0.97450  0.56880  0.95740  1.0000 0.1099892122
H   H122      1.0  0.02550  0.93120  0.45740  1.0000 0.1099892122
H   H123      1.0  0.47450  0.43120  0.54260  1.0000 0.1099892122
H   H124      1.0  0.52550  0.06880  0.04260  1.0000 0.1099892122
H   H125      1.0  0.13010  0.59660  0.96630  1.0000 0.1326983645
H   H126      1.0  0.86990  0.90340  0.46630  1.0000 0.1326983645
H   H127      1.0  0.63010  0.40340  0.53370  1.0000 0.1326983645
H   H128      1.0  0.36990  0.09660  0.03370  1.0000 0.1326983645
H   H129      1.0  0.44380  0.53290  0.03980  1.0000 0.1099892122
H   H130      1.0  0.55620  0.96710  0.53980  1.0000 0.1099892122
H   H131      1.0  0.94380  0.46710  0.46020  1.0000 0.1099892122
H   H132      1.0  0.05620  0.03290  0.96020  1.0000 0.1099892122
H   H133      1.0  0.35530  0.55890  0.00040  1.0000 0.1367540827
H   H134      1.0  0.64470  0.94110  0.50040  1.0000 0.1367540827
H   H135      1.0  0.85530  0.44110  0.49960  1.0000 0.1367540827
H   H136      1.0  0.14470  0.05890  0.99960  1.0000 0.1367540827
H   H137      1.0  0.67700  0.60540  0.01350  1.0000 0.0999756485
H   H138      1.0  0.32300  0.89460  0.51350  1.0000 0.0999756485
H   H139      1.0  0.17700  0.39460  0.48650  1.0000 0.0999756485
H   H140      1.0  0.82300  0.10540  0.98650  1.0000 0.0999756485
H   H141      1.0  0.59150  0.63490  0.97320  1.0000 0.1367540827
H   H142      1.0  0.40850  0.86510  0.47320  1.0000 0.1367540827
H   H143      1.0  0.09150  0.36510  0.52680  1.0000 0.1367540827
H   H144      1.0  0.90850  0.13490  0.02680  1.0000 0.1367540827
H   H145      1.0  0.64520  0.65960  0.06120  1.0000 0.0999756485
H   H146      1.0  0.35480  0.84040  0.56120  1.0000 0.0999756485
H   H147      1.0  0.14520  0.34040  0.43880  1.0000 0.0999756485
H   H148      1.0  0.85480  0.15960  0.93880  1.0000 0.0999756485
H   H149      1.0  0.61930  0.73110  0.08730  1.0000 0.1367540827
H   H150      1.0  0.38070  0.76890  0.58730  1.0000 0.1367540827
H   H151      1.0  0.11930  0.26890  0.41270  1.0000 0.1367540827
H   H152      1.0  0.88070  0.23110  0.91270  1.0000 0.1367540827
H   H153      1.0  0.57960  0.57780  0.12900  1.0000 0.0999756485
H   H154      1.0  0.42040  0.92220  0.62900  1.0000 0.0999756485
H   H155      1.0  0.07960  0.42220  0.37100  1.0000 0.0999756485
H   H156      1.0  0.92040  0.07780  0.87100  1.0000 0.0999756485
H   H157      1.0  0.55370  0.64700  0.15720  1.0000 0.1326983645
H   H158      1.0  0.44630  0.85300  0.65720  1.0000 0.1326983645
H   H159      1.0  0.05370  0.35300  0.34280  1.0000 0.1326983645
H   H160      1.0  0.94630  0.14700  0.84280  1.0000 0.1326983645
H   H161      1.0  0.45800  0.68970  0.26620  1.0000 0.1099892122
H   H162      1.0  0.54200  0.81030  0.76620  1.0000 0.1099892122
H   H163      1.0  0.95800  0.31030  0.23380  1.0000 0.1099892122
H   H164      1.0  0.04200  0.18970  0.73380  1.0000 0.1099892122
H   H165      1.0  0.51630  0.69650  0.21920  1.0000 0.1326983645
H   H166      1.0  0.48370  0.80350  0.71920  1.0000 0.1326983645
H   H167      1.0  0.01630  0.30350  0.28080  1.0000 0.1326983645
H   H168      1.0  0.98370  0.19650  0.78080  1.0000 0.1326983645
H   H169      1.0  0.41980  0.83240  0.27130  1.0000 0.1099892122
H   H170      1.0  0.58020  0.66760  0.77130  1.0000 0.1099892122
H   H171      1.0  0.91980  0.16760  0.22870  1.0000 0.1099892122
H   H172      1.0  0.08020  0.33240  0.72870  1.0000 0.1099892122
H   H173      1.0  0.47950  0.84380  0.22470  1.0000 0.1326983645
H   H174      1.0  0.52050  0.65620  0.72470  1.0000 0.1326983645
H   H175      1.0  0.97950  0.15620  0.27530  1.0000 0.1326983645
H   H176      1.0  0.02050  0.34380  0.77530  1.0000 0.1326983645
H   H177      1.0  0.60160  0.98820  0.15110  1.0000 0.0999756485
H   H178      1.0  0.39840  0.51180  0.65110  1.0000 0.0999756485
H   H179      1.0  0.10160  0.01180  0.34890  1.0000 0.0999756485
H   H180      1.0  0.89840  0.48820  0.84890  1.0000 0.0999756485
H   H181      1.0  0.56890  0.91210  0.17190  1.0000 0.1326983645
H   H182      1.0  0.43110  0.58790  0.67190  1.0000 0.1326983645
H   H183      1.0  0.06890  0.08790  0.32810  1.0000 0.1326983645
H   H184      1.0  0.93110  0.41210  0.82810  1.0000 0.1326983645
H   H185      1.0  0.61620  0.92920  0.07330  1.0000 0.1099892122
H   H186      1.0  0.38380  0.57080  0.57330  1.0000 0.1099892122
H   H187      1.0  0.11620  0.07080  0.42670  1.0000 0.1099892122
H   H188      1.0  0.88380  0.42920  0.92670  1.0000 0.1099892122
H   H189      1.0  0.58980  0.85140  0.09200  1.0000 0.1326983645
H   H190      1.0  0.41020  0.64860  0.59200  1.0000 0.1326983645
H   H191      1.0  0.08980  0.14860  0.40800  1.0000 0.1326983645
H   H192      1.0  0.91020  0.35140  0.90800  1.0000 0.1326983645
C   C1        1.0  0.38290  0.30780  0.13592  1.0000 0.0883655896
C   C2        1.0  0.61710  0.19220  0.63592  1.0000 0.0883655896
C   C3        1.0  0.88290  0.69220  0.36408  1.0000 0.0883655896
C   C4        1.0  0.11710  0.80780  0.86408  1.0000 0.0883655896
C   C5        1.0  0.43230  0.32830  0.11301  1.0000 -0.1216761502
C   C6        1.0  0.56770  0.17170  0.61301  1.0000 -0.1216761502
C   C7        1.0  0.93230  0.67170  0.38699  1.0000 -0.1216761502
C   C8        1.0  0.06770  0.82830  0.88699  1.0000 -0.1216761502
C   C9        1.0  0.52590  0.28770  0.15831  1.0000 0.0788127686
C   C10       1.0  0.47410  0.21230  0.65831  1.0000 0.0788127686
C   C11       1.0  0.02590  0.71230  0.34169  1.0000 0.0788127686
C   C12       1.0  0.97410  0.78770  0.84169  1.0000 0.0788127686
C   C13       1.0  0.58030  0.30780  0.13633  1.0000 -0.1256601321
C   C14       1.0  0.41970  0.19220  0.63633  1.0000 -0.1256601321
C   C15       1.0  0.08030  0.69220  0.36367  1.0000 -0.1256601321
C   C16       1.0  0.91970  0.80780  0.86367  1.0000 -0.1256601321
C   C17       1.0  0.53220  0.32860  0.11307  1.0000 0.0591810629
C   C18       1.0  0.46780  0.17140  0.61307  1.0000 0.0591810629
C   C19       1.0  0.03220  0.67140  0.38693  1.0000 0.0591810629
C   C20       1.0  0.96780  0.82860  0.88693  1.0000 0.0591810629
C   C21       1.0  0.58740  0.35130  0.08866  1.0000 0.3687290014
C   C22       1.0  0.41260  0.14870  0.58866  1.0000 0.3687290014
C   C23       1.0  0.08740  0.64870  0.41134  1.0000 0.3687290014
C   C24       1.0  0.91260  0.85130  0.91134  1.0000 0.3687290014
C   C25       1.0  0.95400  0.42880  0.10695  1.0000 0.0788127686
C   C26       1.0  0.04600  0.07120  0.60695  1.0000 0.0788127686
C   C27       1.0  0.45400  0.57120  0.39305  1.0000 0.0788127686
C   C28       1.0  0.54600  0.92880  0.89305  1.0000 0.0788127686
C   C29       1.0  0.86120  0.41100  0.10358  1.0000 -0.1216761502
C   C30       1.0  0.13880  0.08900  0.60358  1.0000 -0.1216761502
C   C31       1.0  0.36120  0.58900  0.39642  1.0000 -0.1216761502
C   C32       1.0  0.63880  0.91100  0.89642  1.0000 -0.1216761502
C   C33       1.0  0.98240  0.42670  0.05857  1.0000 0.0883655896
C   C34       1.0  0.01760  0.07330  0.55857  1.0000 0.0883655896
C   C35       1.0  0.48240  0.57330  0.44143  1.0000 0.0883655896
C   C36       1.0  0.51760  0.92670  0.94143  1.0000 0.0883655896
C   C37       1.0  0.89010  0.40960  0.05310  1.0000 -0.1410004802
C   C38       1.0  0.10990  0.09040  0.55310  1.0000 -0.1410004802
C   C39       1.0  0.39010  0.59040  0.44690  1.0000 -0.1410004802
C   C40       1.0  0.60990  0.90960  0.94690  1.0000 -0.1410004802
C   C41       1.0  0.82700  0.40150  0.07576  1.0000 0.0656821062
C   C42       1.0  0.17300  0.09850  0.57576  1.0000 0.0656821062
C   C43       1.0  0.32700  0.59850  0.42424  1.0000 0.0656821062
C   C44       1.0  0.67300  0.90150  0.92424  1.0000 0.0656821062
C   C45       1.0  0.72490  0.38530  0.07128  1.0000 0.3687290014
C   C46       1.0  0.27510  0.11470  0.57128  1.0000 0.3687290014
C   C47       1.0  0.22490  0.61470  0.42872  1.0000 0.3687290014
C   C48       1.0  0.77510  0.88530  0.92872  1.0000 0.3687290014
C   C49       1.0  0.52580  0.44600  0.97401  1.0000 0.0788127686
C   C50       1.0  0.47420  0.05400  0.47401  1.0000 0.0788127686
C   C51       1.0  0.02580  0.55400  0.52599  1.0000 0.0788127686
C   C52       1.0  0.97420  0.94600  0.02599  1.0000 0.0788127686
C   C53       1.0  0.57890  0.43070  0.99723  1.0000 -0.1410004802
C   C54       1.0  0.42110  0.06930  0.49723  1.0000 -0.1410004802
C   C55       1.0  0.07890  0.56930  0.50277  1.0000 -0.1410004802
C   C56       1.0  0.92110  0.93070  0.00277  1.0000 -0.1410004802
C   C57       1.0  0.38950  0.40370  0.98908  1.0000 0.0788127686
C   C58       1.0  0.61050  0.09630  0.48908  1.0000 0.0788127686
C   C59       1.0  0.88950  0.59630  0.51092  1.0000 0.0788127686
C   C60       1.0  0.11050  0.90370  0.01092  1.0000 0.0788127686
C   C61       1.0  0.44010  0.38620  0.01328  1.0000 -0.1410004802
C   C62       1.0  0.55990  0.11380  0.51328  1.0000 -0.1410004802
C   C63       1.0  0.94010  0.61380  0.48672  1.0000 -0.1410004802
C   C64       1.0  0.05990  0.88620  0.98672  1.0000 -0.1410004802
C   C65       1.0  0.53570  0.39960  0.01759  1.0000 0.0591810629
C   C66       1.0  0.46430  0.10040  0.51759  1.0000 0.0591810629
C   C67       1.0  0.03570  0.60040  0.48241  1.0000 0.0591810629
C   C68       1.0  0.96430  0.89960  0.98241  1.0000 0.0591810629
C   C69       1.0  0.59010  0.38320  0.04370  1.0000 0.3687290014
C   C70       1.0  0.40990  0.11680  0.54370  1.0000 0.3687290014
C   C71       1.0  0.09010  0.61680  0.45630  1.0000 0.3687290014
C   C72       1.0  0.90990  0.88320  0.95630  1.0000 0.3687290014
C   C73       1.0  0.37430  0.34290  0.91904  1.0000 0.0788127686
C   C74       1.0  0.62570  0.15710  0.41904  1.0000 0.0788127686
C   C75       1.0  0.87430  0.65710  0.58096  1.0000 0.0788127686
C   C76       1.0  0.12570  0.84290  0.08096  1.0000 0.0788127686
C   C77       1.0  0.38920  0.30010  0.90367  1.0000 -0.1581431132
C   C78       1.0  0.61080  0.19990  0.40367  1.0000 -0.1581431132
C   C79       1.0  0.88920  0.69990  0.59633  1.0000 -0.1581431132
C   C80       1.0  0.11080  0.80010  0.09633  1.0000 -0.1581431132
C   C81       1.0  0.41230  0.39050  0.87949  1.0000 0.0883655896
C   C82       1.0  0.58770  0.10950  0.37949  1.0000 0.0883655896
C   C83       1.0  0.91230  0.60950  0.62051  1.0000 0.0883655896
C   C84       1.0  0.08770  0.89050  0.12051  1.0000 0.0883655896
C   C85       1.0  0.42800  0.34960  0.86259  1.0000 -0.1581431132
C   C86       1.0  0.57200  0.15040  0.36259  1.0000 -0.1581431132
C   C87       1.0  0.92800  0.65040  0.63741  1.0000 -0.1581431132
C   C88       1.0  0.07200  0.84960  0.13741  1.0000 -0.1581431132
C   C89       1.0  0.41670  0.30340  0.87469  1.0000 0.0591810629
C   C90       1.0  0.58330  0.19660  0.37469  1.0000 0.0591810629
C   C91       1.0  0.91670  0.69660  0.62531  1.0000 0.0591810629
C   C92       1.0  0.08330  0.80340  0.12531  1.0000 0.0591810629
C   C93       1.0  0.43160  0.25850  0.85722  1.0000 0.3687290014
C   C94       1.0  0.56840  0.24150  0.35722  1.0000 0.3687290014
C   C95       1.0  0.93160  0.74150  0.64278  1.0000 0.3687290014
C   C96       1.0  0.06840  0.75850  0.14278  1.0000 0.3687290014
C   C97       1.0  0.53910  0.27870  0.74261  1.0000 0.0999756485
C   C98       1.0  0.46090  0.22130  0.24261  1.0000 0.0999756485
C   C99       1.0  0.03910  0.72130  0.75739  1.0000 0.0999756485
C   C100      1.0  0.96090  0.77870  0.25739  1.0000 0.0999756485
C   C101      1.0  0.50400  0.27480  0.77058  1.0000 -0.150464605
C   C102      1.0  0.49600  0.22520  0.27058  1.0000 -0.150464605
C   C103      1.0  0.00400  0.72520  0.72942  1.0000 -0.150464605
C   C104      1.0  0.99600  0.77480  0.22942  1.0000 -0.150464605
C   C105      1.0  0.56100  0.19570  0.73960  1.0000 0.0883655896
C   C106      1.0  0.43900  0.30430  0.23960  1.0000 0.0883655896
C   C107      1.0  0.06100  0.80430  0.76040  1.0000 0.0883655896
C   C108      1.0  0.93900  0.69570  0.26040  1.0000 0.0883655896
C   C109      1.0  0.52590  0.18840  0.76744  1.0000 -0.1581431132
C   C110      1.0  0.47410  0.31160  0.26744  1.0000 -0.1581431132
C   C111      1.0  0.02590  0.81160  0.73256  1.0000 -0.1581431132
C   C112      1.0  0.97410  0.68840  0.23256  1.0000 -0.1581431132
C   C113      1.0  0.49860  0.22910  0.78360  1.0000 0.0591810629
C   C114      1.0  0.50140  0.27090  0.28360  1.0000 0.0591810629
C   C115      1.0  0.99860  0.77090  0.71640  1.0000 0.0591810629
C   C116      1.0  0.00140  0.72910  0.21640  1.0000 0.0591810629
C   C117      1.0  0.46860  0.22370  0.81431  1.0000 0.3687290014
C   C118      1.0  0.53140  0.27630  0.31431  1.0000 0.3687290014
C   C119      1.0  0.96860  0.77630  0.68569  1.0000 0.3687290014
C   C120      1.0  0.03140  0.72370  0.18569  1.0000 0.3687290014
C   C121      1.0  0.40130  0.04010  0.86105  1.0000 0.0883655896
C   C122      1.0  0.59870  0.45990  0.36105  1.0000 0.0883655896
C   C123      1.0  0.90130  0.95990  0.63895  1.0000 0.0883655896
C   C124      1.0  0.09870  0.54010  0.13895  1.0000 0.0883655896
C   C125      1.0  0.41940  0.08540  0.84845  1.0000 -0.150464605
C   C126      1.0  0.58060  0.41460  0.34845  1.0000 -0.150464605
C   C127      1.0  0.91940  0.91460  0.65155  1.0000 -0.150464605
C   C128      1.0  0.08060  0.58540  0.15155  1.0000 -0.150464605
C   C129      1.0  0.39200  0.07450  0.90628  1.0000 0.0883655896
C   C130      1.0  0.60800  0.42550  0.40628  1.0000 0.0883655896
C   C131      1.0  0.89200  0.92550  0.59372  1.0000 0.0883655896
C   C132      1.0  0.10800  0.57450  0.09372  1.0000 0.0883655896
C   C133      1.0  0.40790  0.12090  0.89538  1.0000 -0.150464605
C   C134      1.0  0.59210  0.37910  0.39538  1.0000 -0.150464605
C   C135      1.0  0.90790  0.87910  0.60462  1.0000 -0.150464605
C   C136      1.0  0.09210  0.62090  0.10462  1.0000 -0.150464605
C   C137      1.0  0.42040  0.12690  0.86570  1.0000 0.0591810629
C   C138      1.0  0.57960  0.37310  0.36570  1.0000 0.0591810629
C   C139      1.0  0.92040  0.87310  0.63430  1.0000 0.0591810629
C   C140      1.0  0.07960  0.62690  0.13430  1.0000 0.0548855705
C   C141      1.0  0.43370  0.17620  0.85291  1.0000 0.3687290014
C   C142      1.0  0.56630  0.32380  0.35291  1.0000 0.3687290014
C   C143      1.0  0.93370  0.82380  0.64709  1.0000 0.3687290014
C   C144      1.0  0.06630  0.67620  0.14709  1.0000 0.3687290014
C   C145      1.0  0.61710  0.69220  0.86408  1.0000 0.0883655896
C   C146      1.0  0.38290  0.80780  0.36408  1.0000 0.0883655896
C   C147      1.0  0.11710  0.30780  0.63592  1.0000 0.0883655896
C   C148      1.0  0.88290  0.19220  0.13592  1.0000 0.0883655896
C   C149      1.0  0.56770  0.67170  0.88699  1.0000 -0.1216761502
C   C150      1.0  0.43230  0.82830  0.38699  1.0000 -0.1216761502
C   C151      1.0  0.06770  0.32830  0.61301  1.0000 -0.1216761502
C   C152      1.0  0.93230  0.17170  0.11301  1.0000 -0.1216761502
C   C153      1.0  0.47410  0.71230  0.84169  1.0000 0.0788127686
C   C154      1.0  0.52590  0.78770  0.34169  1.0000 0.0788127686
C   C155      1.0  0.97410  0.28770  0.65831  1.0000 0.0788127686
C   C156      1.0  0.02590  0.21230  0.15831  1.0000 0.0788127686
C   C157      1.0  0.41970  0.69220  0.86367  1.0000 -0.1256601321
C   C158      1.0  0.58030  0.80780  0.36367  1.0000 -0.1256601321
C   C159      1.0  0.91970  0.30780  0.63633  1.0000 -0.1256601321
C   C160      1.0  0.08030  0.19220  0.13633  1.0000 -0.1256601321
C   C161      1.0  0.46780  0.67140  0.88693  1.0000 0.0591810629
C   C162      1.0  0.53220  0.82860  0.38693  1.0000 0.0591810629
C   C163      1.0  0.96780  0.32860  0.61307  1.0000 0.0591810629
C   C164      1.0  0.03220  0.17140  0.11307  1.0000 0.0591810629
C   C165      1.0  0.41260  0.64870  0.91134  1.0000 0.3687290014
C   C166      1.0  0.58740  0.85130  0.41134  1.0000 0.3687290014
C   C167      1.0  0.91260  0.35130  0.58866  1.0000 0.3687290014
C   C168      1.0  0.08740  0.14870  0.08866  1.0000 0.3687290014
C   C169      1.0  0.04600  0.57120  0.89305  1.0000 0.0788127686
C   C170      1.0  0.95400  0.92880  0.39305  1.0000 0.0788127686
C   C171      1.0  0.54600  0.42880  0.60695  1.0000 0.0788127686
C   C172      1.0  0.45400  0.07120  0.10695  1.0000 0.0788127686
C   C173      1.0  0.13880  0.58900  0.89642  1.0000 -0.1216761502
C   C174      1.0  0.86120  0.91100  0.39642  1.0000 -0.1216761502
C   C175      1.0  0.63880  0.41100  0.60358  1.0000 -0.1216761502
C   C176      1.0  0.36120  0.08900  0.10358  1.0000 -0.1216761502
C   C177      1.0  0.01760  0.57330  0.94143  1.0000 0.0883655896
C   C178      1.0  0.98240  0.92670  0.44143  1.0000 0.0883655896
C   C179      1.0  0.51760  0.42670  0.55857  1.0000 0.0883655896
C   C180      1.0  0.48240  0.07330  0.05857  1.0000 0.0883655896
C   C181      1.0  0.10990  0.59040  0.94690  1.0000 -0.1410004802
C   C182      1.0  0.89010  0.90960  0.44690  1.0000 -0.1410004802
C   C183      1.0  0.60990  0.40960  0.55310  1.0000 -0.1410004802
C   C184      1.0  0.39010  0.09040  0.05310  1.0000 -0.1410004802
C   C185      1.0  0.17300  0.59850  0.92424  1.0000 0.0656821062
C   C186      1.0  0.82700  0.90150  0.42424  1.0000 0.0656821062
C   C187      1.0  0.67300  0.40150  0.57576  1.0000 0.0656821062
C   C188      1.0  0.32700  0.09850  0.07576  1.0000 0.0656821062
C   C189      1.0  0.27510  0.61470  0.92872  1.0000 0.3687290014
C   C190      1.0  0.72490  0.88530  0.42872  1.0000 0.3687290014
C   C191      1.0  0.77510  0.38530  0.57128  1.0000 0.3687290014
C   C192      1.0  0.22490  0.11470  0.07128  1.0000 0.3687290014
C   C193      1.0  0.47420  0.55400  0.02599  1.0000 0.0788127686
C   C194      1.0  0.52580  0.94600  0.52599  1.0000 0.0788127686
C   C195      1.0  0.97420  0.44600  0.47401  1.0000 0.0788127686
C   C196      1.0  0.02580  0.05400  0.97401  1.0000 0.0788127686
C   C197      1.0  0.42110  0.56930  0.00277  1.0000 -0.1410004802
C   C198      1.0  0.57890  0.93070  0.50277  1.0000 -0.1410004802
C   C199      1.0  0.92110  0.43070  0.49723  1.0000 -0.1410004802
C   C200      1.0  0.07890  0.06930  0.99723  1.0000 -0.1410004802
C   C201      1.0  0.61050  0.59630  0.01092  1.0000 0.0788127686
C   C202      1.0  0.38950  0.90370  0.51092  1.0000 0.0788127686
C   C203      1.0  0.11050  0.40370  0.48908  1.0000 0.0788127686
C   C204      1.0  0.88950  0.09630  0.98908  1.0000 0.0788127686
C   C205      1.0  0.55990  0.61380  0.98672  1.0000 -0.1410004802
C   C206      1.0  0.44010  0.88620  0.48672  1.0000 -0.1410004802
C   C207      1.0  0.05990  0.38620  0.51328  1.0000 -0.1410004802
C   C208      1.0  0.94010  0.11380  0.01328  1.0000 -0.1410004802
C   C209      1.0  0.46430  0.60040  0.98241  1.0000 0.0591810629
C   C210      1.0  0.53570  0.89960  0.48241  1.0000 0.0591810629
C   C211      1.0  0.96430  0.39960  0.51759  1.0000 0.0591810629
C   C212      1.0  0.03570  0.10040  0.01759  1.0000 0.0591810629
C   C213      1.0  0.40990  0.61680  0.95630  1.0000 0.3687290014
C   C214      1.0  0.59010  0.88320  0.45630  1.0000 0.3687290014
C   C215      1.0  0.90990  0.38320  0.54370  1.0000 0.3687290014
C   C216      1.0  0.09010  0.11680  0.04370  1.0000 0.3687290014
C   C217      1.0  0.62570  0.65710  0.08096  1.0000 0.0788127686
C   C218      1.0  0.37430  0.84290  0.58096  1.0000 0.0788127686
C   C219      1.0  0.12570  0.34290  0.41904  1.0000 0.0788127686
C   C220      1.0  0.87430  0.15710  0.91904  1.0000 0.0788127686
C   C221      1.0  0.61080  0.69990  0.09633  1.0000 -0.1581431132
C   C222      1.0  0.38920  0.80010  0.59633  1.0000 -0.1581431132
C   C223      1.0  0.11080  0.30010  0.40367  1.0000 -0.1581431132
C   C224      1.0  0.88920  0.19990  0.90367  1.0000 -0.1581431132
C   C225      1.0  0.58770  0.60950  0.12051  1.0000 0.0883655896
C   C226      1.0  0.41230  0.89050  0.62051  1.0000 0.0883655896
C   C227      1.0  0.08770  0.39050  0.37949  1.0000 0.0883655896
C   C228      1.0  0.91230  0.10950  0.87949  1.0000 0.0883655896
C   C229      1.0  0.57200  0.65040  0.13741  1.0000 -0.1581431132
C   C230      1.0  0.42800  0.84960  0.63741  1.0000 -0.1581431132
C   C231      1.0  0.07200  0.34960  0.36259  1.0000 -0.1581431132
C   C232      1.0  0.92800  0.15040  0.86259  1.0000 -0.1581431132
C   C233      1.0  0.58330  0.69660  0.12531  1.0000 0.0591810629
C   C234      1.0  0.41670  0.80340  0.62531  1.0000 0.0591810629
C   C235      1.0  0.08330  0.30340  0.37469  1.0000 0.0591810629
C   C236      1.0  0.91670  0.19660  0.87469  1.0000 0.0591810629
C   C237      1.0  0.56840  0.74150  0.14278  1.0000 0.3687290014
C   C238      1.0  0.43160  0.75850  0.64278  1.0000 0.3687290014
C   C239      1.0  0.06840  0.25850  0.35722  1.0000 0.3687290014
C   C240      1.0  0.93160  0.24150  0.85722  1.0000 0.3687290014
C   C241      1.0  0.46090  0.72130  0.25739  1.0000 0.0999756485
C   C242      1.0  0.53910  0.77870  0.75739  1.0000 0.0999756485
C   C243      1.0  0.96090  0.27870  0.24261  1.0000 0.0999756485
C   C244      1.0  0.03910  0.22130  0.74261  1.0000 0.0999756485
C   C245      1.0  0.49600  0.72520  0.22942  1.0000 -0.150464605
C   C246      1.0  0.50400  0.77480  0.72942  1.0000 -0.150464605
C   C247      1.0  0.99600  0.27480  0.27058  1.0000 -0.150464605
C   C248      1.0  0.00400  0.22520  0.77058  1.0000 -0.150464605
C   C249      1.0  0.43900  0.80430  0.26040  1.0000 0.0883655896
C   C250      1.0  0.56100  0.69570  0.76040  1.0000 0.0883655896
C   C251      1.0  0.93900  0.19570  0.23960  1.0000 0.0883655896
C   C252      1.0  0.06100  0.30430  0.73960  1.0000 0.0883655896
C   C253      1.0  0.47410  0.81160  0.23256  1.0000 -0.1581431132
C   C254      1.0  0.52590  0.68840  0.73256  1.0000 -0.1581431132
C   C255      1.0  0.97410  0.18840  0.26744  1.0000 -0.1581431132
C   C256      1.0  0.02590  0.31160  0.76744  1.0000 -0.1581431132
C   C257      1.0  0.50140  0.77090  0.21640  1.0000 0.0591810629
C   C258      1.0  0.49860  0.72910  0.71640  1.0000 0.0591810629
C   C259      1.0  0.00140  0.22910  0.28360  1.0000 0.0591810629
C   C260      1.0  0.99860  0.27090  0.78360  1.0000 0.0591810629
C   C261      1.0  0.53140  0.77630  0.18569  1.0000 0.3687290014
C   C262      1.0  0.46860  0.72370  0.68569  1.0000 0.3687290014
C   C263      1.0  0.03140  0.22370  0.31431  1.0000 0.3687290014
C   C264      1.0  0.96860  0.27630  0.81431  1.0000 0.3687290014
C   C265      1.0  0.59870  0.95990  0.13895  1.0000 0.0883655896
C   C266      1.0  0.40130  0.54010  0.63895  1.0000 0.0883655896
C   C267      1.0  0.09870  0.04010  0.36105  1.0000 0.0883655896
C   C268      1.0  0.90130  0.45990  0.86105  1.0000 0.0883655896
C   C269      1.0  0.58060  0.91460  0.15155  1.0000 -0.150464605
C   C270      1.0  0.41940  0.58540  0.65155  1.0000 -0.150464605
C   C271      1.0  0.08060  0.08540  0.34845  1.0000 -0.150464605
C   C272      1.0  0.91940  0.41460  0.84845  1.0000 -0.150464605
C   C273      1.0  0.60800  0.92550  0.09372  1.0000 0.0883655896
C   C274      1.0  0.39200  0.57450  0.59372  1.0000 0.0883655896
C   C275      1.0  0.10800  0.07450  0.40628  1.0000 0.0883655896
C   C276      1.0  0.89200  0.42550  0.90628  1.0000 0.0883655896
C   C277      1.0  0.59210  0.87910  0.10462  1.0000 -0.150464605
C   C278      1.0  0.40790  0.62090  0.60462  1.0000 -0.150464605
C   C279      1.0  0.09210  0.12090  0.39538  1.0000 -0.150464605
C   C280      1.0  0.90790  0.37910  0.89538  1.0000 -0.150464605
C   C281      1.0  0.57960  0.87310  0.13430  1.0000 0.0548855705
C   C282      1.0  0.42040  0.62690  0.63430  1.0000 0.0591810629
C   C283      1.0  0.07960  0.12690  0.36570  1.0000 0.0591810629
C   C284      1.0  0.92040  0.37310  0.86570  1.0000 0.0591810629
C   C285      1.0  0.56630  0.82380  0.14709  1.0000 0.3687290014
C   C286      1.0  0.43370  0.67620  0.64709  1.0000 0.3687290014
C   C287      1.0  0.06630  0.17620  0.35291  1.0000 0.3687290014
C   C288      1.0  0.93370  0.32380  0.85291  1.0000 0.3687290014
I   I1        1.0  0.45682  0.51754  0.90542  1.0000 -0.4276175475
I   I2        1.0  0.54318  0.98246  0.40542  1.0000 -0.4276175475
I   I3        1.0  0.95682  0.48246  0.59458  1.0000 -0.4276175475
I   I4        1.0  0.04318  0.01754  0.09458  1.0000 -0.4276175475
I   I5        1.0  0.17878  0.45468  0.94240  1.0000 -0.4592632771
I   I6        1.0  0.82122  0.04532  0.44240  1.0000 -0.4592632771
I   I7        1.0  0.67878  0.54532  0.55760  1.0000 -0.4592632771
I   I8        1.0  0.32122  0.95468  0.05760  1.0000 -0.4592632771
I   I9        1.0  0.33833  0.16129  0.17793  1.0000 -0.4592632771
I   I10       1.0  0.66167  0.33871  0.67793  1.0000 -0.4592632771
I   I11       1.0  0.83833  0.83871  0.32207  1.0000 -0.4592632771
I   I12       1.0  0.16167  0.66129  0.82207  1.0000 -0.4592632771
I   I13       1.0  0.19588  0.30394  0.19745  1.0000 -0.4592632771
I   I14       1.0  0.80412  0.19606  0.69745  1.0000 -0.4592632771
I   I15       1.0  0.69588  0.69606  0.30255  1.0000 -0.4592632771
I   I16       1.0  0.30412  0.80394  0.80255  1.0000 -0.4592632771
I   I17       1.0  0.22888  0.42038  0.13411  1.0000 -0.4276175475
I   I18       1.0  0.77112  0.07962  0.63411  1.0000 -0.4276175475
I   I19       1.0  0.72888  0.57962  0.36589  1.0000 -0.4276175475
I   I20       1.0  0.27112  0.92038  0.86589  1.0000 -0.4276175475
I   I21       1.0  0.23275  0.47976  0.04376  1.0000 -0.4651583652
I   I22       1.0  0.76725  0.02024  0.54376  1.0000 -0.4651583652
I   I23       1.0  0.73275  0.52024  0.45624  1.0000 -0.4651583652
I   I24       1.0  0.26725  0.97976  0.95624  1.0000 -0.4651583652
I   I25       1.0  0.54318  0.48246  0.09458  1.0000 -0.4276175475
I   I26       1.0  0.45682  0.01754  0.59458  1.0000 -0.4276175475
I   I27       1.0  0.04318  0.51754  0.40542  1.0000 -0.4276175475
I   I28       1.0  0.95682  0.98246  0.90542  1.0000 -0.4276175475
I   I29       1.0  0.82122  0.54532  0.05760  1.0000 -0.4592632771
I   I30       1.0  0.17878  0.95468  0.55760  1.0000 -0.4592632771
I   I31       1.0  0.32122  0.45468  0.44240  1.0000 -0.4592632771
I   I32       1.0  0.67878  0.04532  0.94240  1.0000 -0.4592632771
I   I33       1.0  0.66167  0.83871  0.82207  1.0000 -0.4592632771
I   I34       1.0  0.33833  0.66129  0.32207  1.0000 -0.4592632771
I   I35       1.0  0.16167  0.16129  0.67793  1.0000 -0.4592632771
I   I36       1.0  0.83833  0.33871  0.17793  1.0000 -0.4592632771
I   I37       1.0  0.80412  0.69606  0.80255  1.0000 -0.4592632771
I   I38       1.0  0.19588  0.80394  0.30255  1.0000 -0.4592632771
I   I39       1.0  0.30412  0.30394  0.69745  1.0000 -0.4592632771
I   I40       1.0  0.69588  0.19606  0.19745  1.0000 -0.4592632771
I   I41       1.0  0.77112  0.57962  0.86589  1.0000 -0.4276175475
I   I42       1.0  0.22888  0.92038  0.36589  1.0000 -0.4276175475
I   I43       1.0  0.27112  0.42038  0.63411  1.0000 -0.4276175475
I   I44       1.0  0.72888  0.07962  0.13411  1.0000 -0.4276175475
I   I45       1.0  0.76725  0.52024  0.95624  1.0000 -0.4651583652
I   I46       1.0  0.23275  0.97976  0.45624  1.0000 -0.4651583652
I   I47       1.0  0.26725  0.47976  0.54376  1.0000 -0.4651583652
I   I48       1.0  0.73275  0.02024  0.04376  1.0000 -0.4651583652
N   N1        1.0  0.42840  0.28750  0.15852  1.0000 -0.1715391814
N   N2        1.0  0.57160  0.21250  0.65852  1.0000 -0.1715391814
N   N3        1.0  0.92840  0.71250  0.34148  1.0000 -0.1715391814
N   N4        1.0  0.07160  0.78750  0.84148  1.0000 -0.1715391814
N   N5        1.0  0.01420  0.43700  0.08479  1.0000 -0.1715391814
N   N6        1.0  0.98580  0.06300  0.58479  1.0000 -0.1715391814
N   N7        1.0  0.51420  0.56300  0.41521  1.0000 -0.1715391814
N   N8        1.0  0.48580  0.93700  0.91521  1.0000 -0.1715391814
N   N9        1.0  0.43230  0.43274  0.96951  1.0000 -0.180866973
N   N10       1.0  0.56770  0.06726  0.46951  1.0000 -0.180866973
N   N11       1.0  0.93230  0.56726  0.53049  1.0000 -0.180866973
N   N12       1.0  0.06770  0.93274  0.03049  1.0000 -0.180866973
N   N13       1.0  0.68070  0.36330  0.09359  1.0000 -0.3742637257
N   N14       1.0  0.31930  0.13670  0.59359  1.0000 -0.3742637257
N   N15       1.0  0.18070  0.63670  0.40641  1.0000 -0.3742637257
N   N16       1.0  0.81930  0.86330  0.90641  1.0000 -0.3742637257
N   N17       1.0  0.68400  0.39548  0.04564  1.0000 -0.3823873153
N   N18       1.0  0.31600  0.10452  0.54564  1.0000 -0.3823873153
N   N19       1.0  0.18400  0.60452  0.45436  1.0000 -0.3823873153
N   N20       1.0  0.81600  0.89548  0.95436  1.0000 -0.3823873153
N   N21       1.0  0.53820  0.36001  0.06403  1.0000 -0.3823873153
N   N22       1.0  0.46180  0.13999  0.56403  1.0000 -0.3823873153
N   N23       1.0  0.03820  0.63999  0.43597  1.0000 -0.3823873153
N   N24       1.0  0.96180  0.86001  0.93597  1.0000 -0.3823873153
N   N25       1.0  0.38600  0.38765  0.90758  1.0000 -0.180866973
N   N26       1.0  0.61400  0.11235  0.40758  1.0000 -0.180866973
N   N27       1.0  0.88600  0.61235  0.59242  1.0000 -0.180866973
N   N28       1.0  0.11400  0.88765  0.09242  1.0000 -0.180866973
N   N29       1.0  0.56940  0.23950  0.72738  1.0000 -0.180866973
N   N30       1.0  0.43060  0.26050  0.22738  1.0000 -0.180866973
N   N31       1.0  0.06940  0.76050  0.77262  1.0000 -0.180866973
N   N32       1.0  0.93060  0.73950  0.27262  1.0000 -0.180866973
N   N33       1.0  0.38760  0.03459  0.88963  1.0000 -0.180866973
N   N34       1.0  0.61240  0.46541  0.38963  1.0000 -0.180866973
N   N35       1.0  0.88760  0.96541  0.61037  1.0000 -0.180866973
N   N36       1.0  0.11240  0.53459  0.11037  1.0000 -0.180866973
N   N37       1.0  0.45500  0.26518  0.82924  1.0000 -0.4153262638
N   N38       1.0  0.54500  0.23482  0.32924  1.0000 -0.4153262638
N   N39       1.0  0.95500  0.73482  0.67076  1.0000 -0.4153262638
N   N40       1.0  0.04500  0.76518  0.17076  1.0000 -0.4153262638
N   N41       1.0  0.45870  0.17829  0.82462  1.0000 -0.4153262638
N   N42       1.0  0.54130  0.32171  0.32462  1.0000 -0.4153262638
N   N43       1.0  0.95870  0.82171  0.67538  1.0000 -0.4129529784
N   N44       1.0  0.04130  0.67829  0.17538  1.0000 -0.4153262638
N   N45       1.0  0.42070  0.21493  0.86997  1.0000 -0.4129529784
N   N46       1.0  0.57930  0.28507  0.36997  1.0000 -0.4129529784
N   N47       1.0  0.92070  0.78507  0.63003  1.0000 -0.4129529784
N   N48       1.0  0.07930  0.71493  0.13003  1.0000 -0.4129529784
N   N49       1.0  0.57160  0.71250  0.84148  1.0000 -0.1715391814
N   N50       1.0  0.42840  0.78750  0.34148  1.0000 -0.1715391814
N   N51       1.0  0.07160  0.28750  0.65852  1.0000 -0.1715391814
N   N52       1.0  0.92840  0.21250  0.15852  1.0000 -0.1715391814
N   N53       1.0  0.98580  0.56300  0.91521  1.0000 -0.1715391814
N   N54       1.0  0.01420  0.93700  0.41521  1.0000 -0.1715391814
N   N55       1.0  0.48580  0.43700  0.58479  1.0000 -0.1715391814
N   N56       1.0  0.51420  0.06300  0.08479  1.0000 -0.1715391814
N   N57       1.0  0.56770  0.56726  0.03049  1.0000 -0.180866973
N   N58       1.0  0.43230  0.93274  0.53049  1.0000 -0.180866973
N   N59       1.0  0.06770  0.43274  0.46951  1.0000 -0.180866973
N   N60       1.0  0.93230  0.06726  0.96951  1.0000 -0.180866973
N   N61       1.0  0.31930  0.63670  0.90641  1.0000 -0.3742637257
N   N62       1.0  0.68070  0.86330  0.40641  1.0000 -0.3742637257
N   N63       1.0  0.81930  0.36330  0.59359  1.0000 -0.3742637257
N   N64       1.0  0.18070  0.13670  0.09359  1.0000 -0.3742637257
N   N65       1.0  0.31600  0.60452  0.95436  1.0000 -0.3823873153
N   N66       1.0  0.68400  0.89548  0.45436  1.0000 -0.3823873153
N   N67       1.0  0.81600  0.39548  0.54564  1.0000 -0.3823873153
N   N68       1.0  0.18400  0.10452  0.04564  1.0000 -0.3823873153
N   N69       1.0  0.46180  0.63999  0.93597  1.0000 -0.3823873153
N   N70       1.0  0.53820  0.86001  0.43597  1.0000 -0.3823873153
N   N71       1.0  0.96180  0.36001  0.56403  1.0000 -0.3823873153
N   N72       1.0  0.03820  0.13999  0.06403  1.0000 -0.3823873153
N   N73       1.0  0.61400  0.61235  0.09242  1.0000 -0.180866973
N   N74       1.0  0.38600  0.88765  0.59242  1.0000 -0.180866973
N   N75       1.0  0.11400  0.38765  0.40758  1.0000 -0.180866973
N   N76       1.0  0.88600  0.11235  0.90758  1.0000 -0.180866973
N   N77       1.0  0.43060  0.76050  0.27262  1.0000 -0.180866973
N   N78       1.0  0.56940  0.73950  0.77262  1.0000 -0.180866973
N   N79       1.0  0.93060  0.23950  0.22738  1.0000 -0.180866973
N   N80       1.0  0.06940  0.26050  0.72738  1.0000 -0.180866973
N   N81       1.0  0.61240  0.96541  0.11037  1.0000 -0.180866973
N   N82       1.0  0.38760  0.53459  0.61037  1.0000 -0.180866973
N   N83       1.0  0.11240  0.03459  0.38963  1.0000 -0.180866973
N   N84       1.0  0.88760  0.46541  0.88963  1.0000 -0.180866973
N   N85       1.0  0.54500  0.73482  0.17076  1.0000 -0.4153262638
N   N86       1.0  0.45500  0.76518  0.67076  1.0000 -0.4153262638
N   N87       1.0  0.04500  0.26518  0.32924  1.0000 -0.4153262638
N   N88       1.0  0.95500  0.23482  0.82924  1.0000 -0.4153262638
N   N89       1.0  0.54130  0.82171  0.17538  1.0000 -0.4153262638
N   N90       1.0  0.45870  0.67829  0.67538  1.0000 -0.4129529784
N   N91       1.0  0.04130  0.17829  0.32462  1.0000 -0.4153262638
N   N92       1.0  0.95870  0.32171  0.82462  1.0000 -0.4153262638
N   N93       1.0  0.57930  0.78507  0.13003  1.0000 -0.4129529784
N   N94       1.0  0.42070  0.71493  0.63003  1.0000 -0.4129529784
N   N95       1.0  0.07930  0.21493  0.36997  1.0000 -0.4129529784
N   N96       1.0  0.92070  0.28507  0.86997  1.0000 -0.4129529784
