# DDEC6 charges by PACMAN v1.1 (https://github.com/mtap-research/PACMAN-charge/)
data_2007[Ag][uni]3[FSR]1
_chemical_formula_sum              "Ag3 H18 C24 N12"
_cell_length_a       10.8161
_cell_length_b       10.8161
_cell_length_c       9.7482
_cell_angle_alpha    90
_cell_angle_beta     90
_cell_angle_gamma    120

_symmetry_space_group_name_H-M    "P 1"
_symmetry_Int_Tables_number       1

loop_
  _symmetry_equiv_pos_as_xyz
  'x, y, z'

loop_
  _atom_site_type_symbol
  _atom_site_label
  _atom_site_symmetry_multiplicity
  _atom_site_fract_x
  _atom_site_fract_y
  _atom_site_fract_z
  _atom_site_occupancy
  _atom_site_charge
Ag  Ag1       1.0  0.51502  0.51502  0.00000  1.0000 0.1980868988
Ag  Ag2       1.0  0.48498  0.00000  0.33333  1.0000 0.1980868988
Ag  Ag3       1.0  1.00000  0.48498  0.66667  1.0000 0.1980868988
H   H1        1.0  0.64300  0.53790  0.30860  1.0000 0.0986666506
H   H2        1.0  0.46210  0.10510  0.64193  1.0000 0.0986666506
H   H3        1.0  0.89490  0.35700  0.97527  1.0000 0.0986666506
H   H4        1.0  0.53790  0.64300  0.69140  1.0000 0.0986666506
H   H5        1.0  0.10510  0.46210  0.35807  1.0000 0.0986666506
H   H6        1.0  0.35700  0.89490  0.02473  1.0000 0.0986666506
H   H7        1.0  0.60210  0.82780  0.51940  1.0000 0.0986666506
H   H8        1.0  0.17220  0.77430  0.85273  1.0000 0.0986666506
H   H9        1.0  0.22570  0.39790  0.18607  1.0000 0.0986666506
H   H10       1.0  0.82780  0.60210  0.48060  1.0000 0.0986666506
H   H11       1.0  0.77430  0.17220  0.14727  1.0000 0.0986666506
H   H12       1.0  0.39790  0.22570  0.81393  1.0000 0.0986666506
H   H13       1.0  0.49940  0.76270  0.13460  1.0000 0.0872880308
H   H14       1.0  0.23730  0.73670  0.46793  1.0000 0.0872880308
H   H15       1.0  0.26330  0.50060  0.80127  1.0000 0.0872880308
H   H16       1.0  0.76270  0.49940  0.86540  1.0000 0.0872880308
H   H17       1.0  0.73670  0.23730  0.53207  1.0000 0.0872880308
H   H18       1.0  0.50060  0.26330  0.19873  1.0000 0.0872880308
C   C1        1.0  0.61680  0.60770  0.31380  1.0000 -0.0092651606
C   C2        1.0  0.39230  0.00910  0.64713  1.0000 -0.0092651606
C   C3        1.0  0.99090  0.38320  0.98047  1.0000 -0.0092651606
C   C4        1.0  0.60770  0.61680  0.68620  1.0000 -0.0092651606
C   C5        1.0  0.00910  0.39230  0.35287  1.0000 -0.0092651606
C   C6        1.0  0.38320  0.99090  0.01953  1.0000 -0.0092651606
C   C7        1.0  0.63010  0.67480  0.43690  1.0000 -0.0092651606
C   C8        1.0  0.32520  0.95530  0.77023  1.0000 -0.0092651606
C   C9        1.0  0.04470  0.36990  0.10357  1.0000 -0.0092651606
C   C10       1.0  0.67480  0.63010  0.56310  1.0000 -0.0092651606
C   C11       1.0  0.95530  0.32520  0.22977  1.0000 -0.0092651606
C   C12       1.0  0.36990  0.04470  0.89643  1.0000 -0.0092651606
C   C13       1.0  0.59250  0.77870  0.43810  1.0000 -0.0092651606
C   C14       1.0  0.22130  0.81380  0.77143  1.0000 -0.0092651606
C   C15       1.0  0.18620  0.40750  0.10477  1.0000 -0.0092651606
C   C16       1.0  0.77870  0.59250  0.56190  1.0000 -0.0092651606
C   C17       1.0  0.81380  0.22130  0.22857  1.0000 -0.0092651606
C   C18       1.0  0.40750  0.18620  0.89523  1.0000 -0.0092651606
C   C19       1.0  0.53320  0.73990  0.21280  1.0000 0.1138691443
C   C20       1.0  0.26010  0.79330  0.54613  1.0000 0.1138691443
C   C21       1.0  0.20670  0.46680  0.87947  1.0000 0.1138691443
C   C22       1.0  0.73990  0.53320  0.78720  1.0000 0.1138691443
C   C23       1.0  0.79330  0.26010  0.45387  1.0000 0.1138691443
C   C24       1.0  0.46680  0.20670  0.12053  1.0000 0.1138691443
N   N1        1.0  0.56720  0.63920  0.20030  1.0000 -0.2235977066
N   N2        1.0  0.36080  0.92800  0.53363  1.0000 -0.2235977066
N   N3        1.0  0.07200  0.43280  0.86697  1.0000 -0.2235977066
N   N4        1.0  0.63920  0.56720  0.79970  1.0000 -0.2235977066
N   N5        1.0  0.92800  0.36080  0.46637  1.0000 -0.2235977066
N   N6        1.0  0.43280  0.07200  0.13303  1.0000 -0.2235977066
N   N7        1.0  0.54250  0.81210  0.32630  1.0000 -0.2461407371
N   N8        1.0  0.18790  0.73040  0.65963  1.0000 -0.2461407371
N   N9        1.0  0.26960  0.45750  0.99297  1.0000 -0.2461407371
N   N10       1.0  0.81210  0.54250  0.67370  1.0000 -0.2461407371
N   N11       1.0  0.73040  0.18790  0.34037  1.0000 -0.2461407371
N   N12       1.0  0.45750  0.26960  0.00703  1.0000 -0.2461407371
