# DDEC6 charges by PACMAN v1.1 (https://github.com/mtap-research/PACMAN-charge/)
data_2007[Cd][dia]3[FSR]2
_chemical_formula_sum              "Cd8 H192 C288 N48 O48 F64"
_cell_length_a       17.037
_cell_length_b       19.255
_cell_length_c       29.997
_cell_angle_alpha    90
_cell_angle_beta     90.922
_cell_angle_gamma    90

_symmetry_space_group_name_H-M    "P 1"
_symmetry_Int_Tables_number       1

loop_
  _symmetry_equiv_pos_as_xyz
  'x, y, z'

loop_
  _atom_site_type_symbol
  _atom_site_label
  _atom_site_symmetry_multiplicity
  _atom_site_fract_x
  _atom_site_fract_y
  _atom_site_fract_z
  _atom_site_occupancy
  _atom_site_charge
Cd  Cd1       1.0  0.87654  0.12923  0.87420  1.0000 0.7009063407
Cd  Cd2       1.0  0.12346  0.62923  0.62580  1.0000 0.7009063407
Cd  Cd3       1.0  0.12346  0.87077  0.12580  1.0000 0.7009063407
Cd  Cd4       1.0  0.87654  0.37077  0.37420  1.0000 0.7009063407
Cd  Cd5       1.0  0.37142  0.38020  0.87579  1.0000 0.7077307298
Cd  Cd6       1.0  0.62858  0.88020  0.62421  1.0000 0.7077307298
Cd  Cd7       1.0  0.62858  0.61980  0.12421  1.0000 0.7077307298
Cd  Cd8       1.0  0.37142  0.11980  0.37579  1.0000 0.7077307298
H   H1        1.0  0.96740  0.00480  0.82290  1.0000 0.1015233462
H   H2        1.0  0.03260  0.50480  0.67710  1.0000 0.1015233462
H   H3        1.0  0.03260  0.99520  0.17710  1.0000 0.1015233462
H   H4        1.0  0.96740  0.49520  0.32290  1.0000 0.1015233462
H   H5        1.0  0.00220  0.06250  0.94720  1.0000 0.1015233462
H   H6        1.0  0.99780  0.56250  0.55280  1.0000 0.1015233462
H   H7        1.0  0.99780  0.93750  0.05280  1.0000 0.1015233462
H   H8        1.0  0.00220  0.43750  0.44720  1.0000 0.1015233462
H   H9        1.0  0.07180  0.92960  0.82670  1.0000 0.1394404237
H   H10       1.0  0.92820  0.42960  0.67330  1.0000 0.1394404237
H   H11       1.0  0.92820  0.07040  0.17330  1.0000 0.1394404237
H   H12       1.0  0.07180  0.57040  0.32670  1.0000 0.1394404237
H   H13       1.0  0.10790  0.98810  0.95480  1.0000 0.1474667123
H   H14       1.0  0.89210  0.48810  0.54520  1.0000 0.1474667123
H   H15       1.0  0.89210  0.01190  0.04520  1.0000 0.1474667123
H   H16       1.0  0.10790  0.51190  0.45480  1.0000 0.1474667123
H   H17       1.0  0.19640  0.90530  0.92580  1.0000 0.1394404237
H   H18       1.0  0.80360  0.40530  0.57420  1.0000 0.1394404237
H   H19       1.0  0.80360  0.09470  0.07420  1.0000 0.1394404237
H   H20       1.0  0.19640  0.59470  0.42580  1.0000 0.1394404237
H   H21       1.0  0.21540  0.91780  0.87430  1.0000 0.1324340775
H   H22       1.0  0.78460  0.41780  0.62570  1.0000 0.1324340775
H   H23       1.0  0.78460  0.08220  0.12570  1.0000 0.1394404237
H   H24       1.0  0.21540  0.58220  0.37430  1.0000 0.1394404237
H   H25       1.0  0.04290  0.60090  0.87620  1.0000 0.1324340775
H   H26       1.0  0.95710  0.10090  0.62380  1.0000 0.1324340775
H   H27       1.0  0.95710  0.39910  0.12380  1.0000 0.1324340775
H   H28       1.0  0.04290  0.89910  0.37620  1.0000 0.1324340775
H   H29       1.0  0.06140  0.61370  0.82470  1.0000 0.1394404237
H   H30       1.0  0.93860  0.11370  0.67530  1.0000 0.1394404237
H   H31       1.0  0.93860  0.38630  0.17530  1.0000 0.1394404237
H   H32       1.0  0.06140  0.88630  0.32470  1.0000 0.1394404237
H   H33       1.0  0.15080  0.53310  0.79420  1.0000 0.1394404237
H   H34       1.0  0.84920  0.03310  0.70580  1.0000 0.1394404237
H   H35       1.0  0.84920  0.46690  0.20580  1.0000 0.1394404237
H   H36       1.0  0.15080  0.96690  0.29420  1.0000 0.1394404237
H   H37       1.0  0.18220  0.58330  0.92410  1.0000 0.1394404237
H   H38       1.0  0.81780  0.08330  0.57590  1.0000 0.1394404237
H   H39       1.0  0.81780  0.41670  0.07590  1.0000 0.1394404237
H   H40       1.0  0.18220  0.91670  0.42410  1.0000 0.1394404237
H   H41       1.0  0.25040  0.45260  0.80200  1.0000 0.1093957347
H   H42       1.0  0.74960  0.95260  0.69800  1.0000 0.1093957347
H   H43       1.0  0.74960  0.54740  0.19800  1.0000 0.1093957347
H   H44       1.0  0.25040  0.04740  0.30200  1.0000 0.1093957347
H   H45       1.0  0.28340  0.50420  0.92790  1.0000 0.1015233462
H   H46       1.0  0.71660  0.00420  0.57210  1.0000 0.1015233462
H   H47       1.0  0.71660  0.49580  0.07210  1.0000 0.1015233462
H   H48       1.0  0.28340  0.99580  0.42790  1.0000 0.1015233462
H   H49       1.0  0.80550  0.99090  0.91620  1.0000 0.1093957347
H   H50       1.0  0.19450  0.49090  0.58380  1.0000 0.1093957347
H   H51       1.0  0.19450  0.00910  0.08380  1.0000 0.1093957347
H   H52       1.0  0.80550  0.50910  0.41620  1.0000 0.1093957347
H   H53       1.0  0.73550  0.07860  0.80690  1.0000 0.1015233462
H   H54       1.0  0.26450  0.57860  0.69310  1.0000 0.1015233462
H   H55       1.0  0.26450  0.92140  0.19310  1.0000 0.1015233462
H   H56       1.0  0.73550  0.42140  0.30690  1.0000 0.1015233462
H   H57       1.0  0.63360  0.00040  0.79870  1.0000 0.1474667123
H   H58       1.0  0.36640  0.50040  0.70130  1.0000 0.1474667123
H   H59       1.0  0.36640  0.99960  0.20130  1.0000 0.1474667123
H   H60       1.0  0.63360  0.49960  0.29870  1.0000 0.1474667123
H   H61       1.0  0.70430  0.91290  0.91320  1.0000 0.1394404237
H   H62       1.0  0.29570  0.41290  0.58680  1.0000 0.1394404237
H   H63       1.0  0.29570  0.08710  0.08680  1.0000 0.1394404237
H   H64       1.0  0.70430  0.58710  0.41320  1.0000 0.1394404237
H   H65       1.0  0.56380  0.90260  0.82140  1.0000 0.1324340775
H   H66       1.0  0.43620  0.40260  0.67860  1.0000 0.1324340775
H   H67       1.0  0.43620  0.09740  0.17860  1.0000 0.1324340775
H   H68       1.0  0.56380  0.59740  0.32140  1.0000 0.1324340775
H   H69       1.0  0.54170  0.91860  0.87200  1.0000 0.1324340775
H   H70       1.0  0.45830  0.41860  0.62800  1.0000 0.1324340775
H   H71       1.0  0.45830  0.08140  0.12800  1.0000 0.1324340775
H   H72       1.0  0.54170  0.58140  0.37200  1.0000 0.1324340775
H   H73       1.0  0.67860  0.61240  0.93130  1.0000 0.1394404237
H   H74       1.0  0.32140  0.11240  0.56870  1.0000 0.1324340775
H   H75       1.0  0.32140  0.38760  0.06870  1.0000 0.1394404237
H   H76       1.0  0.67860  0.88760  0.43130  1.0000 0.1394404237
H   H77       1.0  0.69980  0.59650  0.88050  1.0000 0.1394404237
H   H78       1.0  0.30020  0.09650  0.61950  1.0000 0.1394404237
H   H79       1.0  0.30020  0.40350  0.11950  1.0000 0.1324340775
H   H80       1.0  0.69980  0.90350  0.38050  1.0000 0.1324340775
H   H81       1.0  0.55220  0.58940  0.83320  1.0000 0.1394404237
H   H82       1.0  0.44780  0.08940  0.66680  1.0000 0.1394404237
H   H83       1.0  0.44780  0.41060  0.16680  1.0000 0.1394404237
H   H84       1.0  0.55220  0.91060  0.33320  1.0000 0.1394404237
H   H85       1.0  0.59680  0.52490  0.95890  1.0000 0.1394404237
H   H86       1.0  0.40320  0.02490  0.54110  1.0000 0.1394404237
H   H87       1.0  0.40320  0.47510  0.04110  1.0000 0.1394404237
H   H88       1.0  0.59680  0.97510  0.45890  1.0000 0.1394404237
H   H89       1.0  0.45220  0.50960  0.82900  1.0000 0.1093957347
H   H90       1.0  0.54780  0.00960  0.67100  1.0000 0.1093957347
H   H91       1.0  0.54780  0.49040  0.17100  1.0000 0.1093957347
H   H92       1.0  0.45220  0.99040  0.32900  1.0000 0.1093957347
H   H93       1.0  0.49710  0.44500  0.95100  1.0000 0.1093957347
H   H94       1.0  0.50290  0.94500  0.54900  1.0000 0.1093957347
H   H95       1.0  0.50290  0.55500  0.04900  1.0000 0.1093957347
H   H96       1.0  0.49710  0.05500  0.45100  1.0000 0.1093957347
H   H97       1.0  0.78100  0.18800  0.78180  1.0000 0.1015233462
H   H98       1.0  0.21900  0.68800  0.71820  1.0000 0.1015233462
H   H99       1.0  0.21900  0.81200  0.21820  1.0000 0.1015233462
H   H100      1.0  0.78100  0.31200  0.28180  1.0000 0.1015233462
H   H101      1.0  0.79360  0.26950  0.90120  1.0000 0.1093957347
H   H102      1.0  0.20640  0.76950  0.59880  1.0000 0.1093957347
H   H103      1.0  0.20640  0.73050  0.09880  1.0000 0.1093957347
H   H104      1.0  0.79360  0.23050  0.40120  1.0000 0.1093957347
H   H105      1.0  0.70550  0.27920  0.75560  1.0000 0.1474667123
H   H106      1.0  0.29450  0.77920  0.74440  1.0000 0.1474667123
H   H107      1.0  0.29450  0.72080  0.24440  1.0000 0.1474667123
H   H108      1.0  0.70550  0.22080  0.25560  1.0000 0.1474667123
H   H109      1.0  0.71880  0.36410  0.87880  1.0000 0.1394404237
H   H110      1.0  0.28120  0.86410  0.62120  1.0000 0.1394404237
H   H111      1.0  0.28120  0.63590  0.12120  1.0000 0.1394404237
H   H112      1.0  0.71880  0.13590  0.37880  1.0000 0.1394404237
H   H113      1.0  0.61340  0.37710  0.77730  1.0000 0.1324340775
H   H114      1.0  0.38660  0.87710  0.72270  1.0000 0.1324340775
H   H115      1.0  0.38660  0.62290  0.22270  1.0000 0.1324340775
H   H116      1.0  0.61340  0.12290  0.27730  1.0000 0.1324340775
H   H117      1.0  0.62700  0.41450  0.82430  1.0000 0.1214471618
H   H118      1.0  0.37300  0.91450  0.67570  1.0000 0.1324340775
H   H119      1.0  0.37300  0.58550  0.17570  1.0000 0.1324340775
H   H120      1.0  0.62700  0.08550  0.32430  1.0000 0.1214471618
H   H121      1.0  0.86000  0.59710  0.68640  1.0000 0.1324340775
H   H122      1.0  0.14000  0.09710  0.81360  1.0000 0.1324340775
H   H123      1.0  0.14000  0.40290  0.31360  1.0000 0.1324340775
H   H124      1.0  0.86000  0.90290  0.18640  1.0000 0.1324340775
H   H125      1.0  0.87460  0.63360  0.73360  1.0000 0.1324340775
H   H126      1.0  0.12540  0.13360  0.76640  1.0000 0.1394404237
H   H127      1.0  0.12540  0.36640  0.26640  1.0000 0.1394404237
H   H128      1.0  0.87460  0.86640  0.23360  1.0000 0.1324340775
H   H129      1.0  0.88120  0.73340  0.67450  1.0000 0.1394404237
H   H130      1.0  0.11880  0.23340  0.82550  1.0000 0.1394404237
H   H131      1.0  0.11880  0.26660  0.32550  1.0000 0.1394404237
H   H132      1.0  0.88120  0.76660  0.17450  1.0000 0.1394404237
H   H133      1.0  0.67770  0.65050  0.71480  1.0000 0.1324340775
H   H134      1.0  0.32230  0.15050  0.78520  1.0000 0.1324340775
H   H135      1.0  0.32230  0.34950  0.28520  1.0000 0.1324340775
H   H136      1.0  0.67770  0.84950  0.21480  1.0000 0.1324340775
H   H137      1.0  0.81100  0.82500  0.64480  1.0000 0.1015233462
H   H138      1.0  0.18900  0.32500  0.85520  1.0000 0.1015233462
H   H139      1.0  0.18900  0.17500  0.35520  1.0000 0.1015233462
H   H140      1.0  0.81100  0.67500  0.14480  1.0000 0.1015233462
H   H141      1.0  0.61330  0.74590  0.68550  1.0000 0.1093957347
H   H142      1.0  0.38670  0.24590  0.81450  1.0000 0.1093957347
H   H143      1.0  0.38670  0.25410  0.31450  1.0000 0.1093957347
H   H144      1.0  0.61330  0.75410  0.18550  1.0000 0.1093957347
H   H145      1.0  0.97240  0.18360  0.96680  1.0000 0.1015233462
H   H146      1.0  0.02760  0.68360  0.53320  1.0000 0.1015233462
H   H147      1.0  0.02760  0.81640  0.03320  1.0000 0.1015233462
H   H148      1.0  0.97240  0.31640  0.46680  1.0000 0.1015233462
H   H149      1.0  0.95560  0.27220  0.84920  1.0000 0.1093957347
H   H150      1.0  0.04440  0.77220  0.65080  1.0000 0.1093957347
H   H151      1.0  0.04440  0.72780  0.15080  1.0000 0.1093957347
H   H152      1.0  0.95560  0.22780  0.34920  1.0000 0.1093957347
H   H153      1.0  0.04670  0.27530  0.99440  1.0000 0.1474667123
H   H154      1.0  0.95330  0.77530  0.50560  1.0000 0.1474667123
H   H155      1.0  0.95330  0.72470  0.00560  1.0000 0.1474667123
H   H156      1.0  0.04670  0.22470  0.49440  1.0000 0.1474667123
H   H157      1.0  0.02700  0.36660  0.87400  1.0000 0.1394404237
H   H158      1.0  0.97300  0.86660  0.62600  1.0000 0.1394404237
H   H159      1.0  0.97300  0.63340  0.12600  1.0000 0.1394404237
H   H160      1.0  0.02700  0.13340  0.37400  1.0000 0.1394404237
H   H161      1.0  0.13410  0.37580  0.97500  1.0000 0.1324340775
H   H162      1.0  0.86590  0.87580  0.52500  1.0000 0.1324340775
H   H163      1.0  0.86590  0.62420  0.02500  1.0000 0.1324340775
H   H164      1.0  0.13410  0.12420  0.47500  1.0000 0.1324340775
H   H165      1.0  0.11880  0.41540  0.92880  1.0000 0.1214471618
H   H166      1.0  0.88120  0.91540  0.57120  1.0000 0.1214471618
H   H167      1.0  0.88120  0.58460  0.07120  1.0000 0.1214471618
H   H168      1.0  0.11880  0.08460  0.42880  1.0000 0.1214471618
H   H169      1.0  0.55470  0.32840  0.89690  1.0000 0.1015233462
H   H170      1.0  0.44530  0.82840  0.60310  1.0000 0.1015233462
H   H171      1.0  0.44530  0.67160  0.10310  1.0000 0.1015233462
H   H172      1.0  0.55470  0.17160  0.39690  1.0000 0.1015233462
H   H173      1.0  0.35910  0.24010  0.93310  1.0000 0.1093957347
H   H174      1.0  0.64090  0.74010  0.56690  1.0000 0.1093957347
H   H175      1.0  0.64090  0.75990  0.06690  1.0000 0.1093957347
H   H176      1.0  0.35910  0.25990  0.43310  1.0000 0.1093957347
H   H177      1.0  0.62710  0.23770  0.92580  1.0000 0.1394404237
H   H178      1.0  0.37290  0.73770  0.57420  1.0000 0.1394404237
H   H179      1.0  0.37290  0.76230  0.07420  1.0000 0.1394404237
H   H180      1.0  0.62710  0.26230  0.42580  1.0000 0.1394404237
H   H181      1.0  0.42590  0.14600  0.96170  1.0000 0.1324340775
H   H182      1.0  0.57410  0.64600  0.53830  1.0000 0.1324340775
H   H183      1.0  0.57410  0.85400  0.03830  1.0000 0.1324340775
H   H184      1.0  0.42590  0.35400  0.46170  1.0000 0.1324340775
H   H185      1.0  0.62360  0.13500  0.98340  1.0000 0.1324340775
H   H186      1.0  0.37640  0.63500  0.51660  1.0000 0.1324340775
H   H187      1.0  0.37640  0.86500  0.01660  1.0000 0.1324340775
H   H188      1.0  0.62360  0.36500  0.48340  1.0000 0.1324340775
H   H189      1.0  0.61320  0.10070  0.93530  1.0000 0.1324340775
H   H190      1.0  0.38680  0.60070  0.56470  1.0000 0.1324340775
H   H191      1.0  0.38680  0.89930  0.06470  1.0000 0.1324340775
H   H192      1.0  0.61320  0.39930  0.43530  1.0000 0.1324340775
C   C1        1.0  0.99700  0.00209  0.85001  1.0000 0.0788835974
C   C2        1.0  0.00300  0.50209  0.64999  1.0000 0.0788835974
C   C3        1.0  0.00300  0.99791  0.14999  1.0000 0.0788835974
C   C4        1.0  0.99700  0.49791  0.35001  1.0000 0.0788835974
C   C5        1.0  0.01717  0.03553  0.92222  1.0000 0.0719799159
C   C6        1.0  0.98283  0.53553  0.57778  1.0000 0.0719799159
C   C7        1.0  0.98283  0.96447  0.07778  1.0000 0.0719799159
C   C8        1.0  0.01717  0.46447  0.42222  1.0000 0.0719799159
C   C9        1.0  0.05930  0.95695  0.85194  1.0000 -0.2087368815
C   C10       1.0  0.94070  0.45695  0.64806  1.0000 -0.2087368815
C   C11       1.0  0.94070  0.04305  0.14806  1.0000 -0.2087368815
C   C12       1.0  0.05930  0.54305  0.35194  1.0000 -0.2087368815
C   C13       1.0  0.08054  0.99126  0.92701  1.0000 -0.2028291428
C   C14       1.0  0.91946  0.49126  0.57299  1.0000 -0.2028291428
C   C15       1.0  0.91946  0.00874  0.07299  1.0000 -0.2028291428
C   C16       1.0  0.08054  0.50874  0.42701  1.0000 -0.2028291428
C   C17       1.0  0.10412  0.95131  0.89095  1.0000 0.1956855065
C   C18       1.0  0.89588  0.45131  0.60905  1.0000 0.1956855065
C   C19       1.0  0.89588  0.04869  0.10905  1.0000 0.1956855065
C   C20       1.0  0.10412  0.54869  0.39095  1.0000 0.1956855065
C   C21       1.0  0.17431  0.90263  0.89508  1.0000 -0.2790102828
C   C22       1.0  0.82569  0.40263  0.60492  1.0000 -0.2790102828
C   C23       1.0  0.82569  0.09737  0.10492  1.0000 -0.2790102828
C   C24       1.0  0.17431  0.59737  0.39508  1.0000 -0.2790102828
C   C25       1.0  0.15192  0.82905  0.88493  1.0000 -0.049674528
C   C26       1.0  0.84808  0.32905  0.61507  1.0000 -0.049674528
C   C27       1.0  0.84808  0.17095  0.11507  1.0000 -0.049674528
C   C28       1.0  0.15192  0.67095  0.38493  1.0000 -0.049674528
C   C29       1.0  0.16918  0.79718  0.84497  1.0000 0.1015233462
C   C30       1.0  0.83082  0.29718  0.65503  1.0000 0.1015233462
C   C31       1.0  0.83082  0.20282  0.15503  1.0000 0.1015233462
C   C32       1.0  0.16918  0.70282  0.34497  1.0000 0.1015233462
C   C33       1.0  0.11127  0.78843  0.91487  1.0000 0.1093957347
C   C34       1.0  0.88873  0.28843  0.58513  1.0000 0.1093957347
C   C35       1.0  0.88873  0.21157  0.08513  1.0000 0.1093957347
C   C36       1.0  0.11127  0.71157  0.41487  1.0000 0.1093957347
C   C37       1.0  0.14787  0.72994  0.83615  1.0000 0.1015233462
C   C38       1.0  0.85213  0.22994  0.66385  1.0000 0.1015233462
C   C39       1.0  0.85213  0.27006  0.16385  1.0000 0.1015233462
C   C40       1.0  0.14787  0.77006  0.33615  1.0000 0.1015233462
C   C41       1.0  0.09021  0.72130  0.90602  1.0000 0.1015233462
C   C42       1.0  0.90979  0.22130  0.59398  1.0000 0.1015233462
C   C43       1.0  0.90979  0.27870  0.09398  1.0000 0.1015233462
C   C44       1.0  0.09021  0.77870  0.40602  1.0000 0.1015233462
C   C45       1.0  0.10753  0.68940  0.86579  1.0000 -0.049674528
C   C46       1.0  0.89247  0.18940  0.63421  1.0000 -0.049674528
C   C47       1.0  0.89247  0.31060  0.13421  1.0000 -0.049674528
C   C48       1.0  0.10753  0.81060  0.36579  1.0000 -0.049674528
C   C49       1.0  0.08404  0.61571  0.85533  1.0000 -0.2790102828
C   C50       1.0  0.91596  0.11571  0.64467  1.0000 -0.2790102828
C   C51       1.0  0.91596  0.38429  0.14467  1.0000 -0.2790102828
C   C52       1.0  0.08404  0.88429  0.35533  1.0000 -0.2790102828
C   C53       1.0  0.15305  0.56570  0.85885  1.0000 0.1893749926
C   C54       1.0  0.84695  0.06570  0.64115  1.0000 0.1893749926
C   C55       1.0  0.84695  0.43430  0.14115  1.0000 0.1893749926
C   C56       1.0  0.15305  0.93430  0.35885  1.0000 0.1893749926
C   C57       1.0  0.17622  0.52697  0.82231  1.0000 -0.2028291428
C   C58       1.0  0.82378  0.02697  0.67769  1.0000 -0.2028291428
C   C59       1.0  0.82378  0.47303  0.17769  1.0000 -0.2028291428
C   C60       1.0  0.17622  0.97303  0.32231  1.0000 -0.2028291428
C   C61       1.0  0.19499  0.55676  0.89855  1.0000 -0.2087368815
C   C62       1.0  0.80501  0.05676  0.60145  1.0000 -0.2087368815
C   C63       1.0  0.80501  0.44324  0.10145  1.0000 -0.2087368815
C   C64       1.0  0.19499  0.94324  0.39855  1.0000 -0.2087368815
C   C65       1.0  0.23630  0.47953  0.82714  1.0000 0.0788835974
C   C66       1.0  0.76370  0.97953  0.67286  1.0000 0.0788835974
C   C67       1.0  0.76370  0.52047  0.17286  1.0000 0.0788835974
C   C68       1.0  0.23630  0.02047  0.32714  1.0000 0.0788835974
C   C69       1.0  0.25511  0.50920  0.90051  1.0000 0.0788835974
C   C70       1.0  0.74489  0.00920  0.59949  1.0000 0.0788835974
C   C71       1.0  0.74489  0.49080  0.09949  1.0000 0.0788835974
C   C72       1.0  0.25511  0.99080  0.40051  1.0000 0.0719799159
C   C73       1.0  0.76850  0.99480  0.89228  1.0000 0.0719799159
C   C74       1.0  0.23150  0.49480  0.60772  1.0000 0.0719799159
C   C75       1.0  0.23150  0.00520  0.10772  1.0000 0.0719799159
C   C76       1.0  0.76850  0.50520  0.39228  1.0000 0.0719799159
C   C77       1.0  0.72880  0.04470  0.82951  1.0000 0.0788835974
C   C78       1.0  0.27120  0.54470  0.67049  1.0000 0.0788835974
C   C79       1.0  0.27120  0.95530  0.17049  1.0000 0.0788835974
C   C80       1.0  0.72880  0.45530  0.32951  1.0000 0.0788835974
C   C81       1.0  0.66680  0.99840  0.82441  1.0000 -0.2028291428
C   C82       1.0  0.33320  0.49840  0.67559  1.0000 -0.2028291428
C   C83       1.0  0.33320  0.00160  0.17559  1.0000 -0.2028291428
C   C84       1.0  0.66680  0.50160  0.32441  1.0000 -0.2028291428
C   C85       1.0  0.70820  0.94740  0.89070  1.0000 -0.2087368815
C   C86       1.0  0.29180  0.44740  0.60930  1.0000 -0.2087368815
C   C87       1.0  0.29180  0.05260  0.10930  1.0000 -0.2087368815
C   C88       1.0  0.70820  0.55260  0.39070  1.0000 -0.2087368815
C   C89       1.0  0.65396  0.94999  0.85672  1.0000 0.1893749926
C   C90       1.0  0.34604  0.44999  0.64328  1.0000 0.1893749926
C   C91       1.0  0.34604  0.05001  0.14328  1.0000 0.1893749926
C   C92       1.0  0.65396  0.55001  0.35672  1.0000 0.1893749926
C   C93       1.0  0.58394  0.90154  0.85251  1.0000 -0.2790102828
C   C94       1.0  0.41606  0.40154  0.64749  1.0000 -0.2790102828
C   C95       1.0  0.41606  0.09846  0.14749  1.0000 -0.2790102828
C   C96       1.0  0.58394  0.59846  0.35251  1.0000 -0.2790102828
C   C97       1.0  0.60350  0.82770  0.86502  1.0000 -0.0591457284
C   C98       1.0  0.39650  0.32770  0.63498  1.0000 -0.0591457284
C   C99       1.0  0.39650  0.17230  0.13498  1.0000 -0.0591457284
C   C100      1.0  0.60350  0.67230  0.36502  1.0000 -0.0591457284
C   C101      1.0  0.59598  0.80258  0.90797  1.0000 0.1015233462
C   C102      1.0  0.40402  0.30258  0.59203  1.0000 0.1015233462
C   C103      1.0  0.40402  0.19742  0.09203  1.0000 0.1015233462
C   C104      1.0  0.59598  0.69742  0.40797  1.0000 0.1015233462
C   C105      1.0  0.63009  0.78102  0.83371  1.0000 0.1214471618
C   C106      1.0  0.36991  0.28102  0.66629  1.0000 0.1214471618
C   C107      1.0  0.36991  0.21898  0.16629  1.0000 0.1214471618
C   C108      1.0  0.63009  0.71898  0.33371  1.0000 0.1214471618
C   C109      1.0  0.61184  0.73459  0.91918  1.0000 0.1093957347
C   C110      1.0  0.38816  0.23459  0.58082  1.0000 0.1093957347
C   C111      1.0  0.38816  0.26541  0.08082  1.0000 0.1093957347
C   C112      1.0  0.61184  0.76541  0.41918  1.0000 0.1093957347
C   C113      1.0  0.64663  0.71310  0.84490  1.0000 0.0933145403
C   C114      1.0  0.35337  0.21310  0.65510  1.0000 0.0933145403
C   C115      1.0  0.35337  0.28690  0.15510  1.0000 0.0933145403
C   C116      1.0  0.64663  0.78690  0.34490  1.0000 0.0933145403
C   C117      1.0  0.63811  0.68791  0.88781  1.0000 -0.049674528
C   C118      1.0  0.36189  0.18791  0.61219  1.0000 -0.049674528
C   C119      1.0  0.36189  0.31209  0.11219  1.0000 -0.049674528
C   C120      1.0  0.63811  0.81209  0.38781  1.0000 -0.049674528
C   C121      1.0  0.65789  0.61349  0.90025  1.0000 -0.2790102828
C   C122      1.0  0.34211  0.11349  0.59975  1.0000 -0.2790102828
C   C123      1.0  0.34211  0.38651  0.09975  1.0000 -0.2790102828
C   C124      1.0  0.65789  0.88651  0.40025  1.0000 -0.2790102828
C   C125      1.0  0.58818  0.56509  0.89651  1.0000 0.1893749926
C   C126      1.0  0.41182  0.06509  0.60349  1.0000 0.1893749926
C   C127      1.0  0.41182  0.43491  0.10349  1.0000 0.1893749926
C   C128      1.0  0.58818  0.93491  0.39651  1.0000 0.1893749926
C   C129      1.0  0.54240  0.55990  0.85789  1.0000 -0.2028291428
C   C130      1.0  0.45760  0.05990  0.64211  1.0000 -0.2028291428
C   C131      1.0  0.45760  0.44010  0.14211  1.0000 -0.2028291428
C   C132      1.0  0.54240  0.94010  0.35789  1.0000 -0.2028291428
C   C133      1.0  0.56865  0.52189  0.93141  1.0000 -0.2087368815
C   C134      1.0  0.43135  0.02189  0.56859  1.0000 -0.2028291428
C   C135      1.0  0.43135  0.47811  0.06859  1.0000 -0.2028291428
C   C136      1.0  0.56865  0.97811  0.43141  1.0000 -0.2028291428
C   C137      1.0  0.48310  0.51205  0.85566  1.0000 0.0719799159
C   C138      1.0  0.51690  0.01205  0.64434  1.0000 0.0719799159
C   C139      1.0  0.51690  0.48795  0.14434  1.0000 0.0719799159
C   C140      1.0  0.48310  0.98795  0.35566  1.0000 0.0719799159
C   C141      1.0  0.50868  0.47455  0.92658  1.0000 0.0788835974
C   C142      1.0  0.49132  0.97455  0.57342  1.0000 0.0788835974
C   C143      1.0  0.49132  0.52545  0.07342  1.0000 0.0788835974
C   C144      1.0  0.50868  0.02545  0.42658  1.0000 0.0788835974
C   C145      1.0  0.76815  0.22436  0.80181  1.0000 0.0788835974
C   C146      1.0  0.23185  0.72436  0.69819  1.0000 0.0788835974
C   C147      1.0  0.23185  0.77564  0.19819  1.0000 0.0788835974
C   C148      1.0  0.76815  0.27564  0.30181  1.0000 0.0788835974
C   C149      1.0  0.77555  0.27167  0.87107  1.0000 0.0788835974
C   C150      1.0  0.22445  0.77167  0.62893  1.0000 0.0788835974
C   C151      1.0  0.22445  0.72833  0.12893  1.0000 0.0788835974
C   C152      1.0  0.77555  0.22833  0.37107  1.0000 0.0788835974
C   C153      1.0  0.72303  0.27878  0.78577  1.0000 -0.1892314538
C   C154      1.0  0.27697  0.77878  0.71423  1.0000 -0.1892314538
C   C155      1.0  0.27697  0.72122  0.21423  1.0000 -0.1892314538
C   C156      1.0  0.72303  0.22122  0.28577  1.0000 -0.1892314538
C   C157      1.0  0.73071  0.32855  0.85795  1.0000 -0.2087368815
C   C158      1.0  0.26929  0.82855  0.64205  1.0000 -0.2087368815
C   C159      1.0  0.26929  0.67145  0.14205  1.0000 -0.2087368815
C   C160      1.0  0.73071  0.17145  0.35795  1.0000 -0.2087368815
C   C161      1.0  0.70350  0.33311  0.81435  1.0000 0.1893749926
C   C162      1.0  0.29650  0.83311  0.68565  1.0000 0.1893749926
C   C163      1.0  0.29650  0.66689  0.18565  1.0000 0.1893749926
C   C164      1.0  0.70350  0.16689  0.31435  1.0000 0.1893749926
C   C165      1.0  0.65410  0.39422  0.79844  1.0000 -0.2790102828
C   C166      1.0  0.34590  0.89422  0.70156  1.0000 -0.2790102828
C   C167      1.0  0.34590  0.60578  0.20156  1.0000 -0.2790102828
C   C168      1.0  0.65410  0.10578  0.29844  1.0000 -0.2790102828
C   C169      1.0  0.70110  0.45093  0.77580  1.0000 -0.0591457284
C   C170      1.0  0.29890  0.95093  0.72420  1.0000 -0.0591457284
C   C171      1.0  0.29890  0.54907  0.22420  1.0000 -0.0591457284
C   C172      1.0  0.70110  0.04907  0.27580  1.0000 -0.0591457284
C   C173      1.0  0.74770  0.49650  0.79999  1.0000 0.1015233462
C   C174      1.0  0.25230  0.99650  0.70001  1.0000 0.1015233462
C   C175      1.0  0.25230  0.50350  0.20001  1.0000 0.1015233462
C   C176      1.0  0.74770  0.00350  0.29999  1.0000 0.1015233462
C   C177      1.0  0.69878  0.46148  0.73031  1.0000 0.1093957347
C   C178      1.0  0.30122  0.96148  0.76969  1.0000 0.1093957347
C   C179      1.0  0.30122  0.53852  0.26969  1.0000 0.1093957347
C   C180      1.0  0.69878  0.03852  0.23031  1.0000 0.1093957347
C   C181      1.0  0.78890  0.54944  0.78022  1.0000 0.1093957347
C   C182      1.0  0.21110  0.04944  0.71978  1.0000 0.1093957347
C   C183      1.0  0.21110  0.45056  0.21978  1.0000 0.1093957347
C   C184      1.0  0.78890  0.95056  0.28022  1.0000 0.1093957347
C   C185      1.0  0.73964  0.51466  0.71075  1.0000 0.1015233462
C   C186      1.0  0.26036  0.01466  0.78925  1.0000 0.1015233462
C   C187      1.0  0.26036  0.48534  0.28925  1.0000 0.1015233462
C   C188      1.0  0.73964  0.98534  0.21075  1.0000 0.1015233462
C   C189      1.0  0.78664  0.56051  0.73488  1.0000 -0.0653842169
C   C190      1.0  0.21336  0.06051  0.76512  1.0000 -0.0591457284
C   C191      1.0  0.21336  0.43949  0.26512  1.0000 -0.0591457284
C   C192      1.0  0.78664  0.93949  0.23488  1.0000 -0.0591457284
C   C193      1.0  0.83327  0.61746  0.71242  1.0000 -0.2704586157
C   C194      1.0  0.16673  0.11746  0.78758  1.0000 -0.2704586157
C   C195      1.0  0.16673  0.38254  0.28758  1.0000 -0.2704586157
C   C196      1.0  0.83327  0.88254  0.21242  1.0000 -0.2704586157
C   C197      1.0  0.78682  0.67958  0.69677  1.0000 0.1893749926
C   C198      1.0  0.21318  0.17958  0.80323  1.0000 0.1893749926
C   C199      1.0  0.21318  0.32042  0.30323  1.0000 0.1893749926
C   C200      1.0  0.78682  0.82042  0.19677  1.0000 0.1893749926
C   C201      1.0  0.82559  0.73399  0.67646  1.0000 -0.2028291428
C   C202      1.0  0.17441  0.23399  0.82354  1.0000 -0.2087368815
C   C203      1.0  0.17441  0.26601  0.32354  1.0000 -0.2087368815
C   C204      1.0  0.82559  0.76601  0.17646  1.0000 -0.2087368815
C   C205      1.0  0.70680  0.68566  0.70021  1.0000 -0.1892314538
C   C206      1.0  0.29320  0.18566  0.79979  1.0000 -0.1892314538
C   C207      1.0  0.29320  0.31434  0.29979  1.0000 -0.1892314538
C   C208      1.0  0.70680  0.81434  0.20021  1.0000 -0.1892314538
C   C209      1.0  0.78321  0.78888  0.65918  1.0000 0.0719799159
C   C210      1.0  0.21679  0.28888  0.84082  1.0000 0.0719799159
C   C211      1.0  0.21679  0.21112  0.34082  1.0000 0.0719799159
C   C212      1.0  0.78321  0.71112  0.15918  1.0000 0.0719799159
C   C213      1.0  0.66858  0.74293  0.68253  1.0000 0.0788835974
C   C214      1.0  0.33142  0.24293  0.81747  1.0000 0.0788835974
C   C215      1.0  0.33142  0.25707  0.31747  1.0000 0.0788835974
C   C216      1.0  0.66858  0.75707  0.18253  1.0000 0.0788835974
C   C217      1.0  0.98368  0.22139  0.94753  1.0000 0.0788835974
C   C218      1.0  0.01632  0.72139  0.55247  1.0000 0.0788835974
C   C219      1.0  0.01632  0.77861  0.05247  1.0000 0.0788835974
C   C220      1.0  0.98368  0.27861  0.44753  1.0000 0.0788835974
C   C221      1.0  0.97365  0.27292  0.87937  1.0000 0.0719799159
C   C222      1.0  0.02635  0.77292  0.62063  1.0000 0.0719799159
C   C223      1.0  0.02635  0.72708  0.12063  1.0000 0.0719799159
C   C224      1.0  0.97365  0.22708  0.37937  1.0000 0.0719799159
C   C225      1.0  0.02807  0.27626  0.96437  1.0000 -0.1892314538
C   C226      1.0  0.97193  0.77626  0.53563  1.0000 -0.1892314538
C   C227      1.0  0.97193  0.72374  0.03563  1.0000 -0.1892314538
C   C228      1.0  0.02807  0.22374  0.46437  1.0000 -0.1892314538
C   C229      1.0  0.01670  0.32942  0.89389  1.0000 -0.2087368815
C   C230      1.0  0.98330  0.82942  0.60611  1.0000 -0.2087368815
C   C231      1.0  0.98330  0.67058  0.10611  1.0000 -0.2087368815
C   C232      1.0  0.01670  0.17058  0.39389  1.0000 -0.2087368815
C   C233      1.0  0.04492  0.33201  0.93738  1.0000 0.183989734
C   C234      1.0  0.95508  0.83201  0.56262  1.0000 0.183989734
C   C235      1.0  0.95508  0.66799  0.06262  1.0000 0.183989734
C   C236      1.0  0.04492  0.16799  0.43738  1.0000 0.183989734
C   C237      1.0  0.09262  0.39305  0.95432  1.0000 -0.2790102828
C   C238      1.0  0.90738  0.89305  0.54568  1.0000 -0.2790102828
C   C239      1.0  0.90738  0.60695  0.04568  1.0000 -0.2790102828
C   C240      1.0  0.09262  0.10695  0.45432  1.0000 -0.2790102828
C   C241      1.0  0.04377  0.44713  0.97822  1.0000 -0.0653842169
C   C242      1.0  0.95623  0.94713  0.52178  1.0000 -0.0591457284
C   C243      1.0  0.95623  0.55287  0.02178  1.0000 -0.0653842169
C   C244      1.0  0.04377  0.05287  0.47822  1.0000 -0.0653842169
C   C245      1.0  0.04380  0.45362  0.02402  1.0000 0.1093957347
C   C246      1.0  0.95620  0.95362  0.47598  1.0000 0.1093957347
C   C247      1.0  0.95620  0.54638  0.97598  1.0000 0.1093957347
C   C248      1.0  0.04380  0.04638  0.52402  1.0000 0.1093957347
C   C249      1.0  0.00093  0.50505  0.04505  1.0000 0.1093957347
C   C250      1.0  0.99907  0.00505  0.45495  1.0000 0.1093957347
C   C251      1.0  0.99907  0.49495  0.95495  1.0000 0.1093957347
C   C252      1.0  0.00093  0.99495  0.54505  1.0000 0.1093957347
C   C253      1.0  0.52785  0.29062  0.91014  1.0000 0.0719799159
C   C254      1.0  0.47215  0.79062  0.58986  1.0000 0.0719799159
C   C255      1.0  0.47215  0.70938  0.08986  1.0000 0.0719799159
C   C256      1.0  0.52785  0.20938  0.41014  1.0000 0.0719799159
C   C257      1.0  0.41467  0.23925  0.93093  1.0000 0.0788835974
C   C258      1.0  0.58533  0.73925  0.56907  1.0000 0.0788835974
C   C259      1.0  0.58533  0.76075  0.06907  1.0000 0.0788835974
C   C260      1.0  0.41467  0.26075  0.43093  1.0000 0.0788835974
C   C261      1.0  0.57149  0.23639  0.92713  1.0000 -0.2087368815
C   C262      1.0  0.42851  0.73639  0.57287  1.0000 -0.2087368815
C   C263      1.0  0.42851  0.76361  0.07287  1.0000 -0.2087368815
C   C264      1.0  0.57149  0.26361  0.42713  1.0000 -0.2087368815
C   C265      1.0  0.45417  0.18281  0.94832  1.0000 -0.1892314538
C   C266      1.0  0.54583  0.68281  0.55168  1.0000 -0.1892314538
C   C267      1.0  0.54583  0.81719  0.05168  1.0000 -0.1892314538
C   C268      1.0  0.45417  0.31719  0.44832  1.0000 -0.1892314538
C   C269      1.0  0.53470  0.17996  0.94618  1.0000 0.1893749926
C   C270      1.0  0.46530  0.67996  0.55382  1.0000 0.1893749926
C   C271      1.0  0.46530  0.82004  0.05382  1.0000 0.1893749926
C   C272      1.0  0.53470  0.32004  0.44618  1.0000 0.1893749926
C   C273      1.0  0.58428  0.11837  0.96130  1.0000 -0.2704586157
C   C274      1.0  0.41572  0.61837  0.53870  1.0000 -0.2704586157
C   C275      1.0  0.41572  0.88163  0.03870  1.0000 -0.2704586157
C   C276      1.0  0.58428  0.38163  0.46130  1.0000 -0.2704586157
C   C277      1.0  0.53990  0.05845  0.98162  1.0000 -0.0653842169
C   C278      1.0  0.46010  0.55845  0.51838  1.0000 -0.0653842169
C   C279      1.0  0.46010  0.94155  0.01838  1.0000 -0.0653842169
C   C280      1.0  0.53990  0.44155  0.48162  1.0000 -0.0653842169
C   C281      1.0  0.49380  0.01428  0.95596  1.0000 0.1015233462
C   C282      1.0  0.50620  0.51428  0.54404  1.0000 0.1015233462
C   C283      1.0  0.50620  0.98572  0.04404  1.0000 0.1015233462
C   C284      1.0  0.49380  0.48572  0.45596  1.0000 0.1015233462
C   C285      1.0  0.45485  0.95789  0.97356  1.0000 0.1214471618
C   C286      1.0  0.54515  0.45789  0.52644  1.0000 0.1093957347
C   C287      1.0  0.54515  0.04211  0.02644  1.0000 0.1093957347
C   C288      1.0  0.45485  0.54211  0.47356  1.0000 0.1093957347
N   N1        1.0  0.97547  0.04230  0.88384  1.0000 -0.2403151138
N   N2        1.0  0.02453  0.54230  0.61616  1.0000 -0.2403151138
N   N3        1.0  0.02453  0.95770  0.11616  1.0000 -0.2403151138
N   N4        1.0  0.97547  0.45770  0.38384  1.0000 -0.2403151138
N   N5        1.0  0.27600  0.46938  0.86577  1.0000 -0.2403151138
N   N6        1.0  0.72400  0.96938  0.63423  1.0000 -0.2403151138
N   N7        1.0  0.72400  0.53062  0.13423  1.0000 -0.2403151138
N   N8        1.0  0.27600  0.03062  0.36577  1.0000 -0.2403151138
N   N9        1.0  0.77899  0.04491  0.86345  1.0000 -0.2231304938
N   N10       1.0  0.22101  0.54491  0.63655  1.0000 -0.2231304938
N   N11       1.0  0.22101  0.95509  0.13655  1.0000 -0.2231304938
N   N12       1.0  0.77899  0.45509  0.36345  1.0000 -0.2231304938
N   N13       1.0  0.46594  0.46835  0.88900  1.0000 -0.2403151138
N   N14       1.0  0.53406  0.96835  0.61100  1.0000 -0.2403151138
N   N15       1.0  0.53406  0.53165  0.11100  1.0000 -0.2403151138
N   N16       1.0  0.46594  0.03165  0.38900  1.0000 -0.2403151138
N   N17       1.0  0.79460  0.21991  0.84368  1.0000 -0.2305409204
N   N18       1.0  0.20540  0.71991  0.65632  1.0000 -0.2305409204
N   N19       1.0  0.20540  0.78009  0.15632  1.0000 -0.2305409204
N   N20       1.0  0.79460  0.28009  0.34368  1.0000 -0.2305409204
N   N21       1.0  0.70519  0.79416  0.66157  1.0000 -0.2305409204
N   N22       1.0  0.29481  0.29416  0.83843  1.0000 -0.2305409204
N   N23       1.0  0.29481  0.20584  0.33843  1.0000 -0.2305409204
N   N24       1.0  0.70519  0.70584  0.16157  1.0000 -0.2305409204
N   N25       1.0  0.95610  0.21910  0.90561  1.0000 -0.2305409204
N   N26       1.0  0.04390  0.71910  0.59439  1.0000 -0.2305409204
N   N27       1.0  0.04390  0.78090  0.09439  1.0000 -0.2305409204
N   N28       1.0  0.95610  0.28090  0.40561  1.0000 -0.2305409204
N   N29       1.0  0.44947  0.29271  0.91134  1.0000 -0.2305409204
N   N30       1.0  0.55053  0.79271  0.58866  1.0000 -0.2305409204
N   N31       1.0  0.55053  0.70729  0.08866  1.0000 -0.2305409204
N   N32       1.0  0.44947  0.20729  0.41134  1.0000 -0.2305409204
N   N33       1.0  0.94365  0.12446  0.78116  1.0000 0.6792622997
N   N34       1.0  0.05635  0.62446  0.71884  1.0000 0.6792622997
N   N35       1.0  0.05635  0.87554  0.21884  1.0000 0.6792622997
N   N36       1.0  0.94365  0.37554  0.28116  1.0000 0.6792622997
N   N37       1.0  0.80614  0.11754  0.96645  1.0000 0.6742089584
N   N38       1.0  0.19386  0.61754  0.53355  1.0000 0.6742089584
N   N39       1.0  0.19386  0.88246  0.03355  1.0000 0.6742089584
N   N40       1.0  0.80614  0.38246  0.46645  1.0000 0.6742089584
N   N41       1.0  0.29939  0.38008  0.96727  1.0000 0.6876995905
N   N42       1.0  0.70061  0.88008  0.53273  1.0000 0.6876995905
N   N43       1.0  0.70061  0.61992  0.03273  1.0000 0.6876995905
N   N44       1.0  0.29939  0.11992  0.46727  1.0000 0.6876995905
N   N45       1.0  0.44494  0.38864  0.78451  1.0000 0.6792622997
N   N46       1.0  0.55506  0.88864  0.71549  1.0000 0.6792622997
N   N47       1.0  0.55506  0.61136  0.21549  1.0000 0.6792622997
N   N48       1.0  0.44494  0.11136  0.28451  1.0000 0.6792622997
O   O1        1.0  0.96688  0.16081  0.81327  1.0000 -0.4290088036
O   O2        1.0  0.03312  0.66081  0.68673  1.0000 -0.4290088036
O   O3        1.0  0.03312  0.83919  0.18673  1.0000 -0.4290088036
O   O4        1.0  0.96688  0.33919  0.31327  1.0000 -0.4290088036
O   O5        1.0  0.88205  0.09006  0.78470  1.0000 -0.4434137272
O   O6        1.0  0.11795  0.59006  0.71530  1.0000 -0.4434137272
O   O7        1.0  0.11795  0.90994  0.21530  1.0000 -0.4434137272
O   O8        1.0  0.88205  0.40994  0.28470  1.0000 -0.4434137272
O   O9        1.0  0.98305  0.12166  0.74692  1.0000 -0.3729596243
O   O10       1.0  0.01695  0.62166  0.75308  1.0000 -0.3729596243
O   O11       1.0  0.01695  0.87834  0.25308  1.0000 -0.3729596243
O   O12       1.0  0.98305  0.37834  0.24692  1.0000 -0.3729596243
O   O13       1.0  0.78346  0.15840  0.93669  1.0000 -0.4290088036
O   O14       1.0  0.21654  0.65840  0.56331  1.0000 -0.4290088036
O   O15       1.0  0.21654  0.84160  0.06331  1.0000 -0.4290088036
O   O16       1.0  0.78346  0.34160  0.43669  1.0000 -0.4290088036
O   O17       1.0  0.86847  0.08481  0.96101  1.0000 -0.4434137272
O   O18       1.0  0.13153  0.58481  0.53899  1.0000 -0.4434137272
O   O19       1.0  0.13153  0.91519  0.03899  1.0000 -0.4434137272
O   O20       1.0  0.86847  0.41519  0.46101  1.0000 -0.4434137272
O   O21       1.0  0.76684  0.10974  0.00013  1.0000 -0.3729596243
O   O22       1.0  0.23316  0.60974  0.49987  1.0000 -0.3729596243
O   O23       1.0  0.23316  0.89026  0.99987  1.0000 -0.3729596243
O   O24       1.0  0.76684  0.39026  0.50013  1.0000 -0.3729596243
O   O25       1.0  0.27581  0.34679  0.93313  1.0000 -0.4484115105
O   O26       1.0  0.72419  0.84679  0.56687  1.0000 -0.4551714764
O   O27       1.0  0.72419  0.65321  0.06687  1.0000 -0.4551714764
O   O28       1.0  0.27581  0.15321  0.43313  1.0000 -0.4551714764
O   O29       1.0  0.36105  0.41506  0.96471  1.0000 -0.4484115105
O   O30       1.0  0.63895  0.91506  0.53529  1.0000 -0.4484115105
O   O31       1.0  0.63895  0.58494  0.03529  1.0000 -0.4484115105
O   O32       1.0  0.36105  0.08494  0.46471  1.0000 -0.4484115105
O   O33       1.0  0.26097  0.37812  0.00197  1.0000 -0.3828413741
O   O34       1.0  0.73903  0.87812  0.49803  1.0000 -0.3828413741
O   O35       1.0  0.73903  0.62188  0.99803  1.0000 -0.3828413741
O   O36       1.0  0.26097  0.12188  0.50197  1.0000 -0.3828413741
O   O37       1.0  0.46795  0.35250  0.81715  1.0000 -0.4484115105
O   O38       1.0  0.53205  0.85250  0.68285  1.0000 -0.4484115105
O   O39       1.0  0.53205  0.64750  0.18285  1.0000 -0.4484115105
O   O40       1.0  0.46795  0.14750  0.31715  1.0000 -0.4484115105
O   O41       1.0  0.38251  0.42236  0.78767  1.0000 -0.4434137272
O   O42       1.0  0.61749  0.92236  0.71233  1.0000 -0.4484115105
O   O43       1.0  0.61749  0.57764  0.21233  1.0000 -0.4434137272
O   O44       1.0  0.38251  0.07764  0.28767  1.0000 -0.4484115105
O   O45       1.0  0.48401  0.39189  0.75043  1.0000 -0.3729596243
O   O46       1.0  0.51599  0.89189  0.74957  1.0000 -0.3729596243
O   O47       1.0  0.51599  0.60811  0.24957  1.0000 -0.3729596243
O   O48       1.0  0.48401  0.10811  0.25043  1.0000 -0.3729596243
F   F1        1.0  0.20767  0.83325  0.81381  1.0000 -0.1191206255
F   F2        1.0  0.79233  0.33325  0.68619  1.0000 -0.1191206255
F   F3        1.0  0.79233  0.16675  0.18619  1.0000 -0.1191206255
F   F4        1.0  0.20767  0.66675  0.31381  1.0000 -0.1191206255
F   F5        1.0  0.09238  0.81582  0.95464  1.0000 -0.1191206255
F   F6        1.0  0.90762  0.31582  0.54536  1.0000 -0.1191206255
F   F7        1.0  0.90762  0.18418  0.04536  1.0000 -0.1191206255
F   F8        1.0  0.09238  0.68418  0.45464  1.0000 -0.1191206255
F   F9        1.0  0.16613  0.70221  0.79611  1.0000 -0.1191206255
F   F10       1.0  0.83387  0.20221  0.70389  1.0000 -0.1191206255
F   F11       1.0  0.83387  0.29779  0.20389  1.0000 -0.1191206255
F   F12       1.0  0.16613  0.79779  0.29611  1.0000 -0.1191206255
F   F13       1.0  0.05108  0.68502  0.93710  1.0000 -0.1262512238
F   F14       1.0  0.94892  0.18502  0.56290  1.0000 -0.1262512238
F   F15       1.0  0.94892  0.31498  0.06290  1.0000 -0.1262512238
F   F16       1.0  0.05108  0.81498  0.43710  1.0000 -0.1262512238
F   F17       1.0  0.57034  0.84561  0.94004  1.0000 -0.1191206255
F   F18       1.0  0.42966  0.34561  0.55996  1.0000 -0.1191206255
F   F19       1.0  0.42966  0.15439  0.05996  1.0000 -0.1191206255
F   F20       1.0  0.57034  0.65439  0.44004  1.0000 -0.1191206255
F   F21       1.0  0.64004  0.80111  0.79151  1.0000 -0.1104338657
F   F22       1.0  0.35996  0.30111  0.70849  1.0000 -0.1104338657
F   F23       1.0  0.35996  0.19889  0.20849  1.0000 -0.1104338657
F   F24       1.0  0.64004  0.69889  0.29151  1.0000 -0.1104338657
F   F25       1.0  0.60276  0.71408  0.96139  1.0000 -0.1104338657
F   F26       1.0  0.39724  0.21408  0.53861  1.0000 -0.1104338657
F   F27       1.0  0.39724  0.28592  0.03861  1.0000 -0.1104338657
F   F28       1.0  0.60276  0.78592  0.46139  1.0000 -0.1104338657
F   F29       1.0  0.67213  0.66971  0.81277  1.0000 -0.1191206255
F   F30       1.0  0.32787  0.16971  0.68723  1.0000 -0.1191206255
F   F31       1.0  0.32787  0.33029  0.18723  1.0000 -0.1191206255
F   F32       1.0  0.67213  0.83029  0.31277  1.0000 -0.1191206255
F   F33       1.0  0.75378  0.48893  0.84459  1.0000 -0.1104338657
F   F34       1.0  0.24622  0.98893  0.65541  1.0000 -0.1104338657
F   F35       1.0  0.24622  0.51107  0.15541  1.0000 -0.1104338657
F   F36       1.0  0.75378  0.01107  0.34459  1.0000 -0.1104338657
F   F37       1.0  0.65431  0.42015  0.70392  1.0000 -0.1040708789
F   F38       1.0  0.34569  0.92015  0.79608  1.0000 -0.1040708789
F   F39       1.0  0.34569  0.57985  0.29608  1.0000 -0.1040708789
F   F40       1.0  0.65431  0.07985  0.20392  1.0000 -0.1040708789
F   F41       1.0  0.83356  0.59068  0.80652  1.0000 -0.1104338657
F   F42       1.0  0.16644  0.09068  0.69348  1.0000 -0.1104338657
F   F43       1.0  0.16644  0.40932  0.19348  1.0000 -0.1104338657
F   F44       1.0  0.83356  0.90932  0.30652  1.0000 -0.1104338657
F   F45       1.0  0.73385  0.52247  0.66602  1.0000 -0.1104338657
F   F46       1.0  0.26615  0.02247  0.83398  1.0000 -0.1104338657
F   F47       1.0  0.26615  0.47753  0.33398  1.0000 -0.1104338657
F   F48       1.0  0.73385  0.97753  0.16602  1.0000 -0.1104338657
F   F49       1.0  0.08684  0.41012  0.04947  1.0000 -0.1040708789
F   F50       1.0  0.91316  0.91012  0.45053  1.0000 -0.1040708789
F   F51       1.0  0.91316  0.58988  0.95053  1.0000 -0.1040708789
F   F52       1.0  0.08684  0.08988  0.54947  1.0000 -0.1040708789
F   F53       1.0  0.00503  0.50833  0.08987  1.0000 -0.1104338657
F   F54       1.0  0.99497  0.00833  0.41013  1.0000 -0.1104338657
F   F55       1.0  0.99497  0.49167  0.91013  1.0000 -0.1104338657
F   F56       1.0  0.00503  0.99167  0.58987  1.0000 -0.1104338657
F   F57       1.0  0.48577  0.02634  0.91173  1.0000 -0.1104338657
F   F58       1.0  0.51423  0.52634  0.58827  1.0000 -0.1104338657
F   F59       1.0  0.51423  0.97366  0.08827  1.0000 -0.1104338657
F   F60       1.0  0.48577  0.47366  0.41173  1.0000 -0.1104338657
F   F61       1.0  0.41103  0.91868  0.94586  1.0000 -0.1104338657
F   F62       1.0  0.58897  0.41868  0.55414  1.0000 -0.1104338657
F   F63       1.0  0.58897  0.08132  0.05414  1.0000 -0.1104338657
F   F64       1.0  0.41103  0.58132  0.44586  1.0000 -0.1104338657
