# DDEC6 charges by PACMAN v1.1 (https://github.com/mtap-research/PACMAN-charge/)
data_2007[Zn][srs]3[FSR]5
_chemical_formula_sum              "Zn24 H192 C288 I48 N96"
_cell_length_a       13.707
_cell_length_b       27.449
_cell_length_c       45.248
_cell_angle_alpha    90
_cell_angle_beta     90
_cell_angle_gamma    90

_symmetry_space_group_name_H-M    "P 1"
_symmetry_Int_Tables_number       1

loop_
  _symmetry_equiv_pos_as_xyz
  'x, y, z'

loop_
  _atom_site_type_symbol
  _atom_site_label
  _atom_site_symmetry_multiplicity
  _atom_site_fract_x
  _atom_site_fract_y
  _atom_site_fract_z
  _atom_site_occupancy
  _atom_site_charge
Zn  Zn1       1.0  0.65483  0.74364  0.81469  1.0000 0.4729256148
Zn  Zn2       1.0  0.34517  0.75636  0.31469  1.0000 0.4729256148
Zn  Zn3       1.0  0.15483  0.25636  0.68531  1.0000 0.4729256148
Zn  Zn4       1.0  0.84517  0.24364  0.18531  1.0000 0.4729256148
Zn  Zn5       1.0  0.86423  0.52829  0.91583  1.0000 0.4595370742
Zn  Zn6       1.0  0.13577  0.97171  0.41583  1.0000 0.4595370742
Zn  Zn7       1.0  0.36423  0.47171  0.58417  1.0000 0.4595370742
Zn  Zn8       1.0  0.63577  0.02829  0.08417  1.0000 0.4595370742
Zn  Zn9       1.0  0.66291  0.55390  0.07703  1.0000 0.4595370742
Zn  Zn10      1.0  0.33709  0.94610  0.57703  1.0000 0.4595370742
Zn  Zn11      1.0  0.16291  0.44610  0.42297  1.0000 0.4595370742
Zn  Zn12      1.0  0.83709  0.05390  0.92297  1.0000 0.4595370742
Zn  Zn13      1.0  0.34517  0.25636  0.18531  1.0000 0.4729256148
Zn  Zn14      1.0  0.65483  0.24364  0.68531  1.0000 0.4729256148
Zn  Zn15      1.0  0.84517  0.74364  0.31469  1.0000 0.4729256148
Zn  Zn16      1.0  0.15483  0.75636  0.81469  1.0000 0.4729256148
Zn  Zn17      1.0  0.13577  0.47171  0.08417  1.0000 0.4595370742
Zn  Zn18      1.0  0.86423  0.02829  0.58417  1.0000 0.4595370742
Zn  Zn19      1.0  0.63577  0.52829  0.41583  1.0000 0.4595370742
Zn  Zn20      1.0  0.36423  0.97171  0.91583  1.0000 0.4595370742
Zn  Zn21      1.0  0.33709  0.44610  0.92297  1.0000 0.4595370742
Zn  Zn22      1.0  0.66291  0.05390  0.42297  1.0000 0.4595370742
Zn  Zn23      1.0  0.83709  0.55390  0.57703  1.0000 0.4595370742
Zn  Zn24      1.0  0.16291  0.94610  0.07703  1.0000 0.4595370742
H   H1        1.0  0.01470  0.58750  0.88400  1.0000 0.1095633316
H   H2        1.0  0.98530  0.91250  0.38400  1.0000 0.1095633316
H   H3        1.0  0.51470  0.41250  0.61600  1.0000 0.1095633316
H   H4        1.0  0.48530  0.08750  0.11600  1.0000 0.1095633316
H   H5        1.0  0.16900  0.61800  0.89070  1.0000 0.137310201
H   H6        1.0  0.83100  0.88200  0.39070  1.0000 0.137310201
H   H7        1.0  0.66900  0.38200  0.60930  1.0000 0.137310201
H   H8        1.0  0.33100  0.11800  0.10930  1.0000 0.137310201
H   H9        1.0  0.01080  0.53540  0.96530  1.0000 0.1095633316
H   H10       1.0  0.98920  0.96460  0.46530  1.0000 0.1095633316
H   H11       1.0  0.51080  0.46460  0.53470  1.0000 0.1095633316
H   H12       1.0  0.48920  0.03540  0.03470  1.0000 0.1095633316
H   H13       1.0  0.16680  0.56380  0.97370  1.0000 0.1315789761
H   H14       1.0  0.83320  0.93620  0.47370  1.0000 0.1315789761
H   H15       1.0  0.66680  0.43620  0.52630  1.0000 0.1315789761
H   H16       1.0  0.33320  0.06380  0.02630  1.0000 0.1315789761
H   H17       1.0  0.46450  0.53930  0.05220  1.0000 0.1095633316
H   H18       1.0  0.53550  0.96070  0.55220  1.0000 0.1095633316
H   H19       1.0  0.96450  0.46070  0.44780  1.0000 0.1095633316
H   H20       1.0  0.03550  0.03930  0.94780  1.0000 0.1095633316
H   H21       1.0  0.37330  0.55950  0.01050  1.0000 0.137310201
H   H22       1.0  0.62670  0.94050  0.51050  1.0000 0.137310201
H   H23       1.0  0.87330  0.44050  0.48950  1.0000 0.137310201
H   H24       1.0  0.12670  0.05950  0.98950  1.0000 0.137310201
H   H25       1.0  0.70060  0.59360  0.01600  1.0000 0.1095633316
H   H26       1.0  0.29940  0.90640  0.51600  1.0000 0.1095633316
H   H27       1.0  0.20060  0.40640  0.48400  1.0000 0.1095633316
H   H28       1.0  0.79940  0.09360  0.98400  1.0000 0.1095633316
H   H29       1.0  0.61640  0.61590  0.97390  1.0000 0.137310201
H   H30       1.0  0.38360  0.88410  0.47390  1.0000 0.137310201
H   H31       1.0  0.11640  0.38410  0.52610  1.0000 0.137310201
H   H32       1.0  0.88360  0.11590  0.02610  1.0000 0.137310201
H   H33       1.0  0.69140  0.68950  0.86920  1.0000 0.1095633316
H   H34       1.0  0.30860  0.81050  0.36920  1.0000 0.1095633316
H   H35       1.0  0.19140  0.31050  0.63080  1.0000 0.1095633316
H   H36       1.0  0.80860  0.18950  0.13080  1.0000 0.1095633316
H   H37       1.0  0.61180  0.65590  0.90850  1.0000 0.1315789761
H   H38       1.0  0.38820  0.84410  0.40850  1.0000 0.1315789761
H   H39       1.0  0.11180  0.34410  0.59150  1.0000 0.1315789761
H   H40       1.0  0.88820  0.15590  0.09150  1.0000 0.1315789761
H   H41       1.0  0.44460  0.71510  0.82890  1.0000 0.1095633316
H   H42       1.0  0.55540  0.78490  0.32890  1.0000 0.1095633316
H   H43       1.0  0.94460  0.28490  0.67110  1.0000 0.1095633316
H   H44       1.0  0.05540  0.21510  0.17110  1.0000 0.1095633316
H   H45       1.0  0.35950  0.67580  0.86590  1.0000 0.137310201
H   H46       1.0  0.64050  0.82420  0.36590  1.0000 0.137310201
H   H47       1.0  0.85950  0.32420  0.63410  1.0000 0.137310201
H   H48       1.0  0.14050  0.17580  0.13410  1.0000 0.137310201
H   H49       1.0  0.53830  0.80160  0.77120  1.0000 0.1095633316
H   H50       1.0  0.46170  0.69840  0.27120  1.0000 0.1095633316
H   H51       1.0  0.03830  0.19840  0.72880  1.0000 0.1095633316
H   H52       1.0  0.96170  0.30160  0.22880  1.0000 0.1095633316
H   H53       1.0  0.47830  0.79390  0.72360  1.0000 0.1315789761
H   H54       1.0  0.52170  0.70610  0.22360  1.0000 0.1315789761
H   H55       1.0  0.97830  0.20610  0.77640  1.0000 0.1315789761
H   H56       1.0  0.02170  0.29390  0.27640  1.0000 0.1315789761
H   H57       1.0  0.59730  0.66220  0.77490  1.0000 0.1095633316
H   H58       1.0  0.40270  0.83780  0.27490  1.0000 0.1095633316
H   H59       1.0  0.09730  0.33780  0.72510  1.0000 0.1095633316
H   H60       1.0  0.90270  0.16220  0.22510  1.0000 0.1095633316
H   H61       1.0  0.53410  0.64970  0.72850  1.0000 0.137310201
H   H62       1.0  0.46590  0.85030  0.22850  1.0000 0.137310201
H   H63       1.0  0.03410  0.35030  0.77150  1.0000 0.137310201
H   H64       1.0  0.96590  0.14970  0.27150  1.0000 0.137310201
H   H65       1.0  0.42140  0.50830  0.64440  1.0000 0.1095633316
H   H66       1.0  0.57860  0.99170  0.14440  1.0000 0.1095633316
H   H67       1.0  0.92140  0.49170  0.85560  1.0000 0.1095633316
H   H68       1.0  0.07860  0.00830  0.35560  1.0000 0.1095633316
H   H69       1.0  0.44640  0.57990  0.66970  1.0000 0.137310201
H   H70       1.0  0.55360  0.92010  0.16970  1.0000 0.137310201
H   H71       1.0  0.94640  0.42010  0.83030  1.0000 0.137310201
H   H72       1.0  0.05360  0.07990  0.33030  1.0000 0.137310201
H   H73       1.0  0.37650  0.57750  0.57030  1.0000 0.1095633316
H   H74       1.0  0.62350  0.92250  0.07030  1.0000 0.1095633316
H   H75       1.0  0.87650  0.42250  0.92970  1.0000 0.1095633316
H   H76       1.0  0.12350  0.07750  0.42970  1.0000 0.1095633316
H   H77       1.0  0.39940  0.65170  0.59310  1.0000 0.1315789761
H   H78       1.0  0.60060  0.84830  0.09310  1.0000 0.1315789761
H   H79       1.0  0.89940  0.34830  0.90690  1.0000 0.1315789761
H   H80       1.0  0.10060  0.15170  0.40690  1.0000 0.1315789761
H   H81       1.0  0.34570  0.83900  0.56620  1.0000 0.1005679747
H   H82       1.0  0.65430  0.66100  0.06620  1.0000 0.1005679747
H   H83       1.0  0.84570  0.16100  0.93380  1.0000 0.1005679747
H   H84       1.0  0.15430  0.33900  0.43380  1.0000 0.1005679747
H   H85       1.0  0.37360  0.76730  0.59080  1.0000 0.137310201
H   H86       1.0  0.62640  0.73270  0.09080  1.0000 0.137310201
H   H87       1.0  0.87360  0.23270  0.90920  1.0000 0.137310201
H   H88       1.0  0.12640  0.26730  0.40920  1.0000 0.137310201
H   H89       1.0  0.42400  0.91610  0.63560  1.0000 0.1005679747
H   H90       1.0  0.57600  0.58390  0.13560  1.0000 0.1005679747
H   H91       1.0  0.92400  0.08390  0.86440  1.0000 0.1005679747
H   H92       1.0  0.07600  0.41610  0.36440  1.0000 0.1005679747
H   H93       1.0  0.45490  0.84610  0.66260  1.0000 0.1315789761
H   H94       1.0  0.54510  0.65390  0.16260  1.0000 0.1315789761
H   H95       1.0  0.95490  0.15390  0.83740  1.0000 0.1315789761
H   H96       1.0  0.04510  0.34610  0.33740  1.0000 0.1315789761
H   H97       1.0  0.98530  0.41250  0.11600  1.0000 0.1095633316
H   H98       1.0  0.01470  0.08750  0.61600  1.0000 0.1095633316
H   H99       1.0  0.48530  0.58750  0.38400  1.0000 0.1095633316
H   H100      1.0  0.51470  0.91250  0.88400  1.0000 0.1095633316
H   H101      1.0  0.83100  0.38200  0.10930  1.0000 0.137310201
H   H102      1.0  0.16900  0.11800  0.60930  1.0000 0.137310201
H   H103      1.0  0.33100  0.61800  0.39070  1.0000 0.137310201
H   H104      1.0  0.66900  0.88200  0.89070  1.0000 0.137310201
H   H105      1.0  0.98920  0.46460  0.03470  1.0000 0.1095633316
H   H106      1.0  0.01080  0.03540  0.53470  1.0000 0.1095633316
H   H107      1.0  0.48920  0.53540  0.46530  1.0000 0.1095633316
H   H108      1.0  0.51080  0.96460  0.96530  1.0000 0.1095633316
H   H109      1.0  0.83320  0.43620  0.02630  1.0000 0.1315789761
H   H110      1.0  0.16680  0.06380  0.52630  1.0000 0.1315789761
H   H111      1.0  0.33320  0.56380  0.47370  1.0000 0.1315789761
H   H112      1.0  0.66680  0.93620  0.97370  1.0000 0.1315789761
H   H113      1.0  0.53550  0.46070  0.94780  1.0000 0.1095633316
H   H114      1.0  0.46450  0.03930  0.44780  1.0000 0.1095633316
H   H115      1.0  0.03550  0.53930  0.55220  1.0000 0.1095633316
H   H116      1.0  0.96450  0.96070  0.05220  1.0000 0.1095633316
H   H117      1.0  0.62670  0.44050  0.98950  1.0000 0.137310201
H   H118      1.0  0.37330  0.05950  0.48950  1.0000 0.137310201
H   H119      1.0  0.12670  0.55950  0.51050  1.0000 0.137310201
H   H120      1.0  0.87330  0.94050  0.01050  1.0000 0.137310201
H   H121      1.0  0.29940  0.40640  0.98400  1.0000 0.1095633316
H   H122      1.0  0.70060  0.09360  0.48400  1.0000 0.1095633316
H   H123      1.0  0.79940  0.59360  0.51600  1.0000 0.1095633316
H   H124      1.0  0.20060  0.90640  0.01600  1.0000 0.1095633316
H   H125      1.0  0.38360  0.38410  0.02610  1.0000 0.137310201
H   H126      1.0  0.61640  0.11590  0.52610  1.0000 0.137310201
H   H127      1.0  0.88360  0.61590  0.47390  1.0000 0.137310201
H   H128      1.0  0.11640  0.88410  0.97390  1.0000 0.137310201
H   H129      1.0  0.30860  0.31050  0.13080  1.0000 0.1095633316
H   H130      1.0  0.69140  0.18950  0.63080  1.0000 0.1095633316
H   H131      1.0  0.80860  0.68950  0.36920  1.0000 0.1095633316
H   H132      1.0  0.19140  0.81050  0.86920  1.0000 0.1095633316
H   H133      1.0  0.38820  0.34410  0.09150  1.0000 0.1315789761
H   H134      1.0  0.61180  0.15590  0.59150  1.0000 0.1315789761
H   H135      1.0  0.88820  0.65590  0.40850  1.0000 0.1315789761
H   H136      1.0  0.11180  0.84410  0.90850  1.0000 0.1315789761
H   H137      1.0  0.55540  0.28490  0.17110  1.0000 0.1095633316
H   H138      1.0  0.44460  0.21510  0.67110  1.0000 0.1095633316
H   H139      1.0  0.05540  0.71510  0.32890  1.0000 0.1095633316
H   H140      1.0  0.94460  0.78490  0.82890  1.0000 0.1095633316
H   H141      1.0  0.64050  0.32420  0.13410  1.0000 0.137310201
H   H142      1.0  0.35950  0.17580  0.63410  1.0000 0.137310201
H   H143      1.0  0.14050  0.67580  0.36590  1.0000 0.137310201
H   H144      1.0  0.85950  0.82420  0.86590  1.0000 0.137310201
H   H145      1.0  0.46170  0.19840  0.22880  1.0000 0.1095633316
H   H146      1.0  0.53830  0.30160  0.72880  1.0000 0.1095633316
H   H147      1.0  0.96170  0.80160  0.27120  1.0000 0.1095633316
H   H148      1.0  0.03830  0.69840  0.77120  1.0000 0.1095633316
H   H149      1.0  0.52170  0.20610  0.27640  1.0000 0.1315789761
H   H150      1.0  0.47830  0.29390  0.77640  1.0000 0.1315789761
H   H151      1.0  0.02170  0.79390  0.22360  1.0000 0.1315789761
H   H152      1.0  0.97830  0.70610  0.72360  1.0000 0.1315789761
H   H153      1.0  0.40270  0.33780  0.22510  1.0000 0.1095633316
H   H154      1.0  0.59730  0.16220  0.72510  1.0000 0.1095633316
H   H155      1.0  0.90270  0.66220  0.27490  1.0000 0.1095633316
H   H156      1.0  0.09730  0.83780  0.77490  1.0000 0.1095633316
H   H157      1.0  0.46590  0.35030  0.27150  1.0000 0.137310201
H   H158      1.0  0.53410  0.14970  0.77150  1.0000 0.137310201
H   H159      1.0  0.96590  0.64970  0.22850  1.0000 0.137310201
H   H160      1.0  0.03410  0.85030  0.72850  1.0000 0.137310201
H   H161      1.0  0.57860  0.49170  0.35560  1.0000 0.1095633316
H   H162      1.0  0.42140  0.00830  0.85560  1.0000 0.1095633316
H   H163      1.0  0.07860  0.50830  0.14440  1.0000 0.1095633316
H   H164      1.0  0.92140  0.99170  0.64440  1.0000 0.1095633316
H   H165      1.0  0.55360  0.42010  0.33030  1.0000 0.137310201
H   H166      1.0  0.44640  0.07990  0.83030  1.0000 0.137310201
H   H167      1.0  0.05360  0.57990  0.16970  1.0000 0.137310201
H   H168      1.0  0.94640  0.92010  0.66970  1.0000 0.137310201
H   H169      1.0  0.62350  0.42250  0.42970  1.0000 0.1095633316
H   H170      1.0  0.37650  0.07750  0.92970  1.0000 0.1095633316
H   H171      1.0  0.12350  0.57750  0.07030  1.0000 0.1095633316
H   H172      1.0  0.87650  0.92250  0.57030  1.0000 0.1095633316
H   H173      1.0  0.60060  0.34830  0.40690  1.0000 0.1315789761
H   H174      1.0  0.39940  0.15170  0.90690  1.0000 0.1315789761
H   H175      1.0  0.10060  0.65170  0.09310  1.0000 0.1315789761
H   H176      1.0  0.89940  0.84830  0.59310  1.0000 0.1315789761
H   H177      1.0  0.65430  0.16100  0.43380  1.0000 0.1005679747
H   H178      1.0  0.34570  0.33900  0.93380  1.0000 0.1005679747
H   H179      1.0  0.15430  0.83900  0.06620  1.0000 0.1005679747
H   H180      1.0  0.84570  0.66100  0.56620  1.0000 0.1005679747
H   H181      1.0  0.62640  0.23270  0.40920  1.0000 0.137310201
H   H182      1.0  0.37360  0.26730  0.90920  1.0000 0.137310201
H   H183      1.0  0.12640  0.76730  0.09080  1.0000 0.137310201
H   H184      1.0  0.87360  0.73270  0.59080  1.0000 0.137310201
H   H185      1.0  0.57600  0.08390  0.36440  1.0000 0.1005679747
H   H186      1.0  0.42400  0.41610  0.86440  1.0000 0.1005679747
H   H187      1.0  0.07600  0.91610  0.13560  1.0000 0.1005679747
H   H188      1.0  0.92400  0.58390  0.63560  1.0000 0.1005679747
H   H189      1.0  0.54510  0.15390  0.33740  1.0000 0.1315789761
H   H190      1.0  0.45490  0.34610  0.83740  1.0000 0.1315789761
H   H191      1.0  0.04510  0.84610  0.16260  1.0000 0.1315789761
H   H192      1.0  0.95490  0.65390  0.66260  1.0000 0.1315789761
C   C1        1.0  0.04610  0.58260  0.90253  1.0000 0.0811643163
C   C2        1.0  0.95390  0.91740  0.40253  1.0000 0.0811643163
C   C3        1.0  0.54610  0.41740  0.59747  1.0000 0.0811643163
C   C4        1.0  0.45390  0.08260  0.09747  1.0000 0.0811643163
C   C5        1.0  0.13780  0.60080  0.90628  1.0000 -0.1232249983
C   C6        1.0  0.86220  0.89920  0.40628  1.0000 -0.1232249983
C   C7        1.0  0.63780  0.39920  0.59372  1.0000 -0.1232249983
C   C8        1.0  0.36220  0.10080  0.09372  1.0000 -0.1232249983
C   C9        1.0  0.04390  0.55210  0.94988  1.0000 0.0811643163
C   C10       1.0  0.95610  0.94790  0.44988  1.0000 0.0811643163
C   C11       1.0  0.54390  0.44790  0.55012  1.0000 0.0811643163
C   C12       1.0  0.45610  0.05210  0.05012  1.0000 0.0811643163
C   C13       1.0  0.13650  0.56910  0.95509  1.0000 -0.1274145419
C   C14       1.0  0.86350  0.93090  0.45509  1.0000 -0.1274145419
C   C15       1.0  0.63650  0.43090  0.54491  1.0000 -0.1274145419
C   C16       1.0  0.36350  0.06910  0.04491  1.0000 -0.1274145419
C   C17       1.0  0.18530  0.59390  0.93317  1.0000 0.0576882331
C   C18       1.0  0.81470  0.90610  0.43317  1.0000 0.0576882331
C   C19       1.0  0.68530  0.40610  0.56683  1.0000 0.0576882331
C   C20       1.0  0.31470  0.09390  0.06683  1.0000 0.0576882331
C   C21       1.0  0.28750  0.60920  0.93623  1.0000 0.369039941
C   C22       1.0  0.71250  0.89080  0.43623  1.0000 0.369039941
C   C23       1.0  0.78750  0.39080  0.56377  1.0000 0.369039941
C   C24       1.0  0.21250  0.10920  0.06377  1.0000 0.369039941
C   C25       1.0  0.49570  0.55520  0.03608  1.0000 0.0811643163
C   C26       1.0  0.50430  0.94480  0.53608  1.0000 0.0811643163
C   C27       1.0  0.99570  0.44480  0.46392  1.0000 0.0811643163
C   C28       1.0  0.00430  0.05520  0.96392  1.0000 0.0811643163
C   C29       1.0  0.44060  0.56760  0.01141  1.0000 -0.144344392
C   C30       1.0  0.55940  0.93240  0.51141  1.0000 -0.144344392
C   C31       1.0  0.94060  0.43240  0.48859  1.0000 -0.144344392
C   C32       1.0  0.05940  0.06760  0.98859  1.0000 -0.1490421532
C   C33       1.0  0.63270  0.58690  0.01495  1.0000 0.0691233124
C   C34       1.0  0.36730  0.91310  0.51495  1.0000 0.0691233124
C   C35       1.0  0.13270  0.41310  0.48505  1.0000 0.0691233124
C   C36       1.0  0.86730  0.08690  0.98505  1.0000 0.0691233124
C   C37       1.0  0.58330  0.60060  0.98986  1.0000 -0.144344392
C   C38       1.0  0.41670  0.89940  0.48986  1.0000 -0.144344392
C   C39       1.0  0.08330  0.39940  0.51014  1.0000 -0.144344392
C   C40       1.0  0.91670  0.10060  0.01014  1.0000 -0.144344392
C   C41       1.0  0.48440  0.59150  0.98842  1.0000 0.0576882331
C   C42       1.0  0.51560  0.90850  0.48842  1.0000 0.0542159082
C   C43       1.0  0.98440  0.40850  0.51158  1.0000 0.0542159082
C   C44       1.0  0.01560  0.09150  0.01158  1.0000 0.0576882331
C   C45       1.0  0.42850  0.60620  0.96174  1.0000 0.369039941
C   C46       1.0  0.57150  0.89380  0.46174  1.0000 0.369039941
C   C47       1.0  0.92850  0.39380  0.53826  1.0000 0.369039941
C   C48       1.0  0.07150  0.10620  0.03826  1.0000 0.369039941
C   C49       1.0  0.62210  0.68830  0.86883  1.0000 0.0811643163
C   C50       1.0  0.37790  0.81170  0.36883  1.0000 0.0811643163
C   C51       1.0  0.12210  0.31170  0.63117  1.0000 0.0811643163
C   C52       1.0  0.87790  0.18830  0.13117  1.0000 0.0811643163
C   C53       1.0  0.57560  0.66770  0.89210  1.0000 -0.1274145419
C   C54       1.0  0.42440  0.83230  0.39210  1.0000 -0.1274145419
C   C55       1.0  0.07560  0.33230  0.60790  1.0000 -0.1274145419
C   C56       1.0  0.92440  0.16770  0.10790  1.0000 -0.1274145419
C   C57       1.0  0.47950  0.70230  0.84531  1.0000 0.0811643163
C   C58       1.0  0.52050  0.79770  0.34531  1.0000 0.0811643163
C   C59       1.0  0.97950  0.29770  0.65469  1.0000 0.0811643163
C   C60       1.0  0.02050  0.20230  0.15469  1.0000 0.0811643163
C   C61       1.0  0.42810  0.68000  0.86747  1.0000 -0.1274145419
C   C62       1.0  0.57190  0.82000  0.36747  1.0000 -0.1232249983
C   C63       1.0  0.92810  0.32000  0.63253  1.0000 -0.1232249983
C   C64       1.0  0.07190  0.18000  0.13253  1.0000 -0.1232249983
C   C65       1.0  0.47680  0.66390  0.89183  1.0000 0.0576882331
C   C66       1.0  0.52320  0.83610  0.39183  1.0000 0.0542159082
C   C67       1.0  0.97680  0.33610  0.60817  1.0000 0.0576882331
C   C68       1.0  0.02320  0.16390  0.10817  1.0000 0.0542159082
C   C69       1.0  0.42470  0.64150  0.91707  1.0000 0.369039941
C   C70       1.0  0.57530  0.85850  0.41707  1.0000 0.369039941
C   C71       1.0  0.92470  0.35850  0.58293  1.0000 0.369039941
C   C72       1.0  0.07530  0.14150  0.08293  1.0000 0.369039941
C   C73       1.0  0.53940  0.77050  0.76193  1.0000 0.1005679747
C   C74       1.0  0.46060  0.72950  0.26193  1.0000 0.1005679747
C   C75       1.0  0.03940  0.22950  0.73807  1.0000 0.0902870292
C   C76       1.0  0.96060  0.27050  0.23807  1.0000 0.1005679747
C   C77       1.0  0.50270  0.76620  0.73378  1.0000 -0.1490421532
C   C78       1.0  0.49730  0.73380  0.23378  1.0000 -0.1490421532
C   C79       1.0  0.00270  0.23380  0.76622  1.0000 -0.1490421532
C   C80       1.0  0.99730  0.26620  0.26622  1.0000 -0.1490421532
C   C81       1.0  0.57290  0.68940  0.76417  1.0000 0.0811643163
C   C82       1.0  0.42710  0.81060  0.26417  1.0000 0.0811643163
C   C83       1.0  0.07290  0.31060  0.73583  1.0000 0.0811643163
C   C84       1.0  0.92710  0.18940  0.23583  1.0000 0.0811643163
C   C85       1.0  0.53620  0.68170  0.73660  1.0000 -0.1725896289
C   C86       1.0  0.46380  0.81830  0.23660  1.0000 -0.1725896289
C   C87       1.0  0.03620  0.31830  0.76340  1.0000 -0.1725896289
C   C88       1.0  0.96380  0.18170  0.26340  1.0000 -0.1725896289
C   C89       1.0  0.50200  0.72100  0.72055  1.0000 0.0691233124
C   C90       1.0  0.49800  0.77900  0.22055  1.0000 0.0691233124
C   C91       1.0  0.00200  0.27900  0.77945  1.0000 0.0691233124
C   C92       1.0  0.99800  0.22100  0.27945  1.0000 0.0691233124
C   C93       1.0  0.47120  0.71670  0.68916  1.0000 0.369039941
C   C94       1.0  0.52880  0.78330  0.18916  1.0000 0.369039941
C   C95       1.0  0.97120  0.28330  0.81084  1.0000 0.369039941
C   C96       1.0  0.02880  0.21670  0.31084  1.0000 0.369039941
C   C97       1.0  0.41620  0.53820  0.63393  1.0000 0.0811643163
C   C98       1.0  0.58380  0.96180  0.13393  1.0000 0.0811643163
C   C99       1.0  0.91620  0.46180  0.86607  1.0000 0.0811643163
C   C100      1.0  0.08380  0.03820  0.36607  1.0000 0.0811643163
C   C101      1.0  0.43140  0.58070  0.64921  1.0000 -0.161964461
C   C102      1.0  0.56860  0.91930  0.14921  1.0000 -0.161964461
C   C103      1.0  0.93140  0.41930  0.85079  1.0000 -0.161964461
C   C104      1.0  0.06860  0.08070  0.35079  1.0000 -0.161964461
C   C105      1.0  0.39000  0.57820  0.59086  1.0000 0.0811643163
C   C106      1.0  0.61000  0.92180  0.09086  1.0000 0.0811643163
C   C107      1.0  0.89000  0.42180  0.90914  1.0000 0.0811643163
C   C108      1.0  0.11000  0.07820  0.40914  1.0000 0.0811643163
C   C109      1.0  0.40390  0.62250  0.60430  1.0000 -0.144344392
C   C110      1.0  0.59610  0.87750  0.10430  1.0000 -0.144344392
C   C111      1.0  0.90390  0.37750  0.89570  1.0000 -0.144344392
C   C112      1.0  0.09610  0.12250  0.39570  1.0000 -0.144344392
C   C113      1.0  0.42450  0.62450  0.63433  1.0000 0.0576882331
C   C114      1.0  0.57550  0.87550  0.13433  1.0000 0.0576882331
C   C115      1.0  0.92450  0.37550  0.86567  1.0000 0.0576882331
C   C116      1.0  0.07550  0.12450  0.36567  1.0000 0.0576882331
C   C117      1.0  0.43630  0.67190  0.64908  1.0000 0.369039941
C   C118      1.0  0.56370  0.82810  0.14908  1.0000 0.369039941
C   C119      1.0  0.93630  0.32810  0.85092  1.0000 0.369039941
C   C120      1.0  0.06370  0.17190  0.35092  1.0000 0.369039941
C   C121      1.0  0.36760  0.84020  0.58616  1.0000 0.0811643163
C   C122      1.0  0.63240  0.65980  0.08616  1.0000 0.0811643163
C   C123      1.0  0.86760  0.15980  0.91384  1.0000 0.0811643163
C   C124      1.0  0.13240  0.34020  0.41384  1.0000 0.0811643163
C   C125      1.0  0.38420  0.79750  0.60050  1.0000 -0.161964461
C   C126      1.0  0.61580  0.70250  0.10050  1.0000 -0.161964461
C   C127      1.0  0.88420  0.20250  0.89950  1.0000 -0.161964461
C   C128      1.0  0.11580  0.29750  0.39950  1.0000 -0.161964461
C   C129      1.0  0.41330  0.88530  0.62666  1.0000 0.0902870292
C   C130      1.0  0.58670  0.61470  0.12666  1.0000 0.0902870292
C   C131      1.0  0.91330  0.11470  0.87334  1.0000 0.0902870292
C   C132      1.0  0.08670  0.38530  0.37334  1.0000 0.0902870292
C   C133      1.0  0.43210  0.84390  0.64279  1.0000 -0.161964461
C   C134      1.0  0.56790  0.65610  0.14279  1.0000 -0.161964461
C   C135      1.0  0.93210  0.15610  0.85721  1.0000 -0.161964461
C   C136      1.0  0.06790  0.34390  0.35721  1.0000 -0.161964461
C   C137      1.0  0.41680  0.79850  0.62954  1.0000 0.0691233124
C   C138      1.0  0.58320  0.70150  0.12954  1.0000 0.0691233124
C   C139      1.0  0.91680  0.20150  0.87046  1.0000 0.0691233124
C   C140      1.0  0.08320  0.29850  0.37046  1.0000 0.0691233124
C   C141      1.0  0.43420  0.75340  0.64684  1.0000 0.3562746981
C   C142      1.0  0.56580  0.74660  0.14684  1.0000 0.3562746981
C   C143      1.0  0.93420  0.24660  0.85316  1.0000 0.3562746981
C   C144      1.0  0.06580  0.25340  0.35316  1.0000 0.3562746981
C   C145      1.0  0.95390  0.41740  0.09747  1.0000 0.0811643163
C   C146      1.0  0.04610  0.08260  0.59747  1.0000 0.0811643163
C   C147      1.0  0.45390  0.58260  0.40253  1.0000 0.0811643163
C   C148      1.0  0.54610  0.91740  0.90253  1.0000 0.0811643163
C   C149      1.0  0.86220  0.39920  0.09372  1.0000 -0.1232249983
C   C150      1.0  0.13780  0.10080  0.59372  1.0000 -0.1232249983
C   C151      1.0  0.36220  0.60080  0.40628  1.0000 -0.1232249983
C   C152      1.0  0.63780  0.89920  0.90628  1.0000 -0.1232249983
C   C153      1.0  0.95610  0.44790  0.05012  1.0000 0.0811643163
C   C154      1.0  0.04390  0.05210  0.55012  1.0000 0.0811643163
C   C155      1.0  0.45610  0.55210  0.44988  1.0000 0.0811643163
C   C156      1.0  0.54390  0.94790  0.94988  1.0000 0.0811643163
C   C157      1.0  0.86350  0.43090  0.04491  1.0000 -0.1274145419
C   C158      1.0  0.13650  0.06910  0.54491  1.0000 -0.1274145419
C   C159      1.0  0.36350  0.56910  0.45509  1.0000 -0.1274145419
C   C160      1.0  0.63650  0.93090  0.95509  1.0000 -0.1274145419
C   C161      1.0  0.81470  0.40610  0.06683  1.0000 0.0576882331
C   C162      1.0  0.18530  0.09390  0.56683  1.0000 0.0576882331
C   C163      1.0  0.31470  0.59390  0.43317  1.0000 0.0576882331
C   C164      1.0  0.68530  0.90610  0.93317  1.0000 0.0576882331
C   C165      1.0  0.71250  0.39080  0.06377  1.0000 0.369039941
C   C166      1.0  0.28750  0.10920  0.56377  1.0000 0.369039941
C   C167      1.0  0.21250  0.60920  0.43623  1.0000 0.369039941
C   C168      1.0  0.78750  0.89080  0.93623  1.0000 0.369039941
C   C169      1.0  0.50430  0.44480  0.96392  1.0000 0.0811643163
C   C170      1.0  0.49570  0.05520  0.46392  1.0000 0.0811643163
C   C171      1.0  0.00430  0.55520  0.53608  1.0000 0.0811643163
C   C172      1.0  0.99570  0.94480  0.03608  1.0000 0.0811643163
C   C173      1.0  0.55940  0.43240  0.98859  1.0000 -0.144344392
C   C174      1.0  0.44060  0.06760  0.48859  1.0000 -0.1490421532
C   C175      1.0  0.05940  0.56760  0.51141  1.0000 -0.144344392
C   C176      1.0  0.94060  0.93240  0.01141  1.0000 -0.144344392
C   C177      1.0  0.36730  0.41310  0.98505  1.0000 0.0691233124
C   C178      1.0  0.63270  0.08690  0.48505  1.0000 0.0691233124
C   C179      1.0  0.86730  0.58690  0.51495  1.0000 0.0691233124
C   C180      1.0  0.13270  0.91310  0.01495  1.0000 0.0691233124
C   C181      1.0  0.41670  0.39940  0.01014  1.0000 -0.144344392
C   C182      1.0  0.58330  0.10060  0.51014  1.0000 -0.144344392
C   C183      1.0  0.91670  0.60060  0.48986  1.0000 -0.144344392
C   C184      1.0  0.08330  0.89940  0.98986  1.0000 -0.144344392
C   C185      1.0  0.51560  0.40850  0.01158  1.0000 0.0576882331
C   C186      1.0  0.48440  0.09150  0.51158  1.0000 0.0576882331
C   C187      1.0  0.01560  0.59150  0.48842  1.0000 0.0576882331
C   C188      1.0  0.98440  0.90850  0.98842  1.0000 0.0542159082
C   C189      1.0  0.57150  0.39380  0.03826  1.0000 0.369039941
C   C190      1.0  0.42850  0.10620  0.53826  1.0000 0.369039941
C   C191      1.0  0.07150  0.60620  0.46174  1.0000 0.369039941
C   C192      1.0  0.92850  0.89380  0.96174  1.0000 0.369039941
C   C193      1.0  0.37790  0.31170  0.13117  1.0000 0.0811643163
C   C194      1.0  0.62210  0.18830  0.63117  1.0000 0.0811643163
C   C195      1.0  0.87790  0.68830  0.36883  1.0000 0.0811643163
C   C196      1.0  0.12210  0.81170  0.86883  1.0000 0.0811643163
C   C197      1.0  0.42440  0.33230  0.10790  1.0000 -0.1274145419
C   C198      1.0  0.57560  0.16770  0.60790  1.0000 -0.1274145419
C   C199      1.0  0.92440  0.66770  0.39210  1.0000 -0.1274145419
C   C200      1.0  0.07560  0.83230  0.89210  1.0000 -0.1274145419
C   C201      1.0  0.52050  0.29770  0.15469  1.0000 0.0811643163
C   C202      1.0  0.47950  0.20230  0.65469  1.0000 0.0811643163
C   C203      1.0  0.02050  0.70230  0.34531  1.0000 0.0811643163
C   C204      1.0  0.97950  0.79770  0.84531  1.0000 0.0811643163
C   C205      1.0  0.57190  0.32000  0.13253  1.0000 -0.1232249983
C   C206      1.0  0.42810  0.18000  0.63253  1.0000 -0.1232249983
C   C207      1.0  0.07190  0.68000  0.36747  1.0000 -0.1232249983
C   C208      1.0  0.92810  0.82000  0.86747  1.0000 -0.1232249983
C   C209      1.0  0.52320  0.33610  0.10817  1.0000 0.0576882331
C   C210      1.0  0.47680  0.16390  0.60817  1.0000 0.0576882331
C   C211      1.0  0.02320  0.66390  0.39183  1.0000 0.0576882331
C   C212      1.0  0.97680  0.83610  0.89183  1.0000 0.0576882331
C   C213      1.0  0.57530  0.35850  0.08293  1.0000 0.369039941
C   C214      1.0  0.42470  0.14150  0.58293  1.0000 0.369039941
C   C215      1.0  0.07530  0.64150  0.41707  1.0000 0.369039941
C   C216      1.0  0.92470  0.85850  0.91707  1.0000 0.369039941
C   C217      1.0  0.46060  0.22950  0.23807  1.0000 0.0902870292
C   C218      1.0  0.53940  0.27050  0.73807  1.0000 0.1005679747
C   C219      1.0  0.96060  0.77050  0.26193  1.0000 0.1005679747
C   C220      1.0  0.03940  0.72950  0.76193  1.0000 0.0902870292
C   C221      1.0  0.49730  0.23380  0.26622  1.0000 -0.1490421532
C   C222      1.0  0.50270  0.26620  0.76622  1.0000 -0.1490421532
C   C223      1.0  0.99730  0.76620  0.23378  1.0000 -0.1490421532
C   C224      1.0  0.00270  0.73380  0.73378  1.0000 -0.1490421532
C   C225      1.0  0.42710  0.31060  0.23583  1.0000 0.0811643163
C   C226      1.0  0.57290  0.18940  0.73583  1.0000 0.0811643163
C   C227      1.0  0.92710  0.68940  0.26417  1.0000 0.0811643163
C   C228      1.0  0.07290  0.81060  0.76417  1.0000 0.0811643163
C   C229      1.0  0.46380  0.31830  0.26340  1.0000 -0.1725896289
C   C230      1.0  0.53620  0.18170  0.76340  1.0000 -0.1725896289
C   C231      1.0  0.96380  0.68170  0.23660  1.0000 -0.1725896289
C   C232      1.0  0.03620  0.81830  0.73660  1.0000 -0.1725896289
C   C233      1.0  0.49800  0.27900  0.27945  1.0000 0.0691233124
C   C234      1.0  0.50200  0.22100  0.77945  1.0000 0.0691233124
C   C235      1.0  0.99800  0.72100  0.22055  1.0000 0.0691233124
C   C236      1.0  0.00200  0.77900  0.72055  1.0000 0.0691233124
C   C237      1.0  0.52880  0.28330  0.31084  1.0000 0.369039941
C   C238      1.0  0.47120  0.21670  0.81084  1.0000 0.369039941
C   C239      1.0  0.02880  0.71670  0.18916  1.0000 0.369039941
C   C240      1.0  0.97120  0.78330  0.68916  1.0000 0.369039941
C   C241      1.0  0.58380  0.46180  0.36607  1.0000 0.0811643163
C   C242      1.0  0.41620  0.03820  0.86607  1.0000 0.0811643163
C   C243      1.0  0.08380  0.53820  0.13393  1.0000 0.0811643163
C   C244      1.0  0.91620  0.96180  0.63393  1.0000 0.0811643163
C   C245      1.0  0.56860  0.41930  0.35079  1.0000 -0.161964461
C   C246      1.0  0.43140  0.08070  0.85079  1.0000 -0.161964461
C   C247      1.0  0.06860  0.58070  0.14921  1.0000 -0.161964461
C   C248      1.0  0.93140  0.91930  0.64921  1.0000 -0.161964461
C   C249      1.0  0.61000  0.42180  0.40914  1.0000 0.0811643163
C   C250      1.0  0.39000  0.07820  0.90914  1.0000 0.0811643163
C   C251      1.0  0.11000  0.57820  0.09086  1.0000 0.0811643163
C   C252      1.0  0.89000  0.92180  0.59086  1.0000 0.0811643163
C   C253      1.0  0.59610  0.37750  0.39570  1.0000 -0.144344392
C   C254      1.0  0.40390  0.12250  0.89570  1.0000 -0.144344392
C   C255      1.0  0.09610  0.62250  0.10430  1.0000 -0.144344392
C   C256      1.0  0.90390  0.87750  0.60430  1.0000 -0.144344392
C   C257      1.0  0.57550  0.37550  0.36567  1.0000 0.0576882331
C   C258      1.0  0.42450  0.12450  0.86567  1.0000 0.0576882331
C   C259      1.0  0.07550  0.62450  0.13433  1.0000 0.0576882331
C   C260      1.0  0.92450  0.87550  0.63433  1.0000 0.0576882331
C   C261      1.0  0.56370  0.32810  0.35092  1.0000 0.369039941
C   C262      1.0  0.43630  0.17190  0.85092  1.0000 0.369039941
C   C263      1.0  0.06370  0.67190  0.14908  1.0000 0.369039941
C   C264      1.0  0.93630  0.82810  0.64908  1.0000 0.369039941
C   C265      1.0  0.63240  0.15980  0.41384  1.0000 0.0811643163
C   C266      1.0  0.36760  0.34020  0.91384  1.0000 0.0811643163
C   C267      1.0  0.13240  0.84020  0.08616  1.0000 0.0811643163
C   C268      1.0  0.86760  0.65980  0.58616  1.0000 0.0811643163
C   C269      1.0  0.61580  0.20250  0.39950  1.0000 -0.161964461
C   C270      1.0  0.38420  0.29750  0.89950  1.0000 -0.161964461
C   C271      1.0  0.11580  0.79750  0.10050  1.0000 -0.161964461
C   C272      1.0  0.88420  0.70250  0.60050  1.0000 -0.161964461
C   C273      1.0  0.58670  0.11470  0.37334  1.0000 0.0902870292
C   C274      1.0  0.41330  0.38530  0.87334  1.0000 0.0902870292
C   C275      1.0  0.08670  0.88530  0.12666  1.0000 0.0902870292
C   C276      1.0  0.91330  0.61470  0.62666  1.0000 0.0902870292
C   C277      1.0  0.56790  0.15610  0.35721  1.0000 -0.161964461
C   C278      1.0  0.43210  0.34390  0.85721  1.0000 -0.161964461
C   C279      1.0  0.06790  0.84390  0.14279  1.0000 -0.161964461
C   C280      1.0  0.93210  0.65610  0.64279  1.0000 -0.161964461
C   C281      1.0  0.58320  0.20150  0.37046  1.0000 0.0691233124
C   C282      1.0  0.41680  0.29850  0.87046  1.0000 0.0691233124
C   C283      1.0  0.08320  0.79850  0.12954  1.0000 0.0691233124
C   C284      1.0  0.91680  0.70150  0.62954  1.0000 0.0691233124
C   C285      1.0  0.56580  0.24660  0.35316  1.0000 0.3562746981
C   C286      1.0  0.43420  0.25340  0.85316  1.0000 0.3562746981
C   C287      1.0  0.06580  0.75340  0.14684  1.0000 0.3562746981
C   C288      1.0  0.93420  0.74660  0.64684  1.0000 0.3562746981
I   I1        1.0  0.65735  0.83332  0.82787  1.0000 -0.4543111978
I   I2        1.0  0.34265  0.66667  0.32787  1.0000 -0.4543111978
I   I3        1.0  0.15735  0.16668  0.67213  1.0000 -0.4543111978
I   I4        1.0  0.84265  0.33333  0.17213  1.0000 -0.4543111978
I   I5        1.0  0.81523  0.69889  0.80719  1.0000 -0.4543111978
I   I6        1.0  0.18477  0.80111  0.30719  1.0000 -0.4598510995
I   I7        1.0  0.31523  0.30111  0.69281  1.0000 -0.4598510995
I   I8        1.0  0.68477  0.19889  0.19281  1.0000 -0.4598510995
I   I9        1.0  0.78030  0.58000  0.87740  1.0000 -0.4318813512
I   I10       1.0  0.21970  0.92000  0.37740  1.0000 -0.4318813512
I   I11       1.0  0.28030  0.42000  0.62260  1.0000 -0.4318813512
I   I12       1.0  0.71970  0.08000  0.12260  1.0000 -0.4318813512
I   I13       1.0  0.78835  0.50837  0.96581  1.0000 -0.4598510995
I   I14       1.0  0.21165  0.99163  0.46581  1.0000 -0.4598510995
I   I15       1.0  0.28835  0.49163  0.53419  1.0000 -0.4598510995
I   I16       1.0  0.71165  0.00837  0.03419  1.0000 -0.4598510995
I   I17       1.0  0.84449  0.56685  0.06872  1.0000 -0.4598510995
I   I18       1.0  0.15551  0.93315  0.56872  1.0000 -0.4598510995
I   I19       1.0  0.34449  0.43315  0.43128  1.0000 -0.4598510995
I   I20       1.0  0.65551  0.06685  0.93128  1.0000 -0.4598510995
I   I21       1.0  0.58165  0.48436  0.10439  1.0000 -0.4318813512
I   I22       1.0  0.41835  0.01564  0.60439  1.0000 -0.4318813512
I   I23       1.0  0.08165  0.51564  0.39561  1.0000 -0.4318813512
I   I24       1.0  0.91835  0.98436  0.89561  1.0000 -0.4318813512
I   I25       1.0  0.34265  0.16668  0.17213  1.0000 -0.4543111978
I   I26       1.0  0.65735  0.33333  0.67213  1.0000 -0.4543111978
I   I27       1.0  0.84265  0.83332  0.32787  1.0000 -0.4543111978
I   I28       1.0  0.15735  0.66667  0.82787  1.0000 -0.4543111978
I   I29       1.0  0.18477  0.30111  0.19281  1.0000 -0.4598510995
I   I30       1.0  0.81523  0.19889  0.69281  1.0000 -0.4598510995
I   I31       1.0  0.68477  0.69889  0.30719  1.0000 -0.4598510995
I   I32       1.0  0.31523  0.80111  0.80719  1.0000 -0.4543111978
I   I33       1.0  0.21970  0.42000  0.12260  1.0000 -0.4318813512
I   I34       1.0  0.78030  0.08000  0.62260  1.0000 -0.4318813512
I   I35       1.0  0.71970  0.58000  0.37740  1.0000 -0.4318813512
I   I36       1.0  0.28030  0.92000  0.87740  1.0000 -0.4318813512
I   I37       1.0  0.21165  0.49163  0.03419  1.0000 -0.4598510995
I   I38       1.0  0.78835  0.00837  0.53419  1.0000 -0.4598510995
I   I39       1.0  0.71165  0.50837  0.46581  1.0000 -0.4598510995
I   I40       1.0  0.28835  0.99163  0.96581  1.0000 -0.4598510995
I   I41       1.0  0.15551  0.43315  0.93128  1.0000 -0.4598510995
I   I42       1.0  0.84449  0.06685  0.43128  1.0000 -0.4598510995
I   I43       1.0  0.65551  0.56685  0.56872  1.0000 -0.4598510995
I   I44       1.0  0.34449  0.93315  0.06872  1.0000 -0.4598510995
I   I45       1.0  0.41835  0.51564  0.89561  1.0000 -0.4318813512
I   I46       1.0  0.58165  0.98436  0.39561  1.0000 -0.4318813512
I   I47       1.0  0.91835  0.48436  0.60439  1.0000 -0.4318813512
I   I48       1.0  0.08165  0.01564  0.10439  1.0000 -0.4318813512
N   N1        1.0  0.99820  0.55820  0.92382  1.0000 -0.1725896289
N   N2        1.0  0.00180  0.94180  0.42382  1.0000 -0.1725896289
N   N3        1.0  0.49820  0.44180  0.57618  1.0000 -0.1725896289
N   N4        1.0  0.50180  0.05820  0.07618  1.0000 -0.1725896289
N   N5        1.0  0.59040  0.56480  0.03792  1.0000 -0.1827708001
N   N6        1.0  0.40960  0.93520  0.53792  1.0000 -0.1827708001
N   N7        1.0  0.09040  0.43520  0.46208  1.0000 -0.1827708001
N   N8        1.0  0.90960  0.06480  0.96208  1.0000 -0.1827708001
N   N9        1.0  0.57640  0.70680  0.84570  1.0000 -0.1725896289
N   N10       1.0  0.42360  0.79320  0.34570  1.0000 -0.1725896289
N   N11       1.0  0.07640  0.29320  0.65430  1.0000 -0.1725896289
N   N12       1.0  0.92360  0.20680  0.15430  1.0000 -0.1725896289
N   N13       1.0  0.33420  0.59510  0.96090  1.0000 -0.3832369072
N   N14       1.0  0.66580  0.90490  0.46090  1.0000 -0.3832369072
N   N15       1.0  0.83420  0.40490  0.53910  1.0000 -0.3832369072
N   N16       1.0  0.16580  0.09510  0.03910  1.0000 -0.3832369072
N   N17       1.0  0.47740  0.62880  0.94057  1.0000 -0.3832369072
N   N18       1.0  0.52260  0.87120  0.44057  1.0000 -0.3832369072
N   N19       1.0  0.97740  0.37120  0.55943  1.0000 -0.3832369072
N   N20       1.0  0.02260  0.12880  0.05943  1.0000 -0.3832369072
N   N21       1.0  0.32830  0.63320  0.91404  1.0000 -0.3712913168
N   N22       1.0  0.67170  0.86680  0.41404  1.0000 -0.3712913168
N   N23       1.0  0.82830  0.36680  0.58596  1.0000 -0.3712913168
N   N24       1.0  0.17170  0.13320  0.08596  1.0000 -0.3712913168
N   N25       1.0  0.57630  0.73300  0.77674  1.0000 -0.1725896289
N   N26       1.0  0.42370  0.76700  0.27674  1.0000 -0.1725896289
N   N27       1.0  0.07630  0.26700  0.72326  1.0000 -0.1725896289
N   N28       1.0  0.92370  0.23300  0.22326  1.0000 -0.1725896289
N   N29       1.0  0.39460  0.53650  0.60542  1.0000 -0.1725896289
N   N30       1.0  0.60540  0.96350  0.10542  1.0000 -0.1725896289
N   N31       1.0  0.89460  0.46350  0.89458  1.0000 -0.1725896289
N   N32       1.0  0.10540  0.03650  0.39458  1.0000 -0.1725896289
N   N33       1.0  0.38050  0.88370  0.59868  1.0000 -0.1827708001
N   N34       1.0  0.61950  0.61630  0.09868  1.0000 -0.1827708001
N   N35       1.0  0.88050  0.11630  0.90132  1.0000 -0.1827708001
N   N36       1.0  0.11950  0.38370  0.40132  1.0000 -0.1827708001
N   N37       1.0  0.46070  0.67230  0.67797  1.0000 -0.4089175212
N   N38       1.0  0.53930  0.82770  0.17797  1.0000 -0.4089175212
N   N39       1.0  0.96070  0.32770  0.82203  1.0000 -0.4089175212
N   N40       1.0  0.03930  0.17230  0.32203  1.0000 -0.4089175212
N   N41       1.0  0.42270  0.71130  0.63262  1.0000 -0.4089175212
N   N42       1.0  0.57730  0.78870  0.13262  1.0000 -0.4089175212
N   N43       1.0  0.92270  0.28870  0.86738  1.0000 -0.4089175212
N   N44       1.0  0.07730  0.21130  0.36738  1.0000 -0.4089175212
N   N45       1.0  0.45810  0.75830  0.67483  1.0000 -0.4089175212
N   N46       1.0  0.54190  0.74170  0.17483  1.0000 -0.4089175212
N   N47       1.0  0.95810  0.24170  0.82517  1.0000 -0.4089175212
N   N48       1.0  0.04190  0.25830  0.32517  1.0000 -0.4089175212
N   N49       1.0  0.00180  0.44180  0.07618  1.0000 -0.1725896289
N   N50       1.0  0.99820  0.05820  0.57618  1.0000 -0.1725896289
N   N51       1.0  0.50180  0.55820  0.42382  1.0000 -0.1725896289
N   N52       1.0  0.49820  0.94180  0.92382  1.0000 -0.1725896289
N   N53       1.0  0.40960  0.43520  0.96208  1.0000 -0.1827708001
N   N54       1.0  0.59040  0.06480  0.46208  1.0000 -0.1827708001
N   N55       1.0  0.90960  0.56480  0.53792  1.0000 -0.1827708001
N   N56       1.0  0.09040  0.93520  0.03792  1.0000 -0.1827708001
N   N57       1.0  0.42360  0.29320  0.15430  1.0000 -0.1725896289
N   N58       1.0  0.57640  0.20680  0.65430  1.0000 -0.1725896289
N   N59       1.0  0.92360  0.70680  0.34570  1.0000 -0.1725896289
N   N60       1.0  0.07640  0.79320  0.84570  1.0000 -0.1827708001
N   N61       1.0  0.66580  0.40490  0.03910  1.0000 -0.3832369072
N   N62       1.0  0.33420  0.09510  0.53910  1.0000 -0.3832369072
N   N63       1.0  0.16580  0.59510  0.46090  1.0000 -0.3832369072
N   N64       1.0  0.83420  0.90490  0.96090  1.0000 -0.3832369072
N   N65       1.0  0.52260  0.37120  0.05943  1.0000 -0.3832369072
N   N66       1.0  0.47740  0.12880  0.55943  1.0000 -0.3832369072
N   N67       1.0  0.02260  0.62880  0.44057  1.0000 -0.3832369072
N   N68       1.0  0.97740  0.87120  0.94057  1.0000 -0.3832369072
N   N69       1.0  0.67170  0.36680  0.08596  1.0000 -0.3712913168
N   N70       1.0  0.32830  0.13320  0.58596  1.0000 -0.3712913168
N   N71       1.0  0.17170  0.63320  0.41404  1.0000 -0.3712913168
N   N72       1.0  0.82830  0.86680  0.91404  1.0000 -0.3712913168
N   N73       1.0  0.42370  0.26700  0.22326  1.0000 -0.1725896289
N   N74       1.0  0.57630  0.23300  0.72326  1.0000 -0.1725896289
N   N75       1.0  0.92370  0.73300  0.27674  1.0000 -0.1725896289
N   N76       1.0  0.07630  0.76700  0.77674  1.0000 -0.1725896289
N   N77       1.0  0.60540  0.46350  0.39458  1.0000 -0.1725896289
N   N78       1.0  0.39460  0.03650  0.89458  1.0000 -0.1827708001
N   N79       1.0  0.10540  0.53650  0.10542  1.0000 -0.1725896289
N   N80       1.0  0.89460  0.96350  0.60542  1.0000 -0.1725896289
N   N81       1.0  0.61950  0.11630  0.40132  1.0000 -0.1827708001
N   N82       1.0  0.38050  0.38370  0.90132  1.0000 -0.1827708001
N   N83       1.0  0.11950  0.88370  0.09868  1.0000 -0.1827708001
N   N84       1.0  0.88050  0.61630  0.59868  1.0000 -0.1827708001
N   N85       1.0  0.53930  0.32770  0.32203  1.0000 -0.4089175212
N   N86       1.0  0.46070  0.17230  0.82203  1.0000 -0.4089175212
N   N87       1.0  0.03930  0.67230  0.17797  1.0000 -0.4089175212
N   N88       1.0  0.96070  0.82770  0.67797  1.0000 -0.4089175212
N   N89       1.0  0.57730  0.28870  0.36738  1.0000 -0.4089175212
N   N90       1.0  0.42270  0.21130  0.86738  1.0000 -0.4089175212
N   N91       1.0  0.07730  0.71130  0.13262  1.0000 -0.4089175212
N   N92       1.0  0.92270  0.78870  0.63262  1.0000 -0.4089175212
N   N93       1.0  0.54190  0.24170  0.32517  1.0000 -0.4089175212
N   N94       1.0  0.45810  0.25830  0.82517  1.0000 -0.4089175212
N   N95       1.0  0.04190  0.75830  0.17483  1.0000 -0.4089175212
N   N96       1.0  0.95810  0.74170  0.67483  1.0000 -0.4089175212
