# DDEC6 charges by PACMAN v1.1 (https://github.com/mtap-research/PACMAN-charge/)
data_2007[Zn][lta]3[FSR]2
_chemical_formula_sum              "Zn48 H480 C672 N192"
_cell_length_a       32.2441
_cell_length_b       32.2441
_cell_length_c       32.2441
_cell_angle_alpha    60
_cell_angle_beta     60
_cell_angle_gamma    60

_symmetry_space_group_name_H-M    "P 1"
_symmetry_Int_Tables_number       1

loop_
  _symmetry_equiv_pos_as_xyz
  'x, y, z'

loop_
  _atom_site_type_symbol
  _atom_site_label
  _atom_site_symmetry_multiplicity
  _atom_site_fract_x
  _atom_site_fract_y
  _atom_site_fract_z
  _atom_site_occupancy
  _atom_site_charge
Zn  Zn1       1.0  0.97451  0.15657  0.34299  1.0000 0.6386928263
Zn  Zn2       1.0  0.47407  0.65701  0.02549  1.0000 0.6386928263
Zn  Zn3       1.0  0.52593  0.34299  0.15657  1.0000 0.6386928263
Zn  Zn4       1.0  0.34299  0.97451  0.15657  1.0000 0.6386928263
Zn  Zn5       1.0  0.15657  0.97451  0.52593  1.0000 0.6386928263
Zn  Zn6       1.0  0.02549  0.84343  0.47407  1.0000 0.6386928263
Zn  Zn7       1.0  0.47407  0.84343  0.65701  1.0000 0.6386928263
Zn  Zn8       1.0  0.65701  0.47407  0.84343  1.0000 0.6386928263
Zn  Zn9       1.0  0.34299  0.52593  0.97451  1.0000 0.6386928263
Zn  Zn10      1.0  0.97451  0.34299  0.52593  1.0000 0.6386928263
Zn  Zn11      1.0  0.84343  0.02549  0.65701  1.0000 0.6386928263
Zn  Zn12      1.0  0.84343  0.47407  0.02549  1.0000 0.6386928263
Zn  Zn13      1.0  0.52593  0.15657  0.97451  1.0000 0.6386928263
Zn  Zn14      1.0  0.02549  0.65701  0.84343  1.0000 0.6386928263
Zn  Zn15      1.0  0.15657  0.52593  0.34299  1.0000 0.6386928263
Zn  Zn16      1.0  0.65701  0.02549  0.47407  1.0000 0.6386928263
Zn  Zn17      1.0  0.15657  0.34299  0.97451  1.0000 0.6386928263
Zn  Zn18      1.0  0.02549  0.47407  0.65701  1.0000 0.6386928263
Zn  Zn19      1.0  0.47407  0.02549  0.84343  1.0000 0.6386928263
Zn  Zn20      1.0  0.84343  0.65701  0.47407  1.0000 0.6386928263
Zn  Zn21      1.0  0.52593  0.97451  0.34299  1.0000 0.6386928263
Zn  Zn22      1.0  0.65701  0.84343  0.02549  1.0000 0.6386928263
Zn  Zn23      1.0  0.97451  0.52593  0.15657  1.0000 0.6386928263
Zn  Zn24      1.0  0.34299  0.15657  0.52593  1.0000 0.6386928263
Zn  Zn25      1.0  0.02549  0.84343  0.65701  1.0000 0.6386928263
Zn  Zn26      1.0  0.52593  0.34299  0.97451  1.0000 0.6386928263
Zn  Zn27      1.0  0.47407  0.65701  0.84343  1.0000 0.6386928263
Zn  Zn28      1.0  0.65701  0.02549  0.84343  1.0000 0.6386928263
Zn  Zn29      1.0  0.84343  0.02549  0.47407  1.0000 0.6386928263
Zn  Zn30      1.0  0.97451  0.15657  0.52593  1.0000 0.6386928263
Zn  Zn31      1.0  0.52593  0.15657  0.34299  1.0000 0.6386928263
Zn  Zn32      1.0  0.34299  0.52593  0.15657  1.0000 0.6386928263
Zn  Zn33      1.0  0.65701  0.47407  0.02549  1.0000 0.6386928263
Zn  Zn34      1.0  0.02549  0.65701  0.47407  1.0000 0.6386928263
Zn  Zn35      1.0  0.15657  0.97451  0.34299  1.0000 0.6386928263
Zn  Zn36      1.0  0.15657  0.52593  0.97451  1.0000 0.6386928263
Zn  Zn37      1.0  0.47407  0.84343  0.02549  1.0000 0.6386928263
Zn  Zn38      1.0  0.97451  0.34299  0.15657  1.0000 0.6386928263
Zn  Zn39      1.0  0.84343  0.47407  0.65701  1.0000 0.6386928263
Zn  Zn40      1.0  0.34299  0.97451  0.52593  1.0000 0.6386928263
Zn  Zn41      1.0  0.84343  0.65701  0.02549  1.0000 0.6386928263
Zn  Zn42      1.0  0.97451  0.52593  0.34299  1.0000 0.6386928263
Zn  Zn43      1.0  0.52593  0.97451  0.15657  1.0000 0.6386928263
Zn  Zn44      1.0  0.15657  0.34299  0.52593  1.0000 0.6386928263
Zn  Zn45      1.0  0.47407  0.02549  0.65701  1.0000 0.6386928263
Zn  Zn46      1.0  0.34299  0.15657  0.97451  1.0000 0.6386928263
Zn  Zn47      1.0  0.02549  0.47407  0.84343  1.0000 0.6386928263
Zn  Zn48      1.0  0.65701  0.84343  0.47407  1.0000 0.6386928263
H   H1        1.0  0.04930  0.04930  0.34750  1.0000 0.1002911629
H   H2        1.0  0.44610  0.65250  0.95070  1.0000 0.1002911629
H   H3        1.0  0.55390  0.34750  0.04930  1.0000 0.1002911629
H   H4        1.0  0.34750  0.04930  0.04930  1.0000 0.1002911629
H   H5        1.0  0.04930  0.04930  0.55390  1.0000 0.1002911629
H   H6        1.0  0.95070  0.95070  0.44610  1.0000 0.1002911629
H   H7        1.0  0.44610  0.95070  0.65250  1.0000 0.1002911629
H   H8        1.0  0.65250  0.44610  0.95070  1.0000 0.1002911629
H   H9        1.0  0.34750  0.55390  0.04930  1.0000 0.1002911629
H   H10       1.0  0.04930  0.34750  0.55390  1.0000 0.1002911629
H   H11       1.0  0.95070  0.95070  0.65250  1.0000 0.1002911629
H   H12       1.0  0.95070  0.44610  0.95070  1.0000 0.1002911629
H   H13       1.0  0.55390  0.04930  0.04930  1.0000 0.1002911629
H   H14       1.0  0.95070  0.65250  0.95070  1.0000 0.1002911629
H   H15       1.0  0.04930  0.55390  0.34750  1.0000 0.1002911629
H   H16       1.0  0.65250  0.95070  0.44610  1.0000 0.1002911629
H   H17       1.0  0.04930  0.34750  0.04930  1.0000 0.1002911629
H   H18       1.0  0.95070  0.44610  0.65250  1.0000 0.1002911629
H   H19       1.0  0.44610  0.95070  0.95070  1.0000 0.1002911629
H   H20       1.0  0.95070  0.65250  0.44610  1.0000 0.1002911629
H   H21       1.0  0.55390  0.04930  0.34750  1.0000 0.1002911629
H   H22       1.0  0.65250  0.95070  0.95070  1.0000 0.1002911629
H   H23       1.0  0.04930  0.55390  0.04930  1.0000 0.1002911629
H   H24       1.0  0.34750  0.04930  0.55390  1.0000 0.1002911629
H   H25       1.0  0.06330  0.20630  0.30070  1.0000 0.1222592533
H   H26       1.0  0.57030  0.69930  0.93670  1.0000 0.1222592533
H   H27       1.0  0.42970  0.30070  0.20630  1.0000 0.1222592533
H   H28       1.0  0.30070  0.06330  0.20630  1.0000 0.1222592533
H   H29       1.0  0.20630  0.06330  0.42970  1.0000 0.1222592533
H   H30       1.0  0.93670  0.79370  0.57030  1.0000 0.1222592533
H   H31       1.0  0.57030  0.79370  0.69930  1.0000 0.1222592533
H   H32       1.0  0.69930  0.57030  0.79370  1.0000 0.1222592533
H   H33       1.0  0.30070  0.42970  0.06330  1.0000 0.1222592533
H   H34       1.0  0.06330  0.30070  0.42970  1.0000 0.1222592533
H   H35       1.0  0.79370  0.93670  0.69930  1.0000 0.1222592533
H   H36       1.0  0.79370  0.57030  0.93670  1.0000 0.1222592533
H   H37       1.0  0.42970  0.20630  0.06330  1.0000 0.1222592533
H   H38       1.0  0.93670  0.69930  0.79370  1.0000 0.1222592533
H   H39       1.0  0.20630  0.42970  0.30070  1.0000 0.1222592533
H   H40       1.0  0.69930  0.93670  0.57030  1.0000 0.1222592533
H   H41       1.0  0.20630  0.30070  0.06330  1.0000 0.1222592533
H   H42       1.0  0.93670  0.57030  0.69930  1.0000 0.1222592533
H   H43       1.0  0.57030  0.93670  0.79370  1.0000 0.1222592533
H   H44       1.0  0.79370  0.69930  0.57030  1.0000 0.1222592533
H   H45       1.0  0.42970  0.06330  0.30070  1.0000 0.1222592533
H   H46       1.0  0.69930  0.79370  0.93670  1.0000 0.1222592533
H   H47       1.0  0.06330  0.42970  0.20630  1.0000 0.1222592533
H   H48       1.0  0.30070  0.20630  0.42970  1.0000 0.1222592533
H   H49       1.0  0.93670  0.79370  0.69930  1.0000 0.1222592533
H   H50       1.0  0.42970  0.30070  0.06330  1.0000 0.1222592533
H   H51       1.0  0.57030  0.69930  0.79370  1.0000 0.1222592533
H   H52       1.0  0.69930  0.93670  0.79370  1.0000 0.1222592533
H   H53       1.0  0.79370  0.93670  0.57030  1.0000 0.1222592533
H   H54       1.0  0.06330  0.20630  0.42970  1.0000 0.1222592533
H   H55       1.0  0.42970  0.20630  0.30070  1.0000 0.1222592533
H   H56       1.0  0.30070  0.42970  0.20630  1.0000 0.1222592533
H   H57       1.0  0.69930  0.57030  0.93670  1.0000 0.1222592533
H   H58       1.0  0.93670  0.69930  0.57030  1.0000 0.1222592533
H   H59       1.0  0.20630  0.06330  0.30070  1.0000 0.1222592533
H   H60       1.0  0.20630  0.42970  0.06330  1.0000 0.1222592533
H   H61       1.0  0.57030  0.79370  0.93670  1.0000 0.1222592533
H   H62       1.0  0.06330  0.30070  0.20630  1.0000 0.1222592533
H   H63       1.0  0.79370  0.57030  0.69930  1.0000 0.1222592533
H   H64       1.0  0.30070  0.06330  0.42970  1.0000 0.1222592533
H   H65       1.0  0.79370  0.69930  0.93670  1.0000 0.1222592533
H   H66       1.0  0.06330  0.42970  0.30070  1.0000 0.1222592533
H   H67       1.0  0.42970  0.06330  0.20630  1.0000 0.1222592533
H   H68       1.0  0.20630  0.30070  0.42970  1.0000 0.1222592533
H   H69       1.0  0.57030  0.93670  0.69930  1.0000 0.1222592533
H   H70       1.0  0.30070  0.20630  0.06330  1.0000 0.1222592533
H   H71       1.0  0.93670  0.57030  0.79370  1.0000 0.1222592533
H   H72       1.0  0.69930  0.79370  0.57030  1.0000 0.1222592533
H   H73       1.0  0.13810  0.21230  0.28110  1.0000 0.1002911629
H   H74       1.0  0.63150  0.71890  0.86190  1.0000 0.1002911629
H   H75       1.0  0.36850  0.28110  0.21230  1.0000 0.1002911629
H   H76       1.0  0.28110  0.13810  0.21230  1.0000 0.1002911629
H   H77       1.0  0.21230  0.13810  0.36850  1.0000 0.1002911629
H   H78       1.0  0.86190  0.78770  0.63150  1.0000 0.1002911629
H   H79       1.0  0.63150  0.78770  0.71890  1.0000 0.1002911629
H   H80       1.0  0.71890  0.63150  0.78770  1.0000 0.1002911629
H   H81       1.0  0.28110  0.36850  0.13810  1.0000 0.1002911629
H   H82       1.0  0.13810  0.28110  0.36850  1.0000 0.1002911629
H   H83       1.0  0.78770  0.86190  0.71890  1.0000 0.1002911629
H   H84       1.0  0.78770  0.63150  0.86190  1.0000 0.1002911629
H   H85       1.0  0.36850  0.21230  0.13810  1.0000 0.1002911629
H   H86       1.0  0.86190  0.71890  0.78770  1.0000 0.1002911629
H   H87       1.0  0.21230  0.36850  0.28110  1.0000 0.1002911629
H   H88       1.0  0.71890  0.86190  0.63150  1.0000 0.1002911629
H   H89       1.0  0.21230  0.28110  0.13810  1.0000 0.1002911629
H   H90       1.0  0.86190  0.63150  0.71890  1.0000 0.1002911629
H   H91       1.0  0.63150  0.86190  0.78770  1.0000 0.1002911629
H   H92       1.0  0.78770  0.71890  0.63150  1.0000 0.1002911629
H   H93       1.0  0.36850  0.13810  0.28110  1.0000 0.1002911629
H   H94       1.0  0.71890  0.78770  0.86190  1.0000 0.1002911629
H   H95       1.0  0.13810  0.36850  0.21230  1.0000 0.1002911629
H   H96       1.0  0.28110  0.21230  0.36850  1.0000 0.1002911629
H   H97       1.0  0.86190  0.78770  0.71890  1.0000 0.1002911629
H   H98       1.0  0.36850  0.28110  0.13810  1.0000 0.1002911629
H   H99       1.0  0.63150  0.71890  0.78770  1.0000 0.1002911629
H   H100      1.0  0.71890  0.86190  0.78770  1.0000 0.1002911629
H   H101      1.0  0.78770  0.86190  0.63150  1.0000 0.1002911629
H   H102      1.0  0.13810  0.21230  0.36850  1.0000 0.1002911629
H   H103      1.0  0.36850  0.21230  0.28110  1.0000 0.1002911629
H   H104      1.0  0.28110  0.36850  0.21230  1.0000 0.1002911629
H   H105      1.0  0.71890  0.63150  0.86190  1.0000 0.1002911629
H   H106      1.0  0.86190  0.71890  0.63150  1.0000 0.1002911629
H   H107      1.0  0.21230  0.13810  0.28110  1.0000 0.1002911629
H   H108      1.0  0.21230  0.36850  0.13810  1.0000 0.1002911629
H   H109      1.0  0.63150  0.78770  0.86190  1.0000 0.1002911629
H   H110      1.0  0.13810  0.28110  0.21230  1.0000 0.1002911629
H   H111      1.0  0.78770  0.63150  0.71890  1.0000 0.1002911629
H   H112      1.0  0.28110  0.13810  0.36850  1.0000 0.1002911629
H   H113      1.0  0.78770  0.71890  0.86190  1.0000 0.1002911629
H   H114      1.0  0.13810  0.36850  0.28110  1.0000 0.1002911629
H   H115      1.0  0.36850  0.13810  0.21230  1.0000 0.1002911629
H   H116      1.0  0.21230  0.28110  0.36850  1.0000 0.1002911629
H   H117      1.0  0.63150  0.86190  0.71890  1.0000 0.1002911629
H   H118      1.0  0.28110  0.21230  0.13810  1.0000 0.1002911629
H   H119      1.0  0.86190  0.63150  0.78770  1.0000 0.1002911629
H   H120      1.0  0.71890  0.78770  0.63150  1.0000 0.1002911629
H   H121      1.0  0.90830  0.09170  0.43910  1.0000 0.1002911629
H   H122      1.0  0.43910  0.56090  0.09170  1.0000 0.1002911629
H   H123      1.0  0.56090  0.43910  0.09170  1.0000 0.1002911629
H   H124      1.0  0.43910  0.90830  0.09170  1.0000 0.1002911629
H   H125      1.0  0.09170  0.90830  0.56090  1.0000 0.1002911629
H   H126      1.0  0.09170  0.90830  0.43910  1.0000 0.1002911629
H   H127      1.0  0.43910  0.90830  0.56090  1.0000 0.1002911629
H   H128      1.0  0.56090  0.43910  0.90830  1.0000 0.1002911629
H   H129      1.0  0.43910  0.56090  0.90830  1.0000 0.1002911629
H   H130      1.0  0.90830  0.43910  0.56090  1.0000 0.1002911629
H   H131      1.0  0.90830  0.09170  0.56090  1.0000 0.1002911629
H   H132      1.0  0.90830  0.43910  0.09170  1.0000 0.1002911629
H   H133      1.0  0.56090  0.09170  0.90830  1.0000 0.1002911629
H   H134      1.0  0.09170  0.56090  0.90830  1.0000 0.1002911629
H   H135      1.0  0.09170  0.56090  0.43910  1.0000 0.1002911629
H   H136      1.0  0.56090  0.09170  0.43910  1.0000 0.1002911629
H   H137      1.0  0.09170  0.43910  0.90830  1.0000 0.1002911629
H   H138      1.0  0.09170  0.43910  0.56090  1.0000 0.1002911629
H   H139      1.0  0.43910  0.09170  0.90830  1.0000 0.1002911629
H   H140      1.0  0.90830  0.56090  0.43910  1.0000 0.1002911629
H   H141      1.0  0.56090  0.90830  0.43910  1.0000 0.1002911629
H   H142      1.0  0.56090  0.90830  0.09170  1.0000 0.1002911629
H   H143      1.0  0.90830  0.56090  0.09170  1.0000 0.1002911629
H   H144      1.0  0.43910  0.09170  0.56090  1.0000 0.1002911629
H   H145      1.0  0.98310  0.11390  0.26230  1.0000 0.1387209932
H   H146      1.0  0.35930  0.73770  0.01690  1.0000 0.1387209932
H   H147      1.0  0.64070  0.26230  0.11390  1.0000 0.1387209932
H   H148      1.0  0.26230  0.98310  0.11390  1.0000 0.1387209932
H   H149      1.0  0.11390  0.98310  0.64070  1.0000 0.1387209932
H   H150      1.0  0.01690  0.88610  0.35930  1.0000 0.1387209932
H   H151      1.0  0.35930  0.88610  0.73770  1.0000 0.1387209932
H   H152      1.0  0.73770  0.35930  0.88610  1.0000 0.1387209932
H   H153      1.0  0.26230  0.64070  0.98310  1.0000 0.1387209932
H   H154      1.0  0.98310  0.26230  0.64070  1.0000 0.1387209932
H   H155      1.0  0.88610  0.01690  0.73770  1.0000 0.1387209932
H   H156      1.0  0.88610  0.35930  0.01690  1.0000 0.1387209932
H   H157      1.0  0.64070  0.11390  0.98310  1.0000 0.1387209932
H   H158      1.0  0.01690  0.73770  0.88610  1.0000 0.1387209932
H   H159      1.0  0.11390  0.64070  0.26230  1.0000 0.1387209932
H   H160      1.0  0.73770  0.01690  0.35930  1.0000 0.1387209932
H   H161      1.0  0.11390  0.26230  0.98310  1.0000 0.1387209932
H   H162      1.0  0.01690  0.35930  0.73770  1.0000 0.1387209932
H   H163      1.0  0.35930  0.01690  0.88610  1.0000 0.1387209932
H   H164      1.0  0.88610  0.73770  0.35930  1.0000 0.1387209932
H   H165      1.0  0.64070  0.98310  0.26230  1.0000 0.1387209932
H   H166      1.0  0.73770  0.88610  0.01690  1.0000 0.1387209932
H   H167      1.0  0.98310  0.64070  0.11390  1.0000 0.1387209932
H   H168      1.0  0.26230  0.11390  0.64070  1.0000 0.1387209932
H   H169      1.0  0.01690  0.88610  0.73770  1.0000 0.1387209932
H   H170      1.0  0.64070  0.26230  0.98310  1.0000 0.1387209932
H   H171      1.0  0.35930  0.73770  0.88610  1.0000 0.1387209932
H   H172      1.0  0.73770  0.01690  0.88610  1.0000 0.1387209932
H   H173      1.0  0.88610  0.01690  0.35930  1.0000 0.1387209932
H   H174      1.0  0.98310  0.11390  0.64070  1.0000 0.1387209932
H   H175      1.0  0.64070  0.11390  0.26230  1.0000 0.1387209932
H   H176      1.0  0.26230  0.64070  0.11390  1.0000 0.1387209932
H   H177      1.0  0.73770  0.35930  0.01690  1.0000 0.1387209932
H   H178      1.0  0.01690  0.73770  0.35930  1.0000 0.1387209932
H   H179      1.0  0.11390  0.98310  0.26230  1.0000 0.1387209932
H   H180      1.0  0.11390  0.64070  0.98310  1.0000 0.1387209932
H   H181      1.0  0.35930  0.88610  0.01690  1.0000 0.1387209932
H   H182      1.0  0.98310  0.26230  0.11390  1.0000 0.1387209932
H   H183      1.0  0.88610  0.35930  0.73770  1.0000 0.1387209932
H   H184      1.0  0.26230  0.98310  0.64070  1.0000 0.1387209932
H   H185      1.0  0.88610  0.73770  0.01690  1.0000 0.1387209932
H   H186      1.0  0.98310  0.64070  0.26230  1.0000 0.1387209932
H   H187      1.0  0.64070  0.98310  0.11390  1.0000 0.1387209932
H   H188      1.0  0.11390  0.26230  0.64070  1.0000 0.1387209932
H   H189      1.0  0.35930  0.01690  0.73770  1.0000 0.1387209932
H   H190      1.0  0.26230  0.11390  0.98310  1.0000 0.1387209932
H   H191      1.0  0.01690  0.35930  0.88610  1.0000 0.1387209932
H   H192      1.0  0.73770  0.88610  0.35930  1.0000 0.1387209932
H   H193      1.0  0.97960  0.06840  0.23260  1.0000 0.1222592533
H   H194      1.0  0.28060  0.76740  0.02040  1.0000 0.1222592533
H   H195      1.0  0.71940  0.23260  0.06840  1.0000 0.1222592533
H   H196      1.0  0.23260  0.97960  0.06840  1.0000 0.1222592533
H   H197      1.0  0.06840  0.97960  0.71940  1.0000 0.1222592533
H   H198      1.0  0.02040  0.93160  0.28060  1.0000 0.1222592533
H   H199      1.0  0.28060  0.93160  0.76740  1.0000 0.1222592533
H   H200      1.0  0.76740  0.28060  0.93160  1.0000 0.1222592533
H   H201      1.0  0.23260  0.71940  0.97960  1.0000 0.1222592533
H   H202      1.0  0.97960  0.23260  0.71940  1.0000 0.1222592533
H   H203      1.0  0.93160  0.02040  0.76740  1.0000 0.1222592533
H   H204      1.0  0.93160  0.28060  0.02040  1.0000 0.1222592533
H   H205      1.0  0.71940  0.06840  0.97960  1.0000 0.1222592533
H   H206      1.0  0.02040  0.76740  0.93160  1.0000 0.1222592533
H   H207      1.0  0.06840  0.71940  0.23260  1.0000 0.1222592533
H   H208      1.0  0.76740  0.02040  0.28060  1.0000 0.1222592533
H   H209      1.0  0.06840  0.23260  0.97960  1.0000 0.1222592533
H   H210      1.0  0.02040  0.28060  0.76740  1.0000 0.1222592533
H   H211      1.0  0.28060  0.02040  0.93160  1.0000 0.1222592533
H   H212      1.0  0.93160  0.76740  0.28060  1.0000 0.1222592533
H   H213      1.0  0.71940  0.97960  0.23260  1.0000 0.1222592533
H   H214      1.0  0.76740  0.93160  0.02040  1.0000 0.1222592533
H   H215      1.0  0.97960  0.71940  0.06840  1.0000 0.1222592533
H   H216      1.0  0.23260  0.06840  0.71940  1.0000 0.1222592533
H   H217      1.0  0.02040  0.93160  0.76740  1.0000 0.1222592533
H   H218      1.0  0.71940  0.23260  0.97960  1.0000 0.1222592533
H   H219      1.0  0.28060  0.76740  0.93160  1.0000 0.1222592533
H   H220      1.0  0.76740  0.02040  0.93160  1.0000 0.1222592533
H   H221      1.0  0.93160  0.02040  0.28060  1.0000 0.1222592533
H   H222      1.0  0.97960  0.06840  0.71940  1.0000 0.1222592533
H   H223      1.0  0.71940  0.06840  0.23260  1.0000 0.1222592533
H   H224      1.0  0.23260  0.71940  0.06840  1.0000 0.1222592533
H   H225      1.0  0.76740  0.28060  0.02040  1.0000 0.1222592533
H   H226      1.0  0.02040  0.76740  0.28060  1.0000 0.1222592533
H   H227      1.0  0.06840  0.97960  0.23260  1.0000 0.1222592533
H   H228      1.0  0.06840  0.71940  0.97960  1.0000 0.1222592533
H   H229      1.0  0.28060  0.93160  0.02040  1.0000 0.1222592533
H   H230      1.0  0.97960  0.23260  0.06840  1.0000 0.1222592533
H   H231      1.0  0.93160  0.28060  0.76740  1.0000 0.1222592533
H   H232      1.0  0.23260  0.97960  0.71940  1.0000 0.1222592533
H   H233      1.0  0.93160  0.76740  0.02040  1.0000 0.1222592533
H   H234      1.0  0.97960  0.71940  0.23260  1.0000 0.1222592533
H   H235      1.0  0.71940  0.97960  0.06840  1.0000 0.1222592533
H   H236      1.0  0.06840  0.23260  0.71940  1.0000 0.1222592533
H   H237      1.0  0.28060  0.02040  0.76740  1.0000 0.1222592533
H   H238      1.0  0.23260  0.06840  0.97960  1.0000 0.1222592533
H   H239      1.0  0.02040  0.28060  0.93160  1.0000 0.1222592533
H   H240      1.0  0.76740  0.93160  0.28060  1.0000 0.1222592533
H   H241      1.0  0.99960  0.12960  0.43540  1.0000 0.1002911629
H   H242      1.0  0.56460  0.56460  0.00040  1.0000 0.1002911629
H   H243      1.0  0.43540  0.43540  0.12960  1.0000 0.1002911629
H   H244      1.0  0.43540  0.99960  0.12960  1.0000 0.1002911629
H   H245      1.0  0.12960  0.99960  0.43540  1.0000 0.1002911629
H   H246      1.0  0.00040  0.87040  0.56460  1.0000 0.1002911629
H   H247      1.0  0.56460  0.87040  0.56460  1.0000 0.1002911629
H   H248      1.0  0.56460  0.56460  0.87040  1.0000 0.1002911629
H   H249      1.0  0.43540  0.43540  0.99960  1.0000 0.1002911629
H   H250      1.0  0.99960  0.43540  0.43540  1.0000 0.1002911629
H   H251      1.0  0.87040  0.00040  0.56460  1.0000 0.1002911629
H   H252      1.0  0.87040  0.56460  0.00040  1.0000 0.1002911629
H   H253      1.0  0.43540  0.12960  0.99960  1.0000 0.1002911629
H   H254      1.0  0.00040  0.56460  0.87040  1.0000 0.1002911629
H   H255      1.0  0.12960  0.43540  0.43540  1.0000 0.1002911629
H   H256      1.0  0.56460  0.00040  0.56460  1.0000 0.1002911629
H   H257      1.0  0.12960  0.43540  0.99960  1.0000 0.1002911629
H   H258      1.0  0.00040  0.56460  0.56460  1.0000 0.1002911629
H   H259      1.0  0.56460  0.00040  0.87040  1.0000 0.1002911629
H   H260      1.0  0.87040  0.56460  0.56460  1.0000 0.1002911629
H   H261      1.0  0.43540  0.99960  0.43540  1.0000 0.1002911629
H   H262      1.0  0.56460  0.87040  0.00040  1.0000 0.1002911629
H   H263      1.0  0.99960  0.43540  0.12960  1.0000 0.1002911629
H   H264      1.0  0.43540  0.12960  0.43540  1.0000 0.1002911629
H   H265      1.0  0.88040  0.26260  0.35740  1.0000 0.1222592533
H   H266      1.0  0.50040  0.64260  0.11960  1.0000 0.1222592533
H   H267      1.0  0.49960  0.35740  0.26260  1.0000 0.1222592533
H   H268      1.0  0.35740  0.88040  0.26260  1.0000 0.1222592533
H   H269      1.0  0.26260  0.88040  0.49960  1.0000 0.1222592533
H   H270      1.0  0.11960  0.73740  0.50040  1.0000 0.1222592533
H   H271      1.0  0.50040  0.73740  0.64260  1.0000 0.1222592533
H   H272      1.0  0.64260  0.50040  0.73740  1.0000 0.1222592533
H   H273      1.0  0.35740  0.49960  0.88040  1.0000 0.1222592533
H   H274      1.0  0.88040  0.35740  0.49960  1.0000 0.1222592533
H   H275      1.0  0.73740  0.11960  0.64260  1.0000 0.1222592533
H   H276      1.0  0.73740  0.50040  0.11960  1.0000 0.1222592533
H   H277      1.0  0.49960  0.26260  0.88040  1.0000 0.1222592533
H   H278      1.0  0.11960  0.64260  0.73740  1.0000 0.1222592533
H   H279      1.0  0.26260  0.49960  0.35740  1.0000 0.1222592533
H   H280      1.0  0.64260  0.11960  0.50040  1.0000 0.1222592533
H   H281      1.0  0.26260  0.35740  0.88040  1.0000 0.1222592533
H   H282      1.0  0.11960  0.50040  0.64260  1.0000 0.1222592533
H   H283      1.0  0.50040  0.11960  0.73740  1.0000 0.1222592533
H   H284      1.0  0.73740  0.64260  0.50040  1.0000 0.1222592533
H   H285      1.0  0.49960  0.88040  0.35740  1.0000 0.1222592533
H   H286      1.0  0.64260  0.73740  0.11960  1.0000 0.1222592533
H   H287      1.0  0.88040  0.49960  0.26260  1.0000 0.1222592533
H   H288      1.0  0.35740  0.26260  0.49960  1.0000 0.1222592533
H   H289      1.0  0.11960  0.73740  0.64260  1.0000 0.1222592533
H   H290      1.0  0.49960  0.35740  0.88040  1.0000 0.1222592533
H   H291      1.0  0.50040  0.64260  0.73740  1.0000 0.1222592533
H   H292      1.0  0.64260  0.11960  0.73740  1.0000 0.1222592533
H   H293      1.0  0.73740  0.11960  0.50040  1.0000 0.1222592533
H   H294      1.0  0.88040  0.26260  0.49960  1.0000 0.1222592533
H   H295      1.0  0.49960  0.26260  0.35740  1.0000 0.1222592533
H   H296      1.0  0.35740  0.49960  0.26260  1.0000 0.1222592533
H   H297      1.0  0.64260  0.50040  0.11960  1.0000 0.1222592533
H   H298      1.0  0.11960  0.64260  0.50040  1.0000 0.1222592533
H   H299      1.0  0.26260  0.88040  0.35740  1.0000 0.1222592533
H   H300      1.0  0.26260  0.49960  0.88040  1.0000 0.1222592533
H   H301      1.0  0.50040  0.73740  0.11960  1.0000 0.1222592533
H   H302      1.0  0.88040  0.35740  0.26260  1.0000 0.1222592533
H   H303      1.0  0.73740  0.50040  0.64260  1.0000 0.1222592533
H   H304      1.0  0.35740  0.88040  0.49960  1.0000 0.1222592533
H   H305      1.0  0.73740  0.64260  0.11960  1.0000 0.1222592533
H   H306      1.0  0.88040  0.49960  0.35740  1.0000 0.1222592533
H   H307      1.0  0.49960  0.88040  0.26260  1.0000 0.1222592533
H   H308      1.0  0.26260  0.35740  0.49960  1.0000 0.1222592533
H   H309      1.0  0.50040  0.11960  0.64260  1.0000 0.1222592533
H   H310      1.0  0.35740  0.26260  0.88040  1.0000 0.1222592533
H   H311      1.0  0.11960  0.50040  0.73740  1.0000 0.1222592533
H   H312      1.0  0.64260  0.73740  0.50040  1.0000 0.1222592533
H   H313      1.0  0.82130  0.32690  0.38890  1.0000 0.1002911629
H   H314      1.0  0.53710  0.61110  0.17870  1.0000 0.1002911629
H   H315      1.0  0.46290  0.38890  0.32690  1.0000 0.1002911629
H   H316      1.0  0.38890  0.82130  0.32690  1.0000 0.1002911629
H   H317      1.0  0.32690  0.82130  0.46290  1.0000 0.1002911629
H   H318      1.0  0.17870  0.67310  0.53710  1.0000 0.1002911629
H   H319      1.0  0.53710  0.67310  0.61110  1.0000 0.1002911629
H   H320      1.0  0.61110  0.53710  0.67310  1.0000 0.1002911629
H   H321      1.0  0.38890  0.46290  0.82130  1.0000 0.1002911629
H   H322      1.0  0.82130  0.38890  0.46290  1.0000 0.1002911629
H   H323      1.0  0.67310  0.17870  0.61110  1.0000 0.1002911629
H   H324      1.0  0.67310  0.53710  0.17870  1.0000 0.1002911629
H   H325      1.0  0.46290  0.32690  0.82130  1.0000 0.1002911629
H   H326      1.0  0.17870  0.61110  0.67310  1.0000 0.1002911629
H   H327      1.0  0.32690  0.46290  0.38890  1.0000 0.1002911629
H   H328      1.0  0.61110  0.17870  0.53710  1.0000 0.1002911629
H   H329      1.0  0.32690  0.38890  0.82130  1.0000 0.1002911629
H   H330      1.0  0.17870  0.53710  0.61110  1.0000 0.1002911629
H   H331      1.0  0.53710  0.17870  0.67310  1.0000 0.1002911629
H   H332      1.0  0.67310  0.61110  0.53710  1.0000 0.1002911629
H   H333      1.0  0.46290  0.82130  0.38890  1.0000 0.1002911629
H   H334      1.0  0.61110  0.67310  0.17870  1.0000 0.1002911629
H   H335      1.0  0.82130  0.46290  0.32690  1.0000 0.1002911629
H   H336      1.0  0.38890  0.32690  0.46290  1.0000 0.1002911629
H   H337      1.0  0.17870  0.67310  0.61110  1.0000 0.1002911629
H   H338      1.0  0.46290  0.38890  0.82130  1.0000 0.1002911629
H   H339      1.0  0.53710  0.61110  0.67310  1.0000 0.1002911629
H   H340      1.0  0.61110  0.17870  0.67310  1.0000 0.1002911629
H   H341      1.0  0.67310  0.17870  0.53710  1.0000 0.1002911629
H   H342      1.0  0.82130  0.32690  0.46290  1.0000 0.1002911629
H   H343      1.0  0.46290  0.32690  0.38890  1.0000 0.1002911629
H   H344      1.0  0.38890  0.46290  0.32690  1.0000 0.1002911629
H   H345      1.0  0.61110  0.53710  0.17870  1.0000 0.1002911629
H   H346      1.0  0.17870  0.61110  0.53710  1.0000 0.1002911629
H   H347      1.0  0.32690  0.82130  0.38890  1.0000 0.1002911629
H   H348      1.0  0.32690  0.46290  0.82130  1.0000 0.1002911629
H   H349      1.0  0.53710  0.67310  0.17870  1.0000 0.1002911629
H   H350      1.0  0.82130  0.38890  0.32690  1.0000 0.1002911629
H   H351      1.0  0.67310  0.53710  0.61110  1.0000 0.1002911629
H   H352      1.0  0.38890  0.82130  0.46290  1.0000 0.1002911629
H   H353      1.0  0.67310  0.61110  0.17870  1.0000 0.1002911629
H   H354      1.0  0.82130  0.46290  0.38890  1.0000 0.1002911629
H   H355      1.0  0.46290  0.82130  0.32690  1.0000 0.1002911629
H   H356      1.0  0.32690  0.38890  0.46290  1.0000 0.1002911629
H   H357      1.0  0.53710  0.17870  0.61110  1.0000 0.1002911629
H   H358      1.0  0.38890  0.32690  0.82130  1.0000 0.1002911629
H   H359      1.0  0.17870  0.53710  0.67310  1.0000 0.1002911629
H   H360      1.0  0.61110  0.67310  0.53710  1.0000 0.1002911629
H   H361      1.0  0.01240  0.24060  0.24060  1.0000 0.091450955
H   H362      1.0  0.49360  0.75940  0.98760  1.0000 0.091450955
H   H363      1.0  0.50640  0.24060  0.24060  1.0000 0.091450955
H   H364      1.0  0.24060  0.01240  0.24060  1.0000 0.091450955
H   H365      1.0  0.24060  0.01240  0.50640  1.0000 0.091450955
H   H366      1.0  0.98760  0.75940  0.49360  1.0000 0.091450955
H   H367      1.0  0.49360  0.75940  0.75940  1.0000 0.091450955
H   H368      1.0  0.75940  0.49360  0.75940  1.0000 0.091450955
H   H369      1.0  0.24060  0.50640  0.01240  1.0000 0.091450955
H   H370      1.0  0.01240  0.24060  0.50640  1.0000 0.091450955
H   H371      1.0  0.75940  0.98760  0.75940  1.0000 0.091450955
H   H372      1.0  0.75940  0.49360  0.98760  1.0000 0.091450955
H   H373      1.0  0.50640  0.24060  0.01240  1.0000 0.091450955
H   H374      1.0  0.98760  0.75940  0.75940  1.0000 0.091450955
H   H375      1.0  0.24060  0.50640  0.24060  1.0000 0.091450955
H   H376      1.0  0.75940  0.98760  0.49360  1.0000 0.091450955
H   H377      1.0  0.24060  0.24060  0.01240  1.0000 0.091450955
H   H378      1.0  0.98760  0.49360  0.75940  1.0000 0.091450955
H   H379      1.0  0.49360  0.98760  0.75940  1.0000 0.091450955
H   H380      1.0  0.75940  0.75940  0.49360  1.0000 0.091450955
H   H381      1.0  0.50640  0.01240  0.24060  1.0000 0.091450955
H   H382      1.0  0.75940  0.75940  0.98760  1.0000 0.091450955
H   H383      1.0  0.01240  0.50640  0.24060  1.0000 0.091450955
H   H384      1.0  0.24060  0.24060  0.50640  1.0000 0.091450955
H   H385      1.0  0.86750  0.18930  0.33110  1.0000 0.1295351316
H   H386      1.0  0.38790  0.66890  0.13250  1.0000 0.1295351316
H   H387      1.0  0.61210  0.33110  0.18930  1.0000 0.1295351316
H   H388      1.0  0.33110  0.86750  0.18930  1.0000 0.1295351316
H   H389      1.0  0.18930  0.86750  0.61210  1.0000 0.1295351316
H   H390      1.0  0.13250  0.81070  0.38790  1.0000 0.1295351316
H   H391      1.0  0.38790  0.81070  0.66890  1.0000 0.1295351316
H   H392      1.0  0.66890  0.38790  0.81070  1.0000 0.1295351316
H   H393      1.0  0.33110  0.61210  0.86750  1.0000 0.1295351316
H   H394      1.0  0.86750  0.33110  0.61210  1.0000 0.1295351316
H   H395      1.0  0.81070  0.13250  0.66890  1.0000 0.1295351316
H   H396      1.0  0.81070  0.38790  0.13250  1.0000 0.1295351316
H   H397      1.0  0.61210  0.18930  0.86750  1.0000 0.1295351316
H   H398      1.0  0.13250  0.66890  0.81070  1.0000 0.1295351316
H   H399      1.0  0.18930  0.61210  0.33110  1.0000 0.1295351316
H   H400      1.0  0.66890  0.13250  0.38790  1.0000 0.1295351316
H   H401      1.0  0.18930  0.33110  0.86750  1.0000 0.1295351316
H   H402      1.0  0.13250  0.38790  0.66890  1.0000 0.1295351316
H   H403      1.0  0.38790  0.13250  0.81070  1.0000 0.1295351316
H   H404      1.0  0.81070  0.66890  0.38790  1.0000 0.1295351316
H   H405      1.0  0.61210  0.86750  0.33110  1.0000 0.1295351316
H   H406      1.0  0.66890  0.81070  0.13250  1.0000 0.1295351316
H   H407      1.0  0.86750  0.61210  0.18930  1.0000 0.1295351316
H   H408      1.0  0.33110  0.18930  0.61210  1.0000 0.1295351316
H   H409      1.0  0.13250  0.81070  0.66890  1.0000 0.1295351316
H   H410      1.0  0.61210  0.33110  0.86750  1.0000 0.1295351316
H   H411      1.0  0.38790  0.66890  0.81070  1.0000 0.1295351316
H   H412      1.0  0.66890  0.13250  0.81070  1.0000 0.1295351316
H   H413      1.0  0.81070  0.13250  0.38790  1.0000 0.1295351316
H   H414      1.0  0.86750  0.18930  0.61210  1.0000 0.1295351316
H   H415      1.0  0.61210  0.18930  0.33110  1.0000 0.1295351316
H   H416      1.0  0.33110  0.61210  0.18930  1.0000 0.1295351316
H   H417      1.0  0.66890  0.38790  0.13250  1.0000 0.1295351316
H   H418      1.0  0.13250  0.66890  0.38790  1.0000 0.1295351316
H   H419      1.0  0.18930  0.86750  0.33110  1.0000 0.1295351316
H   H420      1.0  0.18930  0.61210  0.86750  1.0000 0.1295351316
H   H421      1.0  0.38790  0.81070  0.13250  1.0000 0.1295351316
H   H422      1.0  0.86750  0.33110  0.18930  1.0000 0.1295351316
H   H423      1.0  0.81070  0.38790  0.66890  1.0000 0.1295351316
H   H424      1.0  0.33110  0.86750  0.61210  1.0000 0.1295351316
H   H425      1.0  0.81070  0.66890  0.13250  1.0000 0.1295351316
H   H426      1.0  0.86750  0.61210  0.33110  1.0000 0.1295351316
H   H427      1.0  0.61210  0.86750  0.18930  1.0000 0.1295351316
H   H428      1.0  0.18930  0.33110  0.61210  1.0000 0.1295351316
H   H429      1.0  0.38790  0.13250  0.66890  1.0000 0.1295351316
H   H430      1.0  0.33110  0.18930  0.86750  1.0000 0.1295351316
H   H431      1.0  0.13250  0.38790  0.81070  1.0000 0.1295351316
H   H432      1.0  0.66890  0.81070  0.38790  1.0000 0.1295351316
H   H433      1.0  0.79800  0.23640  0.30940  1.0000 0.1002911629
H   H434      1.0  0.34380  0.69060  0.20200  1.0000 0.1002911629
H   H435      1.0  0.65620  0.30940  0.23640  1.0000 0.1002911629
H   H436      1.0  0.30940  0.79800  0.23640  1.0000 0.1002911629
H   H437      1.0  0.23640  0.79800  0.65620  1.0000 0.1002911629
H   H438      1.0  0.20200  0.76360  0.34380  1.0000 0.1002911629
H   H439      1.0  0.34380  0.76360  0.69060  1.0000 0.1002911629
H   H440      1.0  0.69060  0.34380  0.76360  1.0000 0.1002911629
H   H441      1.0  0.30940  0.65620  0.79800  1.0000 0.1002911629
H   H442      1.0  0.79800  0.30940  0.65620  1.0000 0.1002911629
H   H443      1.0  0.76360  0.20200  0.69060  1.0000 0.1002911629
H   H444      1.0  0.76360  0.34380  0.20200  1.0000 0.1002911629
H   H445      1.0  0.65620  0.23640  0.79800  1.0000 0.1002911629
H   H446      1.0  0.20200  0.69060  0.76360  1.0000 0.1002911629
H   H447      1.0  0.23640  0.65620  0.30940  1.0000 0.1002911629
H   H448      1.0  0.69060  0.20200  0.34380  1.0000 0.1002911629
H   H449      1.0  0.23640  0.30940  0.79800  1.0000 0.1002911629
H   H450      1.0  0.20200  0.34380  0.69060  1.0000 0.1002911629
H   H451      1.0  0.34380  0.20200  0.76360  1.0000 0.1002911629
H   H452      1.0  0.76360  0.69060  0.34380  1.0000 0.1002911629
H   H453      1.0  0.65620  0.79800  0.30940  1.0000 0.1002911629
H   H454      1.0  0.69060  0.76360  0.20200  1.0000 0.1002911629
H   H455      1.0  0.79800  0.65620  0.23640  1.0000 0.1002911629
H   H456      1.0  0.30940  0.23640  0.65620  1.0000 0.1002911629
H   H457      1.0  0.20200  0.76360  0.69060  1.0000 0.1002911629
H   H458      1.0  0.65620  0.30940  0.79800  1.0000 0.1002911629
H   H459      1.0  0.34380  0.69060  0.76360  1.0000 0.1002911629
H   H460      1.0  0.69060  0.20200  0.76360  1.0000 0.1002911629
H   H461      1.0  0.76360  0.20200  0.34380  1.0000 0.1002911629
H   H462      1.0  0.79800  0.23640  0.65620  1.0000 0.1002911629
H   H463      1.0  0.65620  0.23640  0.30940  1.0000 0.1002911629
H   H464      1.0  0.30940  0.65620  0.23640  1.0000 0.1002911629
H   H465      1.0  0.69060  0.34380  0.20200  1.0000 0.1002911629
H   H466      1.0  0.20200  0.69060  0.34380  1.0000 0.1002911629
H   H467      1.0  0.23640  0.79800  0.30940  1.0000 0.1002911629
H   H468      1.0  0.23640  0.65620  0.79800  1.0000 0.1002911629
H   H469      1.0  0.34380  0.76360  0.20200  1.0000 0.1002911629
H   H470      1.0  0.79800  0.30940  0.23640  1.0000 0.1002911629
H   H471      1.0  0.76360  0.34380  0.69060  1.0000 0.1002911629
H   H472      1.0  0.30940  0.79800  0.65620  1.0000 0.1002911629
H   H473      1.0  0.76360  0.69060  0.20200  1.0000 0.1002911629
H   H474      1.0  0.79800  0.65620  0.30940  1.0000 0.1002911629
H   H475      1.0  0.65620  0.79800  0.23640  1.0000 0.1002911629
H   H476      1.0  0.23640  0.30940  0.65620  1.0000 0.1002911629
H   H477      1.0  0.34380  0.20200  0.69060  1.0000 0.1002911629
H   H478      1.0  0.30940  0.23640  0.79800  1.0000 0.1002911629
H   H479      1.0  0.20200  0.34380  0.76360  1.0000 0.1002911629
H   H480      1.0  0.69060  0.76360  0.34380  1.0000 0.1002911629
C   C1        1.0  0.06870  0.06870  0.33730  1.0000 0.1732387235
C   C2        1.0  0.47470  0.66270  0.93130  1.0000 0.1732387235
C   C3        1.0  0.52530  0.33730  0.06870  1.0000 0.1732387235
C   C4        1.0  0.33730  0.06870  0.06870  1.0000 0.1732387235
C   C5        1.0  0.06870  0.06870  0.52530  1.0000 0.1732387235
C   C6        1.0  0.93130  0.93130  0.47470  1.0000 0.1732387235
C   C7        1.0  0.47470  0.93130  0.66270  1.0000 0.1732387235
C   C8        1.0  0.66270  0.47470  0.93130  1.0000 0.1732387235
C   C9        1.0  0.33730  0.52530  0.06870  1.0000 0.1732387235
C   C10       1.0  0.06870  0.33730  0.52530  1.0000 0.1732387235
C   C11       1.0  0.93130  0.93130  0.66270  1.0000 0.1732387235
C   C12       1.0  0.93130  0.47470  0.93130  1.0000 0.1732387235
C   C13       1.0  0.52530  0.06870  0.06870  1.0000 0.1732387235
C   C14       1.0  0.93130  0.66270  0.93130  1.0000 0.1732387235
C   C15       1.0  0.06870  0.52530  0.33730  1.0000 0.1732387235
C   C16       1.0  0.66270  0.93130  0.47470  1.0000 0.1732387235
C   C17       1.0  0.06870  0.33730  0.06870  1.0000 0.1732387235
C   C18       1.0  0.93130  0.47470  0.66270  1.0000 0.1732387235
C   C19       1.0  0.47470  0.93130  0.93130  1.0000 0.1732387235
C   C20       1.0  0.93130  0.66270  0.47470  1.0000 0.1732387235
C   C21       1.0  0.52530  0.06870  0.33730  1.0000 0.1732387235
C   C22       1.0  0.66270  0.93130  0.93130  1.0000 0.1732387235
C   C23       1.0  0.06870  0.52530  0.06870  1.0000 0.1732387235
C   C24       1.0  0.33730  0.06870  0.52530  1.0000 0.1732387235
C   C25       1.0  0.08850  0.13230  0.31530  1.0000 0.1222592533
C   C26       1.0  0.53610  0.68470  0.91150  1.0000 0.1222592533
C   C27       1.0  0.46390  0.31530  0.13230  1.0000 0.1222592533
C   C28       1.0  0.31530  0.08850  0.13230  1.0000 0.1222592533
C   C29       1.0  0.13230  0.08850  0.46390  1.0000 0.1222592533
C   C30       1.0  0.91150  0.86770  0.53610  1.0000 0.1222592533
C   C31       1.0  0.53610  0.86770  0.68470  1.0000 0.1222592533
C   C32       1.0  0.68470  0.53610  0.86770  1.0000 0.1222592533
C   C33       1.0  0.31530  0.46390  0.08850  1.0000 0.1222592533
C   C34       1.0  0.08850  0.31530  0.46390  1.0000 0.1222592533
C   C35       1.0  0.86770  0.91150  0.68470  1.0000 0.1222592533
C   C36       1.0  0.86770  0.53610  0.91150  1.0000 0.1222592533
C   C37       1.0  0.46390  0.13230  0.08850  1.0000 0.1222592533
C   C38       1.0  0.91150  0.68470  0.86770  1.0000 0.1222592533
C   C39       1.0  0.13230  0.46390  0.31530  1.0000 0.1222592533
C   C40       1.0  0.68470  0.91150  0.53610  1.0000 0.1222592533
C   C41       1.0  0.13230  0.31530  0.08850  1.0000 0.1222592533
C   C42       1.0  0.91150  0.53610  0.68470  1.0000 0.1222592533
C   C43       1.0  0.53610  0.91150  0.86770  1.0000 0.1222592533
C   C44       1.0  0.86770  0.68470  0.53610  1.0000 0.1222592533
C   C45       1.0  0.46390  0.08850  0.31530  1.0000 0.1222592533
C   C46       1.0  0.68470  0.86770  0.91150  1.0000 0.1222592533
C   C47       1.0  0.08850  0.46390  0.13230  1.0000 0.1222592533
C   C48       1.0  0.31530  0.13230  0.46390  1.0000 0.1222592533
C   C49       1.0  0.91150  0.86770  0.68470  1.0000 0.1222592533
C   C50       1.0  0.46390  0.31530  0.08850  1.0000 0.1222592533
C   C51       1.0  0.53610  0.68470  0.86770  1.0000 0.1222592533
C   C52       1.0  0.68470  0.91150  0.86770  1.0000 0.1222592533
C   C53       1.0  0.86770  0.91150  0.53610  1.0000 0.1222592533
C   C54       1.0  0.08850  0.13230  0.46390  1.0000 0.1222592533
C   C55       1.0  0.46390  0.13230  0.31530  1.0000 0.1222592533
C   C56       1.0  0.31530  0.46390  0.13230  1.0000 0.1222592533
C   C57       1.0  0.68470  0.53610  0.91150  1.0000 0.1222592533
C   C58       1.0  0.91150  0.68470  0.53610  1.0000 0.1222592533
C   C59       1.0  0.13230  0.08850  0.31530  1.0000 0.1222592533
C   C60       1.0  0.13230  0.46390  0.08850  1.0000 0.1222592533
C   C61       1.0  0.53610  0.86770  0.91150  1.0000 0.1222592533
C   C62       1.0  0.08850  0.31530  0.13230  1.0000 0.1222592533
C   C63       1.0  0.86770  0.53610  0.68470  1.0000 0.1222592533
C   C64       1.0  0.31530  0.08850  0.46390  1.0000 0.1222592533
C   C65       1.0  0.86770  0.68470  0.91150  1.0000 0.1222592533
C   C66       1.0  0.08850  0.46390  0.31530  1.0000 0.1222592533
C   C67       1.0  0.46390  0.08850  0.13230  1.0000 0.1222592533
C   C68       1.0  0.13230  0.31530  0.46390  1.0000 0.1222592533
C   C69       1.0  0.53610  0.91150  0.68470  1.0000 0.1222592533
C   C70       1.0  0.31530  0.13230  0.08850  1.0000 0.1222592533
C   C71       1.0  0.91150  0.53610  0.86770  1.0000 0.1222592533
C   C72       1.0  0.68470  0.86770  0.53610  1.0000 0.1222592533
C   C73       1.0  0.09200  0.17740  0.30160  1.0000 -0.167938846
C   C74       1.0  0.57100  0.69840  0.90800  1.0000 -0.167938846
C   C75       1.0  0.42900  0.30160  0.17740  1.0000 -0.167938846
C   C76       1.0  0.30160  0.09200  0.17740  1.0000 -0.167938846
C   C77       1.0  0.17740  0.09200  0.42900  1.0000 -0.167938846
C   C78       1.0  0.90800  0.82260  0.57100  1.0000 -0.167938846
C   C79       1.0  0.57100  0.82260  0.69840  1.0000 -0.167938846
C   C80       1.0  0.69840  0.57100  0.82260  1.0000 -0.167938846
C   C81       1.0  0.30160  0.42900  0.09200  1.0000 -0.167938846
C   C82       1.0  0.09200  0.30160  0.42900  1.0000 -0.167938846
C   C83       1.0  0.82260  0.90800  0.69840  1.0000 -0.167938846
C   C84       1.0  0.82260  0.57100  0.90800  1.0000 -0.167938846
C   C85       1.0  0.42900  0.17740  0.09200  1.0000 -0.167938846
C   C86       1.0  0.90800  0.69840  0.82260  1.0000 -0.167938846
C   C87       1.0  0.17740  0.42900  0.30160  1.0000 -0.167938846
C   C88       1.0  0.69840  0.90800  0.57100  1.0000 -0.167938846
C   C89       1.0  0.17740  0.30160  0.09200  1.0000 -0.167938846
C   C90       1.0  0.90800  0.57100  0.69840  1.0000 -0.167938846
C   C91       1.0  0.57100  0.90800  0.82260  1.0000 -0.167938846
C   C92       1.0  0.82260  0.69840  0.57100  1.0000 -0.167938846
C   C93       1.0  0.42900  0.09200  0.30160  1.0000 -0.167938846
C   C94       1.0  0.69840  0.82260  0.90800  1.0000 -0.167938846
C   C95       1.0  0.09200  0.42900  0.17740  1.0000 -0.167938846
C   C96       1.0  0.30160  0.17740  0.42900  1.0000 -0.167938846
C   C97       1.0  0.90800  0.82260  0.69840  1.0000 -0.167938846
C   C98       1.0  0.42900  0.30160  0.09200  1.0000 -0.167938846
C   C99       1.0  0.57100  0.69840  0.82260  1.0000 -0.167938846
C   C100      1.0  0.69840  0.90800  0.82260  1.0000 -0.167938846
C   C101      1.0  0.82260  0.90800  0.57100  1.0000 -0.167938846
C   C102      1.0  0.09200  0.17740  0.42900  1.0000 -0.167938846
C   C103      1.0  0.42900  0.17740  0.30160  1.0000 -0.167938846
C   C104      1.0  0.30160  0.42900  0.17740  1.0000 -0.167938846
C   C105      1.0  0.69840  0.57100  0.90800  1.0000 -0.167938846
C   C106      1.0  0.90800  0.69840  0.57100  1.0000 -0.167938846
C   C107      1.0  0.17740  0.09200  0.30160  1.0000 -0.167938846
C   C108      1.0  0.17740  0.42900  0.09200  1.0000 -0.167938846
C   C109      1.0  0.57100  0.82260  0.90800  1.0000 -0.167938846
C   C110      1.0  0.09200  0.30160  0.17740  1.0000 -0.167938846
C   C111      1.0  0.82260  0.57100  0.69840  1.0000 -0.167938846
C   C112      1.0  0.30160  0.09200  0.42900  1.0000 -0.167938846
C   C113      1.0  0.82260  0.69840  0.90800  1.0000 -0.167938846
C   C114      1.0  0.09200  0.42900  0.30160  1.0000 -0.167938846
C   C115      1.0  0.42900  0.09200  0.17740  1.0000 -0.167938846
C   C116      1.0  0.17740  0.30160  0.42900  1.0000 -0.167938846
C   C117      1.0  0.57100  0.90800  0.69840  1.0000 -0.167938846
C   C118      1.0  0.30160  0.17740  0.09200  1.0000 -0.167938846
C   C119      1.0  0.90800  0.57100  0.82260  1.0000 -0.167938846
C   C120      1.0  0.69840  0.82260  0.57100  1.0000 -0.167938846
C   C121      1.0  0.13600  0.18100  0.28960  1.0000 -0.1077863725
C   C122      1.0  0.60660  0.71040  0.86400  1.0000 -0.1077863725
C   C123      1.0  0.39340  0.28960  0.18100  1.0000 -0.1077863725
C   C124      1.0  0.28960  0.13600  0.18100  1.0000 -0.1077863725
C   C125      1.0  0.18100  0.13600  0.39340  1.0000 -0.1077863725
C   C126      1.0  0.86400  0.81900  0.60660  1.0000 -0.1077863725
C   C127      1.0  0.60660  0.81900  0.71040  1.0000 -0.1077863725
C   C128      1.0  0.71040  0.60660  0.81900  1.0000 -0.1077863725
C   C129      1.0  0.28960  0.39340  0.13600  1.0000 -0.1077863725
C   C130      1.0  0.13600  0.28960  0.39340  1.0000 -0.1077863725
C   C131      1.0  0.81900  0.86400  0.71040  1.0000 -0.1077863725
C   C132      1.0  0.81900  0.60660  0.86400  1.0000 -0.1077863725
C   C133      1.0  0.39340  0.18100  0.13600  1.0000 -0.1077863725
C   C134      1.0  0.86400  0.71040  0.81900  1.0000 -0.1077863725
C   C135      1.0  0.18100  0.39340  0.28960  1.0000 -0.1077863725
C   C136      1.0  0.71040  0.86400  0.60660  1.0000 -0.1077863725
C   C137      1.0  0.18100  0.28960  0.13600  1.0000 -0.1077863725
C   C138      1.0  0.86400  0.60660  0.71040  1.0000 -0.1077863725
C   C139      1.0  0.60660  0.86400  0.81900  1.0000 -0.1077863725
C   C140      1.0  0.81900  0.71040  0.60660  1.0000 -0.1077863725
C   C141      1.0  0.39340  0.13600  0.28960  1.0000 -0.1077863725
C   C142      1.0  0.71040  0.81900  0.86400  1.0000 -0.1077863725
C   C143      1.0  0.13600  0.39340  0.18100  1.0000 -0.1077863725
C   C144      1.0  0.28960  0.18100  0.39340  1.0000 -0.1077863725
C   C145      1.0  0.86400  0.81900  0.71040  1.0000 -0.1077863725
C   C146      1.0  0.39340  0.28960  0.13600  1.0000 -0.1077863725
C   C147      1.0  0.60660  0.71040  0.81900  1.0000 -0.1077863725
C   C148      1.0  0.71040  0.86400  0.81900  1.0000 -0.1077863725
C   C149      1.0  0.81900  0.86400  0.60660  1.0000 -0.1077863725
C   C150      1.0  0.13600  0.18100  0.39340  1.0000 -0.1077863725
C   C151      1.0  0.39340  0.18100  0.28960  1.0000 -0.1077863725
C   C152      1.0  0.28960  0.39340  0.18100  1.0000 -0.1077863725
C   C153      1.0  0.71040  0.60660  0.86400  1.0000 -0.1077863725
C   C154      1.0  0.86400  0.71040  0.60660  1.0000 -0.1077863725
C   C155      1.0  0.18100  0.13600  0.28960  1.0000 -0.1077863725
C   C156      1.0  0.18100  0.39340  0.13600  1.0000 -0.1077863725
C   C157      1.0  0.60660  0.81900  0.86400  1.0000 -0.1077863725
C   C158      1.0  0.13600  0.28960  0.18100  1.0000 -0.1077863725
C   C159      1.0  0.81900  0.60660  0.71040  1.0000 -0.1077863725
C   C160      1.0  0.28960  0.13600  0.39340  1.0000 -0.1077863725
C   C161      1.0  0.81900  0.71040  0.86400  1.0000 -0.1077863725
C   C162      1.0  0.13600  0.39340  0.28960  1.0000 -0.1077863725
C   C163      1.0  0.39340  0.13600  0.18100  1.0000 -0.1077863725
C   C164      1.0  0.18100  0.28960  0.39340  1.0000 -0.1077863725
C   C165      1.0  0.60660  0.86400  0.71040  1.0000 -0.1077863725
C   C166      1.0  0.28960  0.18100  0.13600  1.0000 -0.1077863725
C   C167      1.0  0.86400  0.60660  0.81900  1.0000 -0.1049415579
C   C168      1.0  0.71040  0.81900  0.60660  1.0000 -0.1077863725
C   C169      1.0  0.91420  0.08580  0.41080  1.0000 0.1295351316
C   C170      1.0  0.41080  0.58920  0.08580  1.0000 0.1295351316
C   C171      1.0  0.58920  0.41080  0.08580  1.0000 0.1295351316
C   C172      1.0  0.41080  0.91420  0.08580  1.0000 0.1295351316
C   C173      1.0  0.08580  0.91420  0.58920  1.0000 0.1295351316
C   C174      1.0  0.08580  0.91420  0.41080  1.0000 0.1295351316
C   C175      1.0  0.41080  0.91420  0.58920  1.0000 0.1295351316
C   C176      1.0  0.58920  0.41080  0.91420  1.0000 0.1295351316
C   C177      1.0  0.41080  0.58920  0.91420  1.0000 0.1295351316
C   C178      1.0  0.91420  0.41080  0.58920  1.0000 0.1295351316
C   C179      1.0  0.91420  0.08580  0.58920  1.0000 0.1295351316
C   C180      1.0  0.91420  0.41080  0.08580  1.0000 0.1295351316
C   C181      1.0  0.58920  0.08580  0.91420  1.0000 0.1295351316
C   C182      1.0  0.08580  0.58920  0.91420  1.0000 0.1295351316
C   C183      1.0  0.08580  0.58920  0.41080  1.0000 0.1295351316
C   C184      1.0  0.58920  0.08580  0.41080  1.0000 0.1295351316
C   C185      1.0  0.08580  0.41080  0.91420  1.0000 0.1295351316
C   C186      1.0  0.08580  0.41080  0.58920  1.0000 0.1295351316
C   C187      1.0  0.41080  0.08580  0.91420  1.0000 0.1295351316
C   C188      1.0  0.91420  0.58920  0.41080  1.0000 0.1295351316
C   C189      1.0  0.58920  0.91420  0.41080  1.0000 0.1295351316
C   C190      1.0  0.58920  0.91420  0.08580  1.0000 0.1295351316
C   C191      1.0  0.91420  0.58920  0.08580  1.0000 0.1295351316
C   C192      1.0  0.41080  0.08580  0.58920  1.0000 0.1295351316
C   C193      1.0  0.94300  0.08760  0.33420  1.0000 0.1067148128
C   C194      1.0  0.36480  0.66580  0.05700  1.0000 0.1067148128
C   C195      1.0  0.63520  0.33420  0.08760  1.0000 0.1067148128
C   C196      1.0  0.33420  0.94300  0.08760  1.0000 0.1067148128
C   C197      1.0  0.08760  0.94300  0.63520  1.0000 0.1067148128
C   C198      1.0  0.05700  0.91240  0.36480  1.0000 0.1067148128
C   C199      1.0  0.36480  0.91240  0.66580  1.0000 0.1067148128
C   C200      1.0  0.66580  0.36480  0.91240  1.0000 0.1067148128
C   C201      1.0  0.33420  0.63520  0.94300  1.0000 0.1067148128
C   C202      1.0  0.94300  0.33420  0.63520  1.0000 0.1067148128
C   C203      1.0  0.91240  0.05700  0.66580  1.0000 0.1067148128
C   C204      1.0  0.91240  0.36480  0.05700  1.0000 0.1067148128
C   C205      1.0  0.63520  0.08760  0.94300  1.0000 0.1067148128
C   C206      1.0  0.05700  0.66580  0.91240  1.0000 0.1067148128
C   C207      1.0  0.08760  0.63520  0.33420  1.0000 0.1067148128
C   C208      1.0  0.66580  0.05700  0.36480  1.0000 0.1067148128
C   C209      1.0  0.08760  0.33420  0.94300  1.0000 0.1067148128
C   C210      1.0  0.05700  0.36480  0.66580  1.0000 0.1067148128
C   C211      1.0  0.36480  0.05700  0.91240  1.0000 0.1067148128
C   C212      1.0  0.91240  0.66580  0.36480  1.0000 0.1067148128
C   C213      1.0  0.63520  0.94300  0.33420  1.0000 0.1067148128
C   C214      1.0  0.66580  0.91240  0.05700  1.0000 0.1067148128
C   C215      1.0  0.94300  0.63520  0.08760  1.0000 0.1067148128
C   C216      1.0  0.33420  0.08760  0.63520  1.0000 0.1067148128
C   C217      1.0  0.05700  0.91240  0.66580  1.0000 0.1067148128
C   C218      1.0  0.63520  0.33420  0.94300  1.0000 0.1067148128
C   C219      1.0  0.36480  0.66580  0.91240  1.0000 0.1067148128
C   C220      1.0  0.66580  0.05700  0.91240  1.0000 0.1067148128
C   C221      1.0  0.91240  0.05700  0.36480  1.0000 0.1067148128
C   C222      1.0  0.94300  0.08760  0.63520  1.0000 0.1067148128
C   C223      1.0  0.63520  0.08760  0.33420  1.0000 0.1067148128
C   C224      1.0  0.33420  0.63520  0.08760  1.0000 0.1067148128
C   C225      1.0  0.66580  0.36480  0.05700  1.0000 0.1067148128
C   C226      1.0  0.05700  0.66580  0.36480  1.0000 0.1067148128
C   C227      1.0  0.08760  0.94300  0.33420  1.0000 0.1067148128
C   C228      1.0  0.08760  0.63520  0.94300  1.0000 0.1067148128
C   C229      1.0  0.36480  0.91240  0.05700  1.0000 0.1067148128
C   C230      1.0  0.94300  0.33420  0.08760  1.0000 0.1067148128
C   C231      1.0  0.91240  0.36480  0.66580  1.0000 0.1067148128
C   C232      1.0  0.33420  0.94300  0.63520  1.0000 0.1067148128
C   C233      1.0  0.91240  0.66580  0.05700  1.0000 0.1067148128
C   C234      1.0  0.94300  0.63520  0.33420  1.0000 0.1067148128
C   C235      1.0  0.63520  0.94300  0.08760  1.0000 0.1067148128
C   C236      1.0  0.08760  0.33420  0.63520  1.0000 0.1067148128
C   C237      1.0  0.36480  0.05700  0.66580  1.0000 0.1067148128
C   C238      1.0  0.33420  0.08760  0.94300  1.0000 0.1067148128
C   C239      1.0  0.05700  0.36480  0.91240  1.0000 0.1067148128
C   C240      1.0  0.66580  0.91240  0.36480  1.0000 0.1067148128
C   C241      1.0  0.96480  0.09160  0.28440  1.0000 -0.194131353
C   C242      1.0  0.34080  0.71560  0.03520  1.0000 -0.194131353
C   C243      1.0  0.65920  0.28440  0.09160  1.0000 -0.194131353
C   C244      1.0  0.28440  0.96480  0.09160  1.0000 -0.194131353
C   C245      1.0  0.09160  0.96480  0.65920  1.0000 -0.194131353
C   C246      1.0  0.03520  0.90840  0.34080  1.0000 -0.194131353
C   C247      1.0  0.34080  0.90840  0.71560  1.0000 -0.194131353
C   C248      1.0  0.71560  0.34080  0.90840  1.0000 -0.194131353
C   C249      1.0  0.28440  0.65920  0.96480  1.0000 -0.194131353
C   C250      1.0  0.96480  0.28440  0.65920  1.0000 -0.194131353
C   C251      1.0  0.90840  0.03520  0.71560  1.0000 -0.194131353
C   C252      1.0  0.90840  0.34080  0.03520  1.0000 -0.194131353
C   C253      1.0  0.65920  0.09160  0.96480  1.0000 -0.194131353
C   C254      1.0  0.03520  0.71560  0.90840  1.0000 -0.194131353
C   C255      1.0  0.09160  0.65920  0.28440  1.0000 -0.194131353
C   C256      1.0  0.71560  0.03520  0.34080  1.0000 -0.194131353
C   C257      1.0  0.09160  0.28440  0.96480  1.0000 -0.194131353
C   C258      1.0  0.03520  0.34080  0.71560  1.0000 -0.194131353
C   C259      1.0  0.34080  0.03520  0.90840  1.0000 -0.194131353
C   C260      1.0  0.90840  0.71560  0.34080  1.0000 -0.194131353
C   C261      1.0  0.65920  0.96480  0.28440  1.0000 -0.194131353
C   C262      1.0  0.71560  0.90840  0.03520  1.0000 -0.194131353
C   C263      1.0  0.96480  0.65920  0.09160  1.0000 -0.194131353
C   C264      1.0  0.28440  0.09160  0.65920  1.0000 -0.194131353
C   C265      1.0  0.03520  0.90840  0.71560  1.0000 -0.194131353
C   C266      1.0  0.65920  0.28440  0.96480  1.0000 -0.194131353
C   C267      1.0  0.34080  0.71560  0.90840  1.0000 -0.194131353
C   C268      1.0  0.71560  0.03520  0.90840  1.0000 -0.194131353
C   C269      1.0  0.90840  0.03520  0.34080  1.0000 -0.194131353
C   C270      1.0  0.96480  0.09160  0.65920  1.0000 -0.194131353
C   C271      1.0  0.65920  0.09160  0.28440  1.0000 -0.194131353
C   C272      1.0  0.28440  0.65920  0.09160  1.0000 -0.194131353
C   C273      1.0  0.71560  0.34080  0.03520  1.0000 -0.194131353
C   C274      1.0  0.03520  0.71560  0.34080  1.0000 -0.194131353
C   C275      1.0  0.09160  0.96480  0.28440  1.0000 -0.194131353
C   C276      1.0  0.09160  0.65920  0.96480  1.0000 -0.194131353
C   C277      1.0  0.34080  0.90840  0.03520  1.0000 -0.194131353
C   C278      1.0  0.96480  0.28440  0.09160  1.0000 -0.194131353
C   C279      1.0  0.90840  0.34080  0.71560  1.0000 -0.194131353
C   C280      1.0  0.28440  0.96480  0.65920  1.0000 -0.194131353
C   C281      1.0  0.90840  0.71560  0.03520  1.0000 -0.194131353
C   C282      1.0  0.96480  0.65920  0.28440  1.0000 -0.194131353
C   C283      1.0  0.65920  0.96480  0.09160  1.0000 -0.194131353
C   C284      1.0  0.09160  0.28440  0.65920  1.0000 -0.194131353
C   C285      1.0  0.34080  0.03520  0.71560  1.0000 -0.194131353
C   C286      1.0  0.28440  0.09160  0.96480  1.0000 -0.194131353
C   C287      1.0  0.03520  0.34080  0.90840  1.0000 -0.194131353
C   C288      1.0  0.71560  0.90840  0.34080  1.0000 -0.194131353
C   C289      1.0  0.96140  0.06640  0.26640  1.0000 -0.1077863725
C   C290      1.0  0.29420  0.73360  0.03860  1.0000 -0.1077863725
C   C291      1.0  0.70580  0.26640  0.06640  1.0000 -0.1077863725
C   C292      1.0  0.26640  0.96140  0.06640  1.0000 -0.1077863725
C   C293      1.0  0.06640  0.96140  0.70580  1.0000 -0.1077863725
C   C294      1.0  0.03860  0.93360  0.29420  1.0000 -0.1077863725
C   C295      1.0  0.29420  0.93360  0.73360  1.0000 -0.1077863725
C   C296      1.0  0.73360  0.29420  0.93360  1.0000 -0.1077863725
C   C297      1.0  0.26640  0.70580  0.96140  1.0000 -0.1077863725
C   C298      1.0  0.96140  0.26640  0.70580  1.0000 -0.1077863725
C   C299      1.0  0.93360  0.03860  0.73360  1.0000 -0.1077863725
C   C300      1.0  0.93360  0.29420  0.03860  1.0000 -0.1077863725
C   C301      1.0  0.70580  0.06640  0.96140  1.0000 -0.1077863725
C   C302      1.0  0.03860  0.73360  0.93360  1.0000 -0.1077863725
C   C303      1.0  0.06640  0.70580  0.26640  1.0000 -0.1077863725
C   C304      1.0  0.73360  0.03860  0.29420  1.0000 -0.1077863725
C   C305      1.0  0.06640  0.26640  0.96140  1.0000 -0.1077863725
C   C306      1.0  0.03860  0.29420  0.73360  1.0000 -0.1077863725
C   C307      1.0  0.29420  0.03860  0.93360  1.0000 -0.1077863725
C   C308      1.0  0.93360  0.73360  0.29420  1.0000 -0.1077863725
C   C309      1.0  0.70580  0.96140  0.26640  1.0000 -0.1077863725
C   C310      1.0  0.73360  0.93360  0.03860  1.0000 -0.1077863725
C   C311      1.0  0.96140  0.70580  0.06640  1.0000 -0.1077863725
C   C312      1.0  0.26640  0.06640  0.70580  1.0000 -0.1077863725
C   C313      1.0  0.03860  0.93360  0.73360  1.0000 -0.1077863725
C   C314      1.0  0.70580  0.26640  0.96140  1.0000 -0.1077863725
C   C315      1.0  0.29420  0.73360  0.93360  1.0000 -0.1077863725
C   C316      1.0  0.73360  0.03860  0.93360  1.0000 -0.1077863725
C   C317      1.0  0.93360  0.03860  0.29420  1.0000 -0.1077863725
C   C318      1.0  0.96140  0.06640  0.70580  1.0000 -0.1077863725
C   C319      1.0  0.70580  0.06640  0.26640  1.0000 -0.1077863725
C   C320      1.0  0.26640  0.70580  0.06640  1.0000 -0.1077863725
C   C321      1.0  0.73360  0.29420  0.03860  1.0000 -0.1077863725
C   C322      1.0  0.03860  0.73360  0.29420  1.0000 -0.1077863725
C   C323      1.0  0.06640  0.96140  0.26640  1.0000 -0.1077863725
C   C324      1.0  0.06640  0.70580  0.96140  1.0000 -0.1077863725
C   C325      1.0  0.29420  0.93360  0.03860  1.0000 -0.1077863725
C   C326      1.0  0.96140  0.26640  0.06640  1.0000 -0.1077863725
C   C327      1.0  0.93360  0.29420  0.73360  1.0000 -0.1077863725
C   C328      1.0  0.26640  0.96140  0.70580  1.0000 -0.1077863725
C   C329      1.0  0.93360  0.73360  0.03860  1.0000 -0.1077863725
C   C330      1.0  0.96140  0.70580  0.26640  1.0000 -0.1077863725
C   C331      1.0  0.70580  0.96140  0.06640  1.0000 -0.1077863725
C   C332      1.0  0.06640  0.26640  0.70580  1.0000 -0.1077863725
C   C333      1.0  0.29420  0.03860  0.73360  1.0000 -0.1077863725
C   C334      1.0  0.26640  0.06640  0.96140  1.0000 -0.1077863725
C   C335      1.0  0.03860  0.29420  0.93360  1.0000 -0.1077863725
C   C336      1.0  0.73360  0.93360  0.29420  1.0000 -0.1077863725
C   C337      1.0  0.97180  0.15940  0.43440  1.0000 0.1575253999
C   C338      1.0  0.56560  0.56560  0.02820  1.0000 0.1575253999
C   C339      1.0  0.43440  0.43440  0.15940  1.0000 0.1575253999
C   C340      1.0  0.43440  0.97180  0.15940  1.0000 0.1575253999
C   C341      1.0  0.15940  0.97180  0.43440  1.0000 0.1575253999
C   C342      1.0  0.02820  0.84060  0.56560  1.0000 0.1575253999
C   C343      1.0  0.56560  0.84060  0.56560  1.0000 0.1575253999
C   C344      1.0  0.56560  0.56560  0.84060  1.0000 0.1575253999
C   C345      1.0  0.43440  0.43440  0.97180  1.0000 0.1575253999
C   C346      1.0  0.97180  0.43440  0.43440  1.0000 0.1575253999
C   C347      1.0  0.84060  0.02820  0.56560  1.0000 0.1575253999
C   C348      1.0  0.84060  0.56560  0.02820  1.0000 0.1575253999
C   C349      1.0  0.43440  0.15940  0.97180  1.0000 0.1575253999
C   C350      1.0  0.02820  0.56560  0.84060  1.0000 0.1575253999
C   C351      1.0  0.15940  0.43440  0.43440  1.0000 0.1575253999
C   C352      1.0  0.56560  0.02820  0.56560  1.0000 0.1575253999
C   C353      1.0  0.15940  0.43440  0.97180  1.0000 0.1575253999
C   C354      1.0  0.02820  0.56560  0.56560  1.0000 0.1575253999
C   C355      1.0  0.56560  0.02820  0.84060  1.0000 0.1575253999
C   C356      1.0  0.84060  0.56560  0.56560  1.0000 0.1575253999
C   C357      1.0  0.43440  0.97180  0.43440  1.0000 0.1575253999
C   C358      1.0  0.56560  0.84060  0.02820  1.0000 0.1575253999
C   C359      1.0  0.97180  0.43440  0.15940  1.0000 0.1575253999
C   C360      1.0  0.43440  0.15940  0.43440  1.0000 0.1575253999
C   C361      1.0  0.91200  0.22380  0.41080  1.0000 0.1222592533
C   C362      1.0  0.54660  0.58920  0.08800  1.0000 0.1222592533
C   C363      1.0  0.45340  0.41080  0.22380  1.0000 0.1222592533
C   C364      1.0  0.41080  0.91200  0.22380  1.0000 0.1222592533
C   C365      1.0  0.22380  0.91200  0.45340  1.0000 0.1222592533
C   C366      1.0  0.08800  0.77620  0.54660  1.0000 0.1222592533
C   C367      1.0  0.54660  0.77620  0.58920  1.0000 0.1222592533
C   C368      1.0  0.58920  0.54660  0.77620  1.0000 0.1222592533
C   C369      1.0  0.41080  0.45340  0.91200  1.0000 0.1222592533
C   C370      1.0  0.91200  0.41080  0.45340  1.0000 0.1222592533
C   C371      1.0  0.77620  0.08800  0.58920  1.0000 0.1222592533
C   C372      1.0  0.77620  0.54660  0.08800  1.0000 0.1222592533
C   C373      1.0  0.45340  0.22380  0.91200  1.0000 0.1222592533
C   C374      1.0  0.08800  0.58920  0.77620  1.0000 0.1222592533
C   C375      1.0  0.22380  0.45340  0.41080  1.0000 0.1222592533
C   C376      1.0  0.58920  0.08800  0.54660  1.0000 0.1222592533
C   C377      1.0  0.22380  0.41080  0.91200  1.0000 0.1222592533
C   C378      1.0  0.08800  0.54660  0.58920  1.0000 0.1222592533
C   C379      1.0  0.54660  0.08800  0.77620  1.0000 0.1222592533
C   C380      1.0  0.77620  0.58920  0.54660  1.0000 0.1222592533
C   C381      1.0  0.45340  0.91200  0.41080  1.0000 0.1222592533
C   C382      1.0  0.58920  0.77620  0.08800  1.0000 0.1222592533
C   C383      1.0  0.91200  0.45340  0.22380  1.0000 0.1222592533
C   C384      1.0  0.41080  0.22380  0.45340  1.0000 0.1222592533
C   C385      1.0  0.08800  0.77620  0.58920  1.0000 0.1222592533
C   C386      1.0  0.45340  0.41080  0.91200  1.0000 0.1222592533
C   C387      1.0  0.54660  0.58920  0.77620  1.0000 0.1222592533
C   C388      1.0  0.58920  0.08800  0.77620  1.0000 0.1222592533
C   C389      1.0  0.77620  0.08800  0.54660  1.0000 0.1222592533
C   C390      1.0  0.91200  0.22380  0.45340  1.0000 0.1222592533
C   C391      1.0  0.45340  0.22380  0.41080  1.0000 0.1222592533
C   C392      1.0  0.41080  0.45340  0.22380  1.0000 0.1222592533
C   C393      1.0  0.58920  0.54660  0.08800  1.0000 0.1222592533
C   C394      1.0  0.08800  0.58920  0.54660  1.0000 0.1222592533
C   C395      1.0  0.22380  0.91200  0.41080  1.0000 0.1222592533
C   C396      1.0  0.22380  0.45340  0.91200  1.0000 0.1222592533
C   C397      1.0  0.54660  0.77620  0.08800  1.0000 0.1222592533
C   C398      1.0  0.91200  0.41080  0.22380  1.0000 0.1222592533
C   C399      1.0  0.77620  0.54660  0.58920  1.0000 0.1222592533
C   C400      1.0  0.41080  0.91200  0.45340  1.0000 0.1222592533
C   C401      1.0  0.77620  0.58920  0.08800  1.0000 0.1222592533
C   C402      1.0  0.91200  0.45340  0.41080  1.0000 0.1222592533
C   C403      1.0  0.45340  0.91200  0.22380  1.0000 0.1222592533
C   C404      1.0  0.22380  0.41080  0.45340  1.0000 0.1222592533
C   C405      1.0  0.54660  0.08800  0.58920  1.0000 0.1222592533
C   C406      1.0  0.41080  0.22380  0.91200  1.0000 0.1222592533
C   C407      1.0  0.08800  0.54660  0.77620  1.0000 0.1222592533
C   C408      1.0  0.58920  0.77620  0.54660  1.0000 0.1222592533
C   C409      1.0  0.87930  0.26230  0.38690  1.0000 -0.167938846
C   C410      1.0  0.52850  0.61310  0.12070  1.0000 -0.167938846
C   C411      1.0  0.47150  0.38690  0.26230  1.0000 -0.167938846
C   C412      1.0  0.38690  0.87930  0.26230  1.0000 -0.167938846
C   C413      1.0  0.26230  0.87930  0.47150  1.0000 -0.167938846
C   C414      1.0  0.12070  0.73770  0.52850  1.0000 -0.167938846
C   C415      1.0  0.52850  0.73770  0.61310  1.0000 -0.167938846
C   C416      1.0  0.61310  0.52850  0.73770  1.0000 -0.167938846
C   C417      1.0  0.38690  0.47150  0.87930  1.0000 -0.167938846
C   C418      1.0  0.87930  0.38690  0.47150  1.0000 -0.167938846
C   C419      1.0  0.73770  0.12070  0.61310  1.0000 -0.167938846
C   C420      1.0  0.73770  0.52850  0.12070  1.0000 -0.167938846
C   C421      1.0  0.47150  0.26230  0.87930  1.0000 -0.167938846
C   C422      1.0  0.12070  0.61310  0.73770  1.0000 -0.167938846
C   C423      1.0  0.26230  0.47150  0.38690  1.0000 -0.167938846
C   C424      1.0  0.61310  0.12070  0.52850  1.0000 -0.167938846
C   C425      1.0  0.26230  0.38690  0.87930  1.0000 -0.167938846
C   C426      1.0  0.12070  0.52850  0.61310  1.0000 -0.167938846
C   C427      1.0  0.52850  0.12070  0.73770  1.0000 -0.167938846
C   C428      1.0  0.73770  0.61310  0.52850  1.0000 -0.167938846
C   C429      1.0  0.47150  0.87930  0.38690  1.0000 -0.167938846
C   C430      1.0  0.61310  0.73770  0.12070  1.0000 -0.167938846
C   C431      1.0  0.87930  0.47150  0.26230  1.0000 -0.167938846
C   C432      1.0  0.38690  0.26230  0.47150  1.0000 -0.167938846
C   C433      1.0  0.12070  0.73770  0.61310  1.0000 -0.167938846
C   C434      1.0  0.47150  0.38690  0.87930  1.0000 -0.167938846
C   C435      1.0  0.52850  0.61310  0.73770  1.0000 -0.167938846
C   C436      1.0  0.61310  0.12070  0.73770  1.0000 -0.167938846
C   C437      1.0  0.73770  0.12070  0.52850  1.0000 -0.167938846
C   C438      1.0  0.87930  0.26230  0.47150  1.0000 -0.167938846
C   C439      1.0  0.47150  0.26230  0.38690  1.0000 -0.167938846
C   C440      1.0  0.38690  0.47150  0.26230  1.0000 -0.167938846
C   C441      1.0  0.61310  0.52850  0.12070  1.0000 -0.167938846
C   C442      1.0  0.12070  0.61310  0.52850  1.0000 -0.167938846
C   C443      1.0  0.26230  0.87930  0.38690  1.0000 -0.167938846
C   C444      1.0  0.26230  0.47150  0.87930  1.0000 -0.167938846
C   C445      1.0  0.52850  0.73770  0.12070  1.0000 -0.167938846
C   C446      1.0  0.87930  0.38690  0.26230  1.0000 -0.167938846
C   C447      1.0  0.73770  0.52850  0.61310  1.0000 -0.167938846
C   C448      1.0  0.38690  0.87930  0.47150  1.0000 -0.167938846
C   C449      1.0  0.73770  0.61310  0.12070  1.0000 -0.167938846
C   C450      1.0  0.87930  0.47150  0.38690  1.0000 -0.167938846
C   C451      1.0  0.47150  0.87930  0.26230  1.0000 -0.167938846
C   C452      1.0  0.26230  0.38690  0.47150  1.0000 -0.167938846
C   C453      1.0  0.52850  0.12070  0.61310  1.0000 -0.167938846
C   C454      1.0  0.38690  0.26230  0.87930  1.0000 -0.167938846
C   C455      1.0  0.12070  0.52850  0.73770  1.0000 -0.167938846
C   C456      1.0  0.61310  0.73770  0.52850  1.0000 -0.167938846
C   C457      1.0  0.84480  0.30080  0.40500  1.0000 -0.1077863725
C   C458      1.0  0.55060  0.59500  0.15520  1.0000 -0.1077863725
C   C459      1.0  0.44940  0.40500  0.30080  1.0000 -0.1077863725
C   C460      1.0  0.40500  0.84480  0.30080  1.0000 -0.1077863725
C   C461      1.0  0.30080  0.84480  0.44940  1.0000 -0.1077863725
C   C462      1.0  0.15520  0.69920  0.55060  1.0000 -0.1077863725
C   C463      1.0  0.55060  0.69920  0.59500  1.0000 -0.1077863725
C   C464      1.0  0.59500  0.55060  0.69920  1.0000 -0.1077863725
C   C465      1.0  0.40500  0.44940  0.84480  1.0000 -0.1077863725
C   C466      1.0  0.84480  0.40500  0.44940  1.0000 -0.1077863725
C   C467      1.0  0.69920  0.15520  0.59500  1.0000 -0.1077863725
C   C468      1.0  0.69920  0.55060  0.15520  1.0000 -0.1077863725
C   C469      1.0  0.44940  0.30080  0.84480  1.0000 -0.1077863725
C   C470      1.0  0.15520  0.59500  0.69920  1.0000 -0.1077863725
C   C471      1.0  0.30080  0.44940  0.40500  1.0000 -0.1077863725
C   C472      1.0  0.59500  0.15520  0.55060  1.0000 -0.1077863725
C   C473      1.0  0.30080  0.40500  0.84480  1.0000 -0.1077863725
C   C474      1.0  0.15520  0.55060  0.59500  1.0000 -0.1077863725
C   C475      1.0  0.55060  0.15520  0.69920  1.0000 -0.1077863725
C   C476      1.0  0.69920  0.59500  0.55060  1.0000 -0.1077863725
C   C477      1.0  0.44940  0.84480  0.40500  1.0000 -0.1077863725
C   C478      1.0  0.59500  0.69920  0.15520  1.0000 -0.1077863725
C   C479      1.0  0.84480  0.44940  0.30080  1.0000 -0.1077863725
C   C480      1.0  0.40500  0.30080  0.44940  1.0000 -0.1077863725
C   C481      1.0  0.15520  0.69920  0.59500  1.0000 -0.1077863725
C   C482      1.0  0.44940  0.40500  0.84480  1.0000 -0.1077863725
C   C483      1.0  0.55060  0.59500  0.69920  1.0000 -0.1077863725
C   C484      1.0  0.59500  0.15520  0.69920  1.0000 -0.1077863725
C   C485      1.0  0.69920  0.15520  0.55060  1.0000 -0.1077863725
C   C486      1.0  0.84480  0.30080  0.44940  1.0000 -0.1077863725
C   C487      1.0  0.44940  0.30080  0.40500  1.0000 -0.1077863725
C   C488      1.0  0.40500  0.44940  0.30080  1.0000 -0.1077863725
C   C489      1.0  0.59500  0.55060  0.15520  1.0000 -0.1077863725
C   C490      1.0  0.15520  0.59500  0.55060  1.0000 -0.1077863725
C   C491      1.0  0.30080  0.84480  0.40500  1.0000 -0.1077863725
C   C492      1.0  0.30080  0.44940  0.84480  1.0000 -0.1077863725
C   C493      1.0  0.55060  0.69920  0.15520  1.0000 -0.1077863725
C   C494      1.0  0.84480  0.40500  0.30080  1.0000 -0.1077863725
C   C495      1.0  0.69920  0.55060  0.59500  1.0000 -0.1077863725
C   C496      1.0  0.40500  0.84480  0.44940  1.0000 -0.1077863725
C   C497      1.0  0.69920  0.59500  0.15520  1.0000 -0.1077863725
C   C498      1.0  0.84480  0.44940  0.40500  1.0000 -0.1077863725
C   C499      1.0  0.44940  0.84480  0.30080  1.0000 -0.1077863725
C   C500      1.0  0.30080  0.40500  0.44940  1.0000 -0.1077863725
C   C501      1.0  0.55060  0.15520  0.59500  1.0000 -0.1077863725
C   C502      1.0  0.40500  0.30080  0.84480  1.0000 -0.1077863725
C   C503      1.0  0.15520  0.55060  0.69920  1.0000 -0.1077863725
C   C504      1.0  0.59500  0.69920  0.55060  1.0000 -0.1077863725
C   C505      1.0  0.97990  0.24470  0.24470  1.0000 0.1575253999
C   C506      1.0  0.46930  0.75530  0.02010  1.0000 0.1575253999
C   C507      1.0  0.53070  0.24470  0.24470  1.0000 0.1575253999
C   C508      1.0  0.24470  0.97990  0.24470  1.0000 0.1575253999
C   C509      1.0  0.24470  0.97990  0.53070  1.0000 0.1575253999
C   C510      1.0  0.02010  0.75530  0.46930  1.0000 0.1575253999
C   C511      1.0  0.46930  0.75530  0.75530  1.0000 0.1575253999
C   C512      1.0  0.75530  0.46930  0.75530  1.0000 0.1575253999
C   C513      1.0  0.24470  0.53070  0.97990  1.0000 0.1549489687
C   C514      1.0  0.97990  0.24470  0.53070  1.0000 0.1549489687
C   C515      1.0  0.75530  0.02010  0.75530  1.0000 0.1575253999
C   C516      1.0  0.75530  0.46930  0.02010  1.0000 0.1575253999
C   C517      1.0  0.53070  0.24470  0.97990  1.0000 0.1549489687
C   C518      1.0  0.02010  0.75530  0.75530  1.0000 0.1575253999
C   C519      1.0  0.24470  0.53070  0.24470  1.0000 0.1575253999
C   C520      1.0  0.75530  0.02010  0.46930  1.0000 0.1549489687
C   C521      1.0  0.24470  0.24470  0.97990  1.0000 0.1575253999
C   C522      1.0  0.02010  0.46930  0.75530  1.0000 0.1575253999
C   C523      1.0  0.46930  0.02010  0.75530  1.0000 0.1575253999
C   C524      1.0  0.75530  0.75530  0.46930  1.0000 0.1575253999
C   C525      1.0  0.53070  0.97990  0.24470  1.0000 0.1575253999
C   C526      1.0  0.75530  0.75530  0.02010  1.0000 0.1575253999
C   C527      1.0  0.97990  0.53070  0.24470  1.0000 0.1575253999
C   C528      1.0  0.24470  0.24470  0.53070  1.0000 0.1549489687
C   C529      1.0  0.90990  0.23370  0.27570  1.0000 0.1067148128
C   C530      1.0  0.41930  0.72430  0.09010  1.0000 0.1002911629
C   C531      1.0  0.58070  0.27570  0.23370  1.0000 0.1002911629
C   C532      1.0  0.27570  0.90990  0.23370  1.0000 0.1002911629
C   C533      1.0  0.23370  0.90990  0.58070  1.0000 0.1002911629
C   C534      1.0  0.09010  0.76630  0.41930  1.0000 0.1067148128
C   C535      1.0  0.41930  0.76630  0.72430  1.0000 0.1067148128
C   C536      1.0  0.72430  0.41930  0.76630  1.0000 0.1067148128
C   C537      1.0  0.27570  0.58070  0.90990  1.0000 0.1067148128
C   C538      1.0  0.90990  0.27570  0.58070  1.0000 0.1067148128
C   C539      1.0  0.76630  0.09010  0.72430  1.0000 0.1067148128
C   C540      1.0  0.76630  0.41930  0.09010  1.0000 0.1067148128
C   C541      1.0  0.58070  0.23370  0.90990  1.0000 0.1067148128
C   C542      1.0  0.09010  0.72430  0.76630  1.0000 0.1067148128
C   C543      1.0  0.23370  0.58070  0.27570  1.0000 0.1002911629
C   C544      1.0  0.72430  0.09010  0.41930  1.0000 0.1067148128
C   C545      1.0  0.23370  0.27570  0.90990  1.0000 0.1067148128
C   C546      1.0  0.09010  0.41930  0.72430  1.0000 0.1067148128
C   C547      1.0  0.41930  0.09010  0.76630  1.0000 0.1067148128
C   C548      1.0  0.76630  0.72430  0.41930  1.0000 0.1067148128
C   C549      1.0  0.58070  0.90990  0.27570  1.0000 0.1002911629
C   C550      1.0  0.72430  0.76630  0.09010  1.0000 0.1067148128
C   C551      1.0  0.90990  0.58070  0.23370  1.0000 0.1067148128
C   C552      1.0  0.27570  0.23370  0.58070  1.0000 0.1067148128
C   C553      1.0  0.09010  0.76630  0.72430  1.0000 0.1067148128
C   C554      1.0  0.58070  0.27570  0.90990  1.0000 0.1002911629
C   C555      1.0  0.41930  0.72430  0.76630  1.0000 0.1067148128
C   C556      1.0  0.72430  0.09010  0.76630  1.0000 0.1067148128
C   C557      1.0  0.76630  0.09010  0.41930  1.0000 0.1067148128
C   C558      1.0  0.90990  0.23370  0.58070  1.0000 0.1067148128
C   C559      1.0  0.58070  0.23370  0.27570  1.0000 0.1067148128
C   C560      1.0  0.27570  0.58070  0.23370  1.0000 0.1067148128
C   C561      1.0  0.72430  0.41930  0.09010  1.0000 0.1002911629
C   C562      1.0  0.09010  0.72430  0.41930  1.0000 0.1067148128
C   C563      1.0  0.23370  0.90990  0.27570  1.0000 0.1067148128
C   C564      1.0  0.23370  0.58070  0.90990  1.0000 0.1067148128
C   C565      1.0  0.41930  0.76630  0.09010  1.0000 0.1067148128
C   C566      1.0  0.90990  0.27570  0.23370  1.0000 0.1067148128
C   C567      1.0  0.76630  0.41930  0.72430  1.0000 0.1067148128
C   C568      1.0  0.27570  0.90990  0.58070  1.0000 0.1067148128
C   C569      1.0  0.76630  0.72430  0.09010  1.0000 0.1067148128
C   C570      1.0  0.90990  0.58070  0.27570  1.0000 0.1002911629
C   C571      1.0  0.58070  0.90990  0.23370  1.0000 0.1002911629
C   C572      1.0  0.23370  0.27570  0.58070  1.0000 0.1067148128
C   C573      1.0  0.41930  0.09010  0.72430  1.0000 0.1067148128
C   C574      1.0  0.27570  0.23370  0.90990  1.0000 0.1067148128
C   C575      1.0  0.09010  0.41930  0.76630  1.0000 0.1067148128
C   C576      1.0  0.72430  0.76630  0.41930  1.0000 0.1067148128
C   C577      1.0  0.86720  0.21900  0.30300  1.0000 -0.167938846
C   C578      1.0  0.38920  0.69700  0.13280  1.0000 -0.167938846
C   C579      1.0  0.61080  0.30300  0.21900  1.0000 -0.167938846
C   C580      1.0  0.30300  0.86720  0.21900  1.0000 -0.167938846
C   C581      1.0  0.21900  0.86720  0.61080  1.0000 -0.167938846
C   C582      1.0  0.13280  0.78100  0.38920  1.0000 -0.167938846
C   C583      1.0  0.38920  0.78100  0.69700  1.0000 -0.167938846
C   C584      1.0  0.69700  0.38920  0.78100  1.0000 -0.167938846
C   C585      1.0  0.30300  0.61080  0.86720  1.0000 -0.167938846
C   C586      1.0  0.86720  0.30300  0.61080  1.0000 -0.167938846
C   C587      1.0  0.78100  0.13280  0.69700  1.0000 -0.167938846
C   C588      1.0  0.78100  0.38920  0.13280  1.0000 -0.167938846
C   C589      1.0  0.61080  0.21900  0.86720  1.0000 -0.167938846
C   C590      1.0  0.13280  0.69700  0.78100  1.0000 -0.167938846
C   C591      1.0  0.21900  0.61080  0.30300  1.0000 -0.167938846
C   C592      1.0  0.69700  0.13280  0.38920  1.0000 -0.167938846
C   C593      1.0  0.21900  0.30300  0.86720  1.0000 -0.167938846
C   C594      1.0  0.13280  0.38920  0.69700  1.0000 -0.167938846
C   C595      1.0  0.38920  0.13280  0.78100  1.0000 -0.167938846
C   C596      1.0  0.78100  0.69700  0.38920  1.0000 -0.167938846
C   C597      1.0  0.61080  0.86720  0.30300  1.0000 -0.167938846
C   C598      1.0  0.69700  0.78100  0.13280  1.0000 -0.167938846
C   C599      1.0  0.86720  0.61080  0.21900  1.0000 -0.167938846
C   C600      1.0  0.30300  0.21900  0.61080  1.0000 -0.167938846
C   C601      1.0  0.13280  0.78100  0.69700  1.0000 -0.167938846
C   C602      1.0  0.61080  0.30300  0.86720  1.0000 -0.167938846
C   C603      1.0  0.38920  0.69700  0.78100  1.0000 -0.167938846
C   C604      1.0  0.69700  0.13280  0.78100  1.0000 -0.167938846
C   C605      1.0  0.78100  0.13280  0.38920  1.0000 -0.167938846
C   C606      1.0  0.86720  0.21900  0.61080  1.0000 -0.167938846
C   C607      1.0  0.61080  0.21900  0.30300  1.0000 -0.167938846
C   C608      1.0  0.30300  0.61080  0.21900  1.0000 -0.167938846
C   C609      1.0  0.69700  0.38920  0.13280  1.0000 -0.167938846
C   C610      1.0  0.13280  0.69700  0.38920  1.0000 -0.167938846
C   C611      1.0  0.21900  0.86720  0.30300  1.0000 -0.167938846
C   C612      1.0  0.21900  0.61080  0.86720  1.0000 -0.167938846
C   C613      1.0  0.38920  0.78100  0.13280  1.0000 -0.167938846
C   C614      1.0  0.86720  0.30300  0.21900  1.0000 -0.167938846
C   C615      1.0  0.78100  0.38920  0.69700  1.0000 -0.167938846
C   C616      1.0  0.30300  0.86720  0.61080  1.0000 -0.167938846
C   C617      1.0  0.78100  0.69700  0.13280  1.0000 -0.167938846
C   C618      1.0  0.86720  0.61080  0.30300  1.0000 -0.167938846
C   C619      1.0  0.61080  0.86720  0.21900  1.0000 -0.167938846
C   C620      1.0  0.21900  0.30300  0.61080  1.0000 -0.167938846
C   C621      1.0  0.38920  0.13280  0.69700  1.0000 -0.167938846
C   C622      1.0  0.30300  0.21900  0.86720  1.0000 -0.167938846
C   C623      1.0  0.13280  0.38920  0.78100  1.0000 -0.167938846
C   C624      1.0  0.69700  0.78100  0.38920  1.0000 -0.167938846
C   C625      1.0  0.82690  0.24590  0.28990  1.0000 -0.1077863725
C   C626      1.0  0.36270  0.71010  0.17310  1.0000 -0.1077863725
C   C627      1.0  0.63730  0.28990  0.24590  1.0000 -0.1077863725
C   C628      1.0  0.28990  0.82690  0.24590  1.0000 -0.1077863725
C   C629      1.0  0.24590  0.82690  0.63730  1.0000 -0.1077863725
C   C630      1.0  0.17310  0.75410  0.36270  1.0000 -0.1077863725
C   C631      1.0  0.36270  0.75410  0.71010  1.0000 -0.1077863725
C   C632      1.0  0.71010  0.36270  0.75410  1.0000 -0.1077863725
C   C633      1.0  0.28990  0.63730  0.82690  1.0000 -0.1077863725
C   C634      1.0  0.82690  0.28990  0.63730  1.0000 -0.1077863725
C   C635      1.0  0.75410  0.17310  0.71010  1.0000 -0.1077863725
C   C636      1.0  0.75410  0.36270  0.17310  1.0000 -0.1077863725
C   C637      1.0  0.63730  0.24590  0.82690  1.0000 -0.1077863725
C   C638      1.0  0.17310  0.71010  0.75410  1.0000 -0.1077863725
C   C639      1.0  0.24590  0.63730  0.28990  1.0000 -0.1077863725
C   C640      1.0  0.71010  0.17310  0.36270  1.0000 -0.1077863725
C   C641      1.0  0.24590  0.28990  0.82690  1.0000 -0.1077863725
C   C642      1.0  0.17310  0.36270  0.71010  1.0000 -0.1077863725
C   C643      1.0  0.36270  0.17310  0.75410  1.0000 -0.1077863725
C   C644      1.0  0.75410  0.71010  0.36270  1.0000 -0.1077863725
C   C645      1.0  0.63730  0.82690  0.28990  1.0000 -0.1077863725
C   C646      1.0  0.71010  0.75410  0.17310  1.0000 -0.1077863725
C   C647      1.0  0.82690  0.63730  0.24590  1.0000 -0.1077863725
C   C648      1.0  0.28990  0.24590  0.63730  1.0000 -0.1077863725
C   C649      1.0  0.17310  0.75410  0.71010  1.0000 -0.1077863725
C   C650      1.0  0.63730  0.28990  0.82690  1.0000 -0.1077863725
C   C651      1.0  0.36270  0.71010  0.75410  1.0000 -0.1077863725
C   C652      1.0  0.71010  0.17310  0.75410  1.0000 -0.1077863725
C   C653      1.0  0.75410  0.17310  0.36270  1.0000 -0.1077863725
C   C654      1.0  0.82690  0.24590  0.63730  1.0000 -0.1077863725
C   C655      1.0  0.63730  0.24590  0.28990  1.0000 -0.1077863725
C   C656      1.0  0.28990  0.63730  0.24590  1.0000 -0.1077863725
C   C657      1.0  0.71010  0.36270  0.17310  1.0000 -0.1077863725
C   C658      1.0  0.17310  0.71010  0.36270  1.0000 -0.1077863725
C   C659      1.0  0.24590  0.82690  0.28990  1.0000 -0.1077863725
C   C660      1.0  0.24590  0.63730  0.82690  1.0000 -0.1077863725
C   C661      1.0  0.36270  0.75410  0.17310  1.0000 -0.1077863725
C   C662      1.0  0.82690  0.28990  0.24590  1.0000 -0.1077863725
C   C663      1.0  0.75410  0.36270  0.71010  1.0000 -0.1077863725
C   C664      1.0  0.28990  0.82690  0.63730  1.0000 -0.1077863725
C   C665      1.0  0.75410  0.71010  0.17310  1.0000 -0.1077863725
C   C666      1.0  0.82690  0.63730  0.28990  1.0000 -0.1077863725
C   C667      1.0  0.63730  0.82690  0.24590  1.0000 -0.1077863725
C   C668      1.0  0.24590  0.28990  0.63730  1.0000 -0.1077863725
C   C669      1.0  0.36270  0.17310  0.71010  1.0000 -0.1077863725
C   C670      1.0  0.28990  0.24590  0.82690  1.0000 -0.1077863725
C   C671      1.0  0.17310  0.36270  0.75410  1.0000 -0.1077863725
C   C672      1.0  0.71010  0.75410  0.36270  1.0000 -0.1077863725
N   N1        1.0  0.04836  0.11764  0.32984  1.0000 -0.3463663456
N   N2        1.0  0.49584  0.67016  0.95164  1.0000 -0.3463663456
N   N3        1.0  0.50416  0.32984  0.11764  1.0000 -0.3463663456
N   N4        1.0  0.32984  0.04836  0.11764  1.0000 -0.3463663456
N   N5        1.0  0.11764  0.04836  0.50416  1.0000 -0.3463663456
N   N6        1.0  0.95164  0.88236  0.49584  1.0000 -0.3463663456
N   N7        1.0  0.49584  0.88236  0.67016  1.0000 -0.3463663456
N   N8        1.0  0.67016  0.49584  0.88236  1.0000 -0.3463663456
N   N9        1.0  0.32984  0.50416  0.04836  1.0000 -0.3463663456
N   N10       1.0  0.04836  0.32984  0.50416  1.0000 -0.3463663456
N   N11       1.0  0.88236  0.95164  0.67016  1.0000 -0.3463663456
N   N12       1.0  0.88236  0.49584  0.95164  1.0000 -0.3463663456
N   N13       1.0  0.50416  0.11764  0.04836  1.0000 -0.3463663456
N   N14       1.0  0.95164  0.67016  0.88236  1.0000 -0.3463663456
N   N15       1.0  0.11764  0.50416  0.32984  1.0000 -0.3463663456
N   N16       1.0  0.67016  0.95164  0.49584  1.0000 -0.3463663456
N   N17       1.0  0.11764  0.32984  0.04836  1.0000 -0.3463663456
N   N18       1.0  0.95164  0.49584  0.67016  1.0000 -0.3463663456
N   N19       1.0  0.49584  0.95164  0.88236  1.0000 -0.3463663456
N   N20       1.0  0.88236  0.67016  0.49584  1.0000 -0.3463663456
N   N21       1.0  0.50416  0.04836  0.32984  1.0000 -0.3463663456
N   N22       1.0  0.67016  0.88236  0.95164  1.0000 -0.3463663456
N   N23       1.0  0.04836  0.50416  0.11764  1.0000 -0.3463663456
N   N24       1.0  0.32984  0.11764  0.50416  1.0000 -0.3463663456
N   N25       1.0  0.95164  0.88236  0.67016  1.0000 -0.3463663456
N   N26       1.0  0.50416  0.32984  0.04836  1.0000 -0.3463663456
N   N27       1.0  0.49584  0.67016  0.88236  1.0000 -0.3463663456
N   N28       1.0  0.67016  0.95164  0.88236  1.0000 -0.3463663456
N   N29       1.0  0.88236  0.95164  0.49584  1.0000 -0.3463663456
N   N30       1.0  0.04836  0.11764  0.50416  1.0000 -0.3463663456
N   N31       1.0  0.50416  0.11764  0.32984  1.0000 -0.3463663456
N   N32       1.0  0.32984  0.50416  0.11764  1.0000 -0.3463663456
N   N33       1.0  0.67016  0.49584  0.95164  1.0000 -0.3463663456
N   N34       1.0  0.95164  0.67016  0.49584  1.0000 -0.3463663456
N   N35       1.0  0.11764  0.04836  0.32984  1.0000 -0.3463663456
N   N36       1.0  0.11764  0.50416  0.04836  1.0000 -0.3463663456
N   N37       1.0  0.49584  0.88236  0.95164  1.0000 -0.3463663456
N   N38       1.0  0.04836  0.32984  0.11764  1.0000 -0.3463663456
N   N39       1.0  0.88236  0.49584  0.67016  1.0000 -0.3463663456
N   N40       1.0  0.32984  0.04836  0.50416  1.0000 -0.3463663456
N   N41       1.0  0.88236  0.67016  0.95164  1.0000 -0.3463663456
N   N42       1.0  0.04836  0.50416  0.32984  1.0000 -0.3463663456
N   N43       1.0  0.50416  0.04836  0.11764  1.0000 -0.3463663456
N   N44       1.0  0.11764  0.32984  0.50416  1.0000 -0.3463663456
N   N45       1.0  0.49584  0.95164  0.67016  1.0000 -0.3463663456
N   N46       1.0  0.32984  0.11764  0.04836  1.0000 -0.3463663456
N   N47       1.0  0.95164  0.49584  0.88236  1.0000 -0.3463663456
N   N48       1.0  0.67016  0.88236  0.49584  1.0000 -0.3463663456
N   N49       1.0  0.94371  0.10595  0.36371  1.0000 -0.3594403904
N   N50       1.0  0.41337  0.63629  0.05629  1.0000 -0.3594403904
N   N51       1.0  0.58663  0.36371  0.10595  1.0000 -0.3594403904
N   N52       1.0  0.36371  0.94371  0.10595  1.0000 -0.3594403904
N   N53       1.0  0.10595  0.94371  0.58663  1.0000 -0.3594403904
N   N54       1.0  0.05629  0.89405  0.41337  1.0000 -0.3594403904
N   N55       1.0  0.41337  0.89405  0.63629  1.0000 -0.3594403904
N   N56       1.0  0.63629  0.41337  0.89405  1.0000 -0.3594403904
N   N57       1.0  0.36371  0.58663  0.94371  1.0000 -0.3594403904
N   N58       1.0  0.94371  0.36371  0.58663  1.0000 -0.3594403904
N   N59       1.0  0.89405  0.05629  0.63629  1.0000 -0.3594403904
N   N60       1.0  0.89405  0.41337  0.05629  1.0000 -0.3594403904
N   N61       1.0  0.58663  0.10595  0.94371  1.0000 -0.3594403904
N   N62       1.0  0.05629  0.63629  0.89405  1.0000 -0.3594403904
N   N63       1.0  0.10595  0.58663  0.36371  1.0000 -0.3594403904
N   N64       1.0  0.63629  0.05629  0.41337  1.0000 -0.3594403904
N   N65       1.0  0.10595  0.36371  0.94371  1.0000 -0.3594403904
N   N66       1.0  0.05629  0.41337  0.63629  1.0000 -0.3594403904
N   N67       1.0  0.41337  0.05629  0.89405  1.0000 -0.3594403904
N   N68       1.0  0.89405  0.63629  0.41337  1.0000 -0.3594403904
N   N69       1.0  0.58663  0.94371  0.36371  1.0000 -0.3594403904
N   N70       1.0  0.63629  0.89405  0.05629  1.0000 -0.3594403904
N   N71       1.0  0.94371  0.58663  0.10595  1.0000 -0.3594403904
N   N72       1.0  0.36371  0.10595  0.58663  1.0000 -0.3594403904
N   N73       1.0  0.05629  0.89405  0.63629  1.0000 -0.3594403904
N   N74       1.0  0.58663  0.36371  0.94371  1.0000 -0.3594403904
N   N75       1.0  0.41337  0.63629  0.89405  1.0000 -0.3594403904
N   N76       1.0  0.63629  0.05629  0.89405  1.0000 -0.3594403904
N   N77       1.0  0.89405  0.05629  0.41337  1.0000 -0.3594403904
N   N78       1.0  0.94371  0.10595  0.58663  1.0000 -0.3594403904
N   N79       1.0  0.58663  0.10595  0.36371  1.0000 -0.3594403904
N   N80       1.0  0.36371  0.58663  0.10595  1.0000 -0.3594403904
N   N81       1.0  0.63629  0.41337  0.05629  1.0000 -0.3594403904
N   N82       1.0  0.05629  0.63629  0.41337  1.0000 -0.3594403904
N   N83       1.0  0.10595  0.94371  0.36371  1.0000 -0.3594403904
N   N84       1.0  0.10595  0.58663  0.94371  1.0000 -0.3594403904
N   N85       1.0  0.41337  0.89405  0.05629  1.0000 -0.3594403904
N   N86       1.0  0.94371  0.36371  0.10595  1.0000 -0.3594403904
N   N87       1.0  0.89405  0.41337  0.63629  1.0000 -0.3594403904
N   N88       1.0  0.36371  0.94371  0.58663  1.0000 -0.3594403904
N   N89       1.0  0.89405  0.63629  0.05629  1.0000 -0.3594403904
N   N90       1.0  0.94371  0.58663  0.36371  1.0000 -0.3594403904
N   N91       1.0  0.58663  0.94371  0.10595  1.0000 -0.3594403904
N   N92       1.0  0.10595  0.36371  0.58663  1.0000 -0.3594403904
N   N93       1.0  0.41337  0.05629  0.63629  1.0000 -0.3594403904
N   N94       1.0  0.36371  0.10595  0.94371  1.0000 -0.3594403904
N   N95       1.0  0.05629  0.41337  0.89405  1.0000 -0.3594403904
N   N96       1.0  0.63629  0.89405  0.41337  1.0000 -0.3594403904
N   N97       1.0  0.95130  0.18136  0.39820  1.0000 -0.3594403904
N   N98       1.0  0.53086  0.60180  0.04870  1.0000 -0.3594403904
N   N99       1.0  0.46914  0.39820  0.18136  1.0000 -0.3594403904
N   N100      1.0  0.39820  0.95130  0.18136  1.0000 -0.3594403904
N   N101      1.0  0.18136  0.95130  0.46914  1.0000 -0.3594403904
N   N102      1.0  0.04870  0.81864  0.53086  1.0000 -0.3594403904
N   N103      1.0  0.53086  0.81864  0.60180  1.0000 -0.3594403904
N   N104      1.0  0.60180  0.53086  0.81864  1.0000 -0.3594403904
N   N105      1.0  0.39820  0.46914  0.95130  1.0000 -0.3594403904
N   N106      1.0  0.95130  0.39820  0.46914  1.0000 -0.3594403904
N   N107      1.0  0.81864  0.04870  0.60180  1.0000 -0.3594403904
N   N108      1.0  0.81864  0.53086  0.04870  1.0000 -0.3594403904
N   N109      1.0  0.46914  0.18136  0.95130  1.0000 -0.3594403904
N   N110      1.0  0.04870  0.60180  0.81864  1.0000 -0.3594403904
N   N111      1.0  0.18136  0.46914  0.39820  1.0000 -0.3594403904
N   N112      1.0  0.60180  0.04870  0.53086  1.0000 -0.3594403904
N   N113      1.0  0.18136  0.39820  0.95130  1.0000 -0.3594403904
N   N114      1.0  0.04870  0.53086  0.60180  1.0000 -0.3594403904
N   N115      1.0  0.53086  0.04870  0.81864  1.0000 -0.3594403904
N   N116      1.0  0.81864  0.60180  0.53086  1.0000 -0.3594403904
N   N117      1.0  0.46914  0.95130  0.39820  1.0000 -0.3594403904
N   N118      1.0  0.60180  0.81864  0.04870  1.0000 -0.3594403904
N   N119      1.0  0.95130  0.46914  0.18136  1.0000 -0.3594403904
N   N120      1.0  0.39820  0.18136  0.46914  1.0000 -0.3594403904
N   N121      1.0  0.04870  0.81864  0.60180  1.0000 -0.3594403904
N   N122      1.0  0.46914  0.39820  0.95130  1.0000 -0.3594403904
N   N123      1.0  0.53086  0.60180  0.81864  1.0000 -0.3594403904
N   N124      1.0  0.60180  0.04870  0.81864  1.0000 -0.3594403904
N   N125      1.0  0.81864  0.04870  0.53086  1.0000 -0.3594403904
N   N126      1.0  0.95130  0.18136  0.46914  1.0000 -0.3594403904
N   N127      1.0  0.46914  0.18136  0.39820  1.0000 -0.3594403904
N   N128      1.0  0.39820  0.46914  0.18136  1.0000 -0.3594403904
N   N129      1.0  0.60180  0.53086  0.04870  1.0000 -0.3594403904
N   N130      1.0  0.04870  0.60180  0.53086  1.0000 -0.3594403904
N   N131      1.0  0.18136  0.95130  0.39820  1.0000 -0.3594403904
N   N132      1.0  0.18136  0.46914  0.95130  1.0000 -0.3594403904
N   N133      1.0  0.53086  0.81864  0.04870  1.0000 -0.3594403904
N   N134      1.0  0.95130  0.39820  0.18136  1.0000 -0.3594403904
N   N135      1.0  0.81864  0.53086  0.60180  1.0000 -0.3594403904
N   N136      1.0  0.39820  0.95130  0.46914  1.0000 -0.3594403904
N   N137      1.0  0.81864  0.60180  0.04870  1.0000 -0.3594403904
N   N138      1.0  0.95130  0.46914  0.39820  1.0000 -0.3594403904
N   N139      1.0  0.46914  0.95130  0.18136  1.0000 -0.3594403904
N   N140      1.0  0.18136  0.39820  0.46914  1.0000 -0.3594403904
N   N141      1.0  0.53086  0.04870  0.60180  1.0000 -0.3594403904
N   N142      1.0  0.39820  0.18136  0.95130  1.0000 -0.3594403904
N   N143      1.0  0.04870  0.53086  0.81864  1.0000 -0.3594403904
N   N144      1.0  0.60180  0.81864  0.53086  1.0000 -0.3594403904
N   N145      1.0  0.95633  0.21297  0.28225  1.0000 -0.3417350014
N   N146      1.0  0.45155  0.71775  0.04367  1.0000 -0.3417350014
N   N147      1.0  0.54845  0.28225  0.21297  1.0000 -0.3417350014
N   N148      1.0  0.28225  0.95633  0.21297  1.0000 -0.3417350014
N   N149      1.0  0.21297  0.95633  0.54845  1.0000 -0.3417350014
N   N150      1.0  0.04367  0.78703  0.45155  1.0000 -0.3417350014
N   N151      1.0  0.45155  0.78703  0.71775  1.0000 -0.3417350014
N   N152      1.0  0.71775  0.45155  0.78703  1.0000 -0.3417350014
N   N153      1.0  0.28225  0.54845  0.95633  1.0000 -0.3417350014
N   N154      1.0  0.95633  0.28225  0.54845  1.0000 -0.3417350014
N   N155      1.0  0.78703  0.04367  0.71775  1.0000 -0.3417350014
N   N156      1.0  0.78703  0.45155  0.04367  1.0000 -0.3417350014
N   N157      1.0  0.54845  0.21297  0.95633  1.0000 -0.3417350014
N   N158      1.0  0.04367  0.71775  0.78703  1.0000 -0.3417350014
N   N159      1.0  0.21297  0.54845  0.28225  1.0000 -0.3417350014
N   N160      1.0  0.71775  0.04367  0.45155  1.0000 -0.3417350014
N   N161      1.0  0.21297  0.28225  0.95633  1.0000 -0.3417350014
N   N162      1.0  0.04367  0.45155  0.71775  1.0000 -0.3417350014
N   N163      1.0  0.45155  0.04367  0.78703  1.0000 -0.3417350014
N   N164      1.0  0.78703  0.71775  0.45155  1.0000 -0.3417350014
N   N165      1.0  0.54845  0.95633  0.28225  1.0000 -0.3417350014
N   N166      1.0  0.71775  0.78703  0.04367  1.0000 -0.3417350014
N   N167      1.0  0.95633  0.54845  0.21297  1.0000 -0.3417350014
N   N168      1.0  0.28225  0.21297  0.54845  1.0000 -0.3417350014
N   N169      1.0  0.04367  0.78703  0.71775  1.0000 -0.3417350014
N   N170      1.0  0.54845  0.28225  0.95633  1.0000 -0.3417350014
N   N171      1.0  0.45155  0.71775  0.78703  1.0000 -0.3417350014
N   N172      1.0  0.71775  0.04367  0.78703  1.0000 -0.3417350014
N   N173      1.0  0.78703  0.04367  0.45155  1.0000 -0.3417350014
N   N174      1.0  0.95633  0.21297  0.54845  1.0000 -0.3417350014
N   N175      1.0  0.54845  0.21297  0.28225  1.0000 -0.3417350014
N   N176      1.0  0.28225  0.54845  0.21297  1.0000 -0.3417350014
N   N177      1.0  0.71775  0.45155  0.04367  1.0000 -0.3417350014
N   N178      1.0  0.04367  0.71775  0.45155  1.0000 -0.3417350014
N   N179      1.0  0.21297  0.95633  0.28225  1.0000 -0.3417350014
N   N180      1.0  0.21297  0.54845  0.95633  1.0000 -0.3417350014
N   N181      1.0  0.45155  0.78703  0.04367  1.0000 -0.3417350014
N   N182      1.0  0.95633  0.28225  0.21297  1.0000 -0.3417350014
N   N183      1.0  0.78703  0.45155  0.71775  1.0000 -0.3417350014
N   N184      1.0  0.28225  0.95633  0.54845  1.0000 -0.3417350014
N   N185      1.0  0.78703  0.71775  0.04367  1.0000 -0.3417350014
N   N186      1.0  0.95633  0.54845  0.28225  1.0000 -0.3417350014
N   N187      1.0  0.54845  0.95633  0.21297  1.0000 -0.3417350014
N   N188      1.0  0.21297  0.28225  0.54845  1.0000 -0.3417350014
N   N189      1.0  0.45155  0.04367  0.71775  1.0000 -0.3417350014
N   N190      1.0  0.28225  0.21297  0.95633  1.0000 -0.3417350014
N   N191      1.0  0.04367  0.45155  0.78703  1.0000 -0.3417350014
N   N192      1.0  0.71775  0.78703  0.45155  1.0000 -0.3417350014
