# DDEC6 charges by PACMAN v1.1 (https://github.com/mtap-research/PACMAN-charge/)
data_2008[Zn][srs]3[FSR]10
_chemical_formula_sum              "Zn24 H192 C288 I48 N96"
_cell_length_a       13.8091
_cell_length_b       27.806
_cell_length_c       45.1378
_cell_angle_alpha    90
_cell_angle_beta     90
_cell_angle_gamma    90

_symmetry_space_group_name_H-M    "P 1"
_symmetry_Int_Tables_number       1

loop_
  _symmetry_equiv_pos_as_xyz
  'x, y, z'

loop_
  _atom_site_type_symbol
  _atom_site_label
  _atom_site_symmetry_multiplicity
  _atom_site_fract_x
  _atom_site_fract_y
  _atom_site_fract_z
  _atom_site_occupancy
  _atom_site_charge
Zn  Zn1       1.0  0.12844  0.47652  0.58468  1.0000 0.4599815188
Zn  Zn2       1.0  0.87156  0.02348  0.08468  1.0000 0.4599815188
Zn  Zn3       1.0  0.62844  0.52348  0.91532  1.0000 0.4599815188
Zn  Zn4       1.0  0.37156  0.97652  0.41532  1.0000 0.4599815188
Zn  Zn5       1.0  0.83092  0.73880  0.81467  1.0000 0.4700141875
Zn  Zn6       1.0  0.16908  0.76120  0.31467  1.0000 0.4700141875
Zn  Zn7       1.0  0.33092  0.26120  0.68533  1.0000 0.4700141875
Zn  Zn8       1.0  0.66908  0.23880  0.18533  1.0000 0.4700141875
Zn  Zn9       1.0  0.14518  0.95148  0.57831  1.0000 0.4492323762
Zn  Zn10      1.0  0.85482  0.54852  0.07831  1.0000 0.4492323762
Zn  Zn11      1.0  0.64518  0.04852  0.92169  1.0000 0.4492323762
Zn  Zn12      1.0  0.35482  0.45148  0.42169  1.0000 0.4492323762
Zn  Zn13      1.0  0.87156  0.52348  0.41532  1.0000 0.4599815188
Zn  Zn14      1.0  0.12844  0.97652  0.91532  1.0000 0.4599815188
Zn  Zn15      1.0  0.37156  0.47652  0.08468  1.0000 0.4599815188
Zn  Zn16      1.0  0.62844  0.02348  0.58468  1.0000 0.4599815188
Zn  Zn17      1.0  0.16908  0.26120  0.18533  1.0000 0.4700141875
Zn  Zn18      1.0  0.83092  0.23880  0.68533  1.0000 0.4700141875
Zn  Zn19      1.0  0.66908  0.73880  0.31467  1.0000 0.4700141875
Zn  Zn20      1.0  0.33092  0.76120  0.81467  1.0000 0.4700141875
Zn  Zn21      1.0  0.85482  0.04852  0.42169  1.0000 0.4492323762
Zn  Zn22      1.0  0.14518  0.45148  0.92169  1.0000 0.4492323762
Zn  Zn23      1.0  0.35482  0.95148  0.07831  1.0000 0.4492323762
Zn  Zn24      1.0  0.64518  0.54852  0.57831  1.0000 0.4492323762
H   H1        1.0  0.08420  0.65510  0.59070  1.0000 0.1327359906
H   H2        1.0  0.91580  0.84490  0.09070  1.0000 0.1327359906
H   H3        1.0  0.58420  0.34490  0.90930  1.0000 0.1327359906
H   H4        1.0  0.41580  0.15510  0.40930  1.0000 0.1327359906
H   H5        1.0  0.11200  0.58260  0.56830  1.0000 0.110510148
H   H6        1.0  0.88800  0.91740  0.06830  1.0000 0.110510148
H   H7        1.0  0.61200  0.41740  0.93170  1.0000 0.110510148
H   H8        1.0  0.38800  0.08260  0.43170  1.0000 0.110510148
H   H9        1.0  0.06250  0.51550  0.64360  1.0000 0.110510148
H   H10       1.0  0.93750  0.98450  0.14360  1.0000 0.110510148
H   H11       1.0  0.56250  0.48450  0.85640  1.0000 0.110510148
H   H12       1.0  0.43750  0.01550  0.35640  1.0000 0.110510148
H   H13       1.0  0.03460  0.58670  0.66770  1.0000 0.1327359906
H   H14       1.0  0.96540  0.91330  0.16770  1.0000 0.1327359906
H   H15       1.0  0.53460  0.41330  0.83230  1.0000 0.1327359906
H   H16       1.0  0.46540  0.08670  0.33230  1.0000 0.1327359906
H   H17       1.0  0.94000  0.65240  0.72360  1.0000 0.1327359906
H   H18       1.0  0.06000  0.84760  0.22360  1.0000 0.1327359906
H   H19       1.0  0.44000  0.34760  0.77640  1.0000 0.1327359906
H   H20       1.0  0.56000  0.15240  0.27640  1.0000 0.1327359906
H   H21       1.0  0.87730  0.66260  0.77170  1.0000 0.110510148
H   H22       1.0  0.12270  0.83740  0.27170  1.0000 0.110510148
H   H23       1.0  0.37730  0.33740  0.72830  1.0000 0.110510148
H   H24       1.0  0.62270  0.16260  0.22830  1.0000 0.110510148
H   H25       1.0  0.94470  0.79910  0.77190  1.0000 0.110510148
H   H26       1.0  0.05530  0.70090  0.27190  1.0000 0.110510148
H   H27       1.0  0.44470  0.20090  0.72810  1.0000 0.110510148
H   H28       1.0  0.55530  0.29910  0.22810  1.0000 0.110510148
H   H29       1.0  0.00340  0.79490  0.72390  1.0000 0.1327359906
H   H30       1.0  0.99660  0.70510  0.22390  1.0000 0.1327359906
H   H31       1.0  0.50340  0.20510  0.77610  1.0000 0.1327359906
H   H32       1.0  0.49660  0.29490  0.27610  1.0000 0.1327359906
H   H33       1.0  0.03990  0.84840  0.66280  1.0000 0.1327359906
H   H34       1.0  0.96010  0.65160  0.16280  1.0000 0.1327359906
H   H35       1.0  0.53990  0.15160  0.83720  1.0000 0.1327359906
H   H36       1.0  0.46010  0.34840  0.33720  1.0000 0.1327359906
H   H37       1.0  0.06790  0.91820  0.63680  1.0000 0.1017846722
H   H38       1.0  0.93210  0.58180  0.13680  1.0000 0.1017846722
H   H39       1.0  0.56790  0.08180  0.86320  1.0000 0.1017846722
H   H40       1.0  0.43210  0.41820  0.36320  1.0000 0.1017846722
H   H41       1.0  0.12920  0.84510  0.56430  1.0000 0.1017846722
H   H42       1.0  0.87080  0.65490  0.06430  1.0000 0.1017846722
H   H43       1.0  0.62920  0.15490  0.93570  1.0000 0.1017846722
H   H44       1.0  0.37080  0.34510  0.43570  1.0000 0.1017846722
H   H45       1.0  0.09650  0.77270  0.58770  1.0000 0.137859563
H   H46       1.0  0.90350  0.72730  0.08770  1.0000 0.1327359906
H   H47       1.0  0.59650  0.22730  0.91230  1.0000 0.137859563
H   H48       1.0  0.40350  0.27270  0.41230  1.0000 0.137859563
H   H49       1.0  0.82300  0.39230  0.61360  1.0000 0.1327359906
H   H50       1.0  0.17700  0.10770  0.11360  1.0000 0.1327359906
H   H51       1.0  0.32300  0.60770  0.88640  1.0000 0.1327359906
H   H52       1.0  0.67700  0.89230  0.38640  1.0000 0.1327359906
H   H53       1.0  0.97940  0.41810  0.61800  1.0000 0.110510148
H   H54       1.0  0.02060  0.08190  0.11800  1.0000 0.110510148
H   H55       1.0  0.47940  0.58190  0.88200  1.0000 0.110510148
H   H56       1.0  0.52060  0.91810  0.38200  1.0000 0.110510148
H   H57       1.0  0.98720  0.45890  0.53490  1.0000 0.1154943285
H   H58       1.0  0.01280  0.04110  0.03490  1.0000 0.1154943285
H   H59       1.0  0.48720  0.54110  0.96510  1.0000 0.1154943285
H   H60       1.0  0.51280  0.95890  0.46510  1.0000 0.1154943285
H   H61       1.0  0.83260  0.43200  0.52680  1.0000 0.1327359906
H   H62       1.0  0.16740  0.06800  0.02680  1.0000 0.1327359906
H   H63       1.0  0.33260  0.56800  0.97320  1.0000 0.1327359906
H   H64       1.0  0.66740  0.93200  0.47320  1.0000 0.1327359906
H   H65       1.0  0.62880  0.44700  0.49270  1.0000 0.1327359906
H   H66       1.0  0.37120  0.05300  0.99270  1.0000 0.1327359906
H   H67       1.0  0.12880  0.55300  0.00730  1.0000 0.1327359906
H   H68       1.0  0.87120  0.94700  0.50730  1.0000 0.1327359906
H   H69       1.0  0.54470  0.46950  0.45090  1.0000 0.110510148
H   H70       1.0  0.45530  0.03050  0.95090  1.0000 0.110510148
H   H71       1.0  0.04470  0.53050  0.04910  1.0000 0.110510148
H   H72       1.0  0.95530  0.96950  0.54910  1.0000 0.110510148
H   H73       1.0  0.30360  0.41400  0.48230  1.0000 0.1017846722
H   H74       1.0  0.69640  0.08600  0.98230  1.0000 0.1017846722
H   H75       1.0  0.80360  0.58600  0.01770  1.0000 0.1017846722
H   H76       1.0  0.19640  0.91400  0.51770  1.0000 0.1017846722
H   H77       1.0  0.38300  0.39020  0.52600  1.0000 0.137859563
H   H78       1.0  0.61700  0.10980  0.02600  1.0000 0.137859563
H   H79       1.0  0.88300  0.60980  0.97400  1.0000 0.137859563
H   H80       1.0  0.11700  0.89020  0.47400  1.0000 0.137859563
H   H81       1.0  0.38290  0.35700  0.59420  1.0000 0.1327359906
H   H82       1.0  0.61710  0.14300  0.09420  1.0000 0.1327359906
H   H83       1.0  0.88290  0.64300  0.90580  1.0000 0.1327359906
H   H84       1.0  0.11710  0.85700  0.40580  1.0000 0.1327359906
H   H85       1.0  0.30000  0.32060  0.63170  1.0000 0.110510148
H   H86       1.0  0.70000  0.17940  0.13170  1.0000 0.110510148
H   H87       1.0  0.80000  0.67940  0.86830  1.0000 0.110510148
H   H88       1.0  0.20000  0.82060  0.36830  1.0000 0.110510148
H   H89       1.0  0.54070  0.27550  0.66840  1.0000 0.110510148
H   H90       1.0  0.45930  0.22450  0.16840  1.0000 0.110510148
H   H91       1.0  0.04070  0.72450  0.83160  1.0000 0.110510148
H   H92       1.0  0.95930  0.77550  0.33160  1.0000 0.110510148
H   H93       1.0  0.63280  0.30950  0.63210  1.0000 0.137859563
H   H94       1.0  0.36720  0.19050  0.13210  1.0000 0.137859563
H   H95       1.0  0.13280  0.69050  0.86790  1.0000 0.137859563
H   H96       1.0  0.86720  0.80950  0.36790  1.0000 0.137859563
H   H97       1.0  0.91580  0.34490  0.40930  1.0000 0.1327359906
H   H98       1.0  0.08420  0.15510  0.90930  1.0000 0.1327359906
H   H99       1.0  0.41580  0.65510  0.09070  1.0000 0.1327359906
H   H100      1.0  0.58420  0.84490  0.59070  1.0000 0.1327359906
H   H101      1.0  0.88800  0.41740  0.43170  1.0000 0.110510148
H   H102      1.0  0.11200  0.08260  0.93170  1.0000 0.110510148
H   H103      1.0  0.38800  0.58260  0.06830  1.0000 0.110510148
H   H104      1.0  0.61200  0.91740  0.56830  1.0000 0.110510148
H   H105      1.0  0.93750  0.48450  0.35640  1.0000 0.110510148
H   H106      1.0  0.06250  0.01550  0.85640  1.0000 0.110510148
H   H107      1.0  0.43750  0.51550  0.14360  1.0000 0.110510148
H   H108      1.0  0.56250  0.98450  0.64360  1.0000 0.110510148
H   H109      1.0  0.96540  0.41330  0.33230  1.0000 0.1327359906
H   H110      1.0  0.03460  0.08670  0.83230  1.0000 0.1327359906
H   H111      1.0  0.46540  0.58670  0.16770  1.0000 0.1327359906
H   H112      1.0  0.53460  0.91330  0.66770  1.0000 0.1327359906
H   H113      1.0  0.06000  0.34760  0.27640  1.0000 0.1327359906
H   H114      1.0  0.94000  0.15240  0.77640  1.0000 0.1327359906
H   H115      1.0  0.56000  0.65240  0.22360  1.0000 0.1327359906
H   H116      1.0  0.44000  0.84760  0.72360  1.0000 0.1327359906
H   H117      1.0  0.12270  0.33740  0.22830  1.0000 0.110510148
H   H118      1.0  0.87730  0.16260  0.72830  1.0000 0.110510148
H   H119      1.0  0.62270  0.66260  0.27170  1.0000 0.110510148
H   H120      1.0  0.37730  0.83740  0.77170  1.0000 0.110510148
H   H121      1.0  0.05530  0.20090  0.22810  1.0000 0.110510148
H   H122      1.0  0.94470  0.29910  0.72810  1.0000 0.110510148
H   H123      1.0  0.55530  0.79910  0.27190  1.0000 0.110510148
H   H124      1.0  0.44470  0.70090  0.77190  1.0000 0.110510148
H   H125      1.0  0.99660  0.20510  0.27610  1.0000 0.1327359906
H   H126      1.0  0.00340  0.29490  0.77610  1.0000 0.1327359906
H   H127      1.0  0.49660  0.79490  0.22390  1.0000 0.1327359906
H   H128      1.0  0.50340  0.70510  0.72390  1.0000 0.1327359906
H   H129      1.0  0.96010  0.15160  0.33720  1.0000 0.1327359906
H   H130      1.0  0.03990  0.34840  0.83720  1.0000 0.1327359906
H   H131      1.0  0.46010  0.84840  0.16280  1.0000 0.1327359906
H   H132      1.0  0.53990  0.65160  0.66280  1.0000 0.1327359906
H   H133      1.0  0.93210  0.08180  0.36320  1.0000 0.1017846722
H   H134      1.0  0.06790  0.41820  0.86320  1.0000 0.1017846722
H   H135      1.0  0.43210  0.91820  0.13680  1.0000 0.1017846722
H   H136      1.0  0.56790  0.58180  0.63680  1.0000 0.1017846722
H   H137      1.0  0.87080  0.15490  0.43570  1.0000 0.1017846722
H   H138      1.0  0.12920  0.34510  0.93570  1.0000 0.1017846722
H   H139      1.0  0.37080  0.84510  0.06430  1.0000 0.1017846722
H   H140      1.0  0.62920  0.65490  0.56430  1.0000 0.1017846722
H   H141      1.0  0.90350  0.22730  0.41230  1.0000 0.137859563
H   H142      1.0  0.09650  0.27270  0.91230  1.0000 0.137859563
H   H143      1.0  0.40350  0.77270  0.08770  1.0000 0.137859563
H   H144      1.0  0.59650  0.72730  0.58770  1.0000 0.137859563
H   H145      1.0  0.17700  0.60770  0.38640  1.0000 0.1327359906
H   H146      1.0  0.82300  0.89230  0.88640  1.0000 0.1327359906
H   H147      1.0  0.67700  0.39230  0.11360  1.0000 0.1327359906
H   H148      1.0  0.32300  0.10770  0.61360  1.0000 0.1327359906
H   H149      1.0  0.02060  0.58190  0.38200  1.0000 0.110510148
H   H150      1.0  0.97940  0.91810  0.88200  1.0000 0.110510148
H   H151      1.0  0.52060  0.41810  0.11800  1.0000 0.110510148
H   H152      1.0  0.47940  0.08190  0.61800  1.0000 0.110510148
H   H153      1.0  0.01280  0.54110  0.46510  1.0000 0.1154943285
H   H154      1.0  0.98720  0.95890  0.96510  1.0000 0.1154943285
H   H155      1.0  0.51280  0.45890  0.03490  1.0000 0.1154943285
H   H156      1.0  0.48720  0.04110  0.53490  1.0000 0.1154943285
H   H157      1.0  0.16740  0.56800  0.47320  1.0000 0.1327359906
H   H158      1.0  0.83260  0.93200  0.97320  1.0000 0.1327359906
H   H159      1.0  0.66740  0.43200  0.02680  1.0000 0.1327359906
H   H160      1.0  0.33260  0.06800  0.52680  1.0000 0.1327359906
H   H161      1.0  0.37120  0.55300  0.50730  1.0000 0.1327359906
H   H162      1.0  0.62880  0.94700  0.00730  1.0000 0.1327359906
H   H163      1.0  0.87120  0.44700  0.99270  1.0000 0.1327359906
H   H164      1.0  0.12880  0.05300  0.49270  1.0000 0.1327359906
H   H165      1.0  0.45530  0.53050  0.54910  1.0000 0.110510148
H   H166      1.0  0.54470  0.96950  0.04910  1.0000 0.110510148
H   H167      1.0  0.95530  0.46950  0.95090  1.0000 0.110510148
H   H168      1.0  0.04470  0.03050  0.45090  1.0000 0.110510148
H   H169      1.0  0.69640  0.58600  0.51770  1.0000 0.1017846722
H   H170      1.0  0.30360  0.91400  0.01770  1.0000 0.1017846722
H   H171      1.0  0.19640  0.41400  0.98230  1.0000 0.1017846722
H   H172      1.0  0.80360  0.08600  0.48230  1.0000 0.1017846722
H   H173      1.0  0.61700  0.60980  0.47400  1.0000 0.137859563
H   H174      1.0  0.38300  0.89020  0.97400  1.0000 0.137859563
H   H175      1.0  0.11700  0.39020  0.02600  1.0000 0.137859563
H   H176      1.0  0.88300  0.10980  0.52600  1.0000 0.137859563
H   H177      1.0  0.61710  0.64300  0.40580  1.0000 0.1327359906
H   H178      1.0  0.38290  0.85700  0.90580  1.0000 0.1327359906
H   H179      1.0  0.11710  0.35700  0.09420  1.0000 0.1327359906
H   H180      1.0  0.88290  0.14300  0.59420  1.0000 0.1327359906
H   H181      1.0  0.70000  0.67940  0.36830  1.0000 0.110510148
H   H182      1.0  0.30000  0.82060  0.86830  1.0000 0.110510148
H   H183      1.0  0.20000  0.32060  0.13170  1.0000 0.110510148
H   H184      1.0  0.80000  0.17940  0.63170  1.0000 0.110510148
H   H185      1.0  0.45930  0.72450  0.33160  1.0000 0.110510148
H   H186      1.0  0.54070  0.77550  0.83160  1.0000 0.110510148
H   H187      1.0  0.95930  0.27550  0.16840  1.0000 0.110510148
H   H188      1.0  0.04070  0.22450  0.66840  1.0000 0.110510148
H   H189      1.0  0.36720  0.69050  0.36790  1.0000 0.137859563
H   H190      1.0  0.63280  0.80950  0.86790  1.0000 0.137859563
H   H191      1.0  0.86720  0.30950  0.13210  1.0000 0.137859563
H   H192      1.0  0.13280  0.19050  0.63210  1.0000 0.137859563
C   C1        1.0  0.04710  0.67660  0.64656  1.0000 0.3775055436
C   C2        1.0  0.95290  0.82340  0.14656  1.0000 0.3775055436
C   C3        1.0  0.54710  0.32340  0.85344  1.0000 0.3775055436
C   C4        1.0  0.45290  0.17660  0.35344  1.0000 0.3775055436
C   C5        1.0  0.01060  0.71980  0.68733  1.0000 0.3692542007
C   C6        1.0  0.98940  0.78020  0.18733  1.0000 0.3692542007
C   C7        1.0  0.51060  0.28020  0.81267  1.0000 0.3692542007
C   C8        1.0  0.48940  0.21980  0.31267  1.0000 0.3692542007
C   C9        1.0  0.05020  0.75690  0.64496  1.0000 0.3692542007
C   C10       1.0  0.94980  0.74310  0.14496  1.0000 0.3692542007
C   C11       1.0  0.55020  0.24310  0.85504  1.0000 0.3692542007
C   C12       1.0  0.44980  0.25690  0.35504  1.0000 0.3692542007
C   C13       1.0  0.06000  0.62930  0.63150  1.0000 0.0613439089
C   C14       1.0  0.94000  0.87070  0.13150  1.0000 0.0613439089
C   C15       1.0  0.56000  0.37070  0.86850  1.0000 0.0613439089
C   C16       1.0  0.44000  0.12930  0.36850  1.0000 0.0613439089
C   C17       1.0  0.08060  0.62650  0.60214  1.0000 -0.138753545
C   C18       1.0  0.91940  0.87350  0.10214  1.0000 -0.138753545
C   C19       1.0  0.58060  0.37350  0.89786  1.0000 -0.138753545
C   C20       1.0  0.41940  0.12650  0.39786  1.0000 -0.138753545
C   C21       1.0  0.09640  0.58330  0.58877  1.0000 0.0806551667
C   C22       1.0  0.90360  0.91670  0.08877  1.0000 0.0806551667
C   C23       1.0  0.59640  0.41670  0.91123  1.0000 0.0806551667
C   C24       1.0  0.40360  0.08330  0.41123  1.0000 0.0806551667
C   C25       1.0  0.06770  0.54460  0.63270  1.0000 0.0806551667
C   C26       1.0  0.93230  0.95540  0.13270  1.0000 0.0806551667
C   C27       1.0  0.56770  0.45540  0.86730  1.0000 0.0806551667
C   C28       1.0  0.43230  0.04460  0.36730  1.0000 0.0806551667
C   C29       1.0  0.05140  0.58660  0.64724  1.0000 -0.1611711051
C   C30       1.0  0.94860  0.91340  0.14724  1.0000 -0.1611711051
C   C31       1.0  0.55140  0.41340  0.85276  1.0000 -0.1611711051
C   C32       1.0  0.44860  0.08660  0.35276  1.0000 -0.1611711051
C   C33       1.0  0.97750  0.72360  0.71836  1.0000 0.0613439089
C   C34       1.0  0.02250  0.77640  0.21836  1.0000 0.0613439089
C   C35       1.0  0.47750  0.27640  0.78164  1.0000 0.0613439089
C   C36       1.0  0.52250  0.22360  0.28164  1.0000 0.0613439089
C   C37       1.0  0.94050  0.68300  0.73284  1.0000 -0.1497191474
C   C38       1.0  0.05950  0.81700  0.23284  1.0000 -0.1497191474
C   C39       1.0  0.44050  0.31700  0.76716  1.0000 -0.1497191474
C   C40       1.0  0.55950  0.18300  0.26716  1.0000 -0.1497191474
C   C41       1.0  0.90380  0.68960  0.76177  1.0000 0.0896540936
C   C42       1.0  0.09620  0.81040  0.26177  1.0000 0.0896540936
C   C43       1.0  0.40380  0.31040  0.73823  1.0000 0.0896540936
C   C44       1.0  0.59620  0.18960  0.23823  1.0000 0.0896540936
C   C45       1.0  0.94240  0.76920  0.76172  1.0000 0.1017846722
C   C46       1.0  0.05760  0.73080  0.26172  1.0000 0.0896540936
C   C47       1.0  0.44240  0.23080  0.73828  1.0000 0.0896540936
C   C48       1.0  0.55760  0.26920  0.23828  1.0000 0.0896540936
C   C49       1.0  0.97830  0.76690  0.73322  1.0000 -0.1497191474
C   C50       1.0  0.02170  0.73310  0.23322  1.0000 -0.1497191474
C   C51       1.0  0.47830  0.23310  0.76678  1.0000 -0.1497191474
C   C52       1.0  0.52170  0.26690  0.26678  1.0000 -0.1497191474
C   C53       1.0  0.06700  0.80240  0.62855  1.0000 0.0702371296
C   C54       1.0  0.93300  0.69760  0.12855  1.0000 0.0702371296
C   C55       1.0  0.56700  0.19760  0.87145  1.0000 0.0702371296
C   C56       1.0  0.43300  0.30240  0.37145  1.0000 0.0702371296
C   C57       1.0  0.05800  0.84690  0.64252  1.0000 -0.1611711051
C   C58       1.0  0.94200  0.65310  0.14252  1.0000 -0.1611711051
C   C59       1.0  0.55800  0.15310  0.85748  1.0000 -0.1611711051
C   C60       1.0  0.44200  0.34690  0.35748  1.0000 -0.1611711051
C   C61       1.0  0.07530  0.88820  0.62704  1.0000 0.0896540936
C   C62       1.0  0.92470  0.61180  0.12704  1.0000 0.0896540936
C   C63       1.0  0.57530  0.11180  0.87296  1.0000 0.0896540936
C   C64       1.0  0.42470  0.38820  0.37296  1.0000 0.0896540936
C   C65       1.0  0.11030  0.84540  0.58454  1.0000 0.0806551667
C   C66       1.0  0.88970  0.65460  0.08454  1.0000 0.0806551667
C   C67       1.0  0.61030  0.15460  0.91546  1.0000 0.0806551667
C   C68       1.0  0.38970  0.34540  0.41546  1.0000 0.0806551667
C   C69       1.0  0.09210  0.80200  0.59831  1.0000 -0.1611711051
C   C70       1.0  0.90790  0.69800  0.09831  1.0000 -0.1611711051
C   C71       1.0  0.59210  0.19800  0.90169  1.0000 -0.1611711051
C   C72       1.0  0.40790  0.30200  0.40169  1.0000 -0.1611711051
C   C73       1.0  0.70680  0.39430  0.56620  1.0000 0.3692542007
C   C74       1.0  0.29320  0.10570  0.06620  1.0000 0.3692542007
C   C75       1.0  0.20680  0.60570  0.93380  1.0000 0.3692542007
C   C76       1.0  0.79320  0.89430  0.43380  1.0000 0.3692542007
C   C77       1.0  0.56930  0.39880  0.53980  1.0000 0.3621316692
C   C78       1.0  0.43070  0.10120  0.03980  1.0000 0.3621316692
C   C79       1.0  0.06930  0.60120  0.96020  1.0000 0.3621316692
C   C80       1.0  0.93070  0.89880  0.46020  1.0000 0.3621316692
C   C81       1.0  0.57170  0.36150  0.58444  1.0000 0.3621316692
C   C82       1.0  0.42830  0.13850  0.08444  1.0000 0.3621316692
C   C83       1.0  0.07170  0.63850  0.91556  1.0000 0.3621316692
C   C84       1.0  0.92830  0.86150  0.41556  1.0000 0.3621316692
C   C85       1.0  0.80980  0.40850  0.56985  1.0000 0.0702371296
C   C86       1.0  0.19020  0.09150  0.06985  1.0000 0.0702371296
C   C87       1.0  0.30980  0.59150  0.93015  1.0000 0.0702371296
C   C88       1.0  0.69020  0.90850  0.43015  1.0000 0.0702371296
C   C89       1.0  0.85560  0.40550  0.59695  1.0000 -0.1236985117
C   C90       1.0  0.14440  0.09450  0.09695  1.0000 -0.1236985117
C   C91       1.0  0.35560  0.59450  0.90305  1.0000 -0.1236985117
C   C92       1.0  0.64440  0.90550  0.40305  1.0000 -0.1236985117
C   C93       1.0  0.94770  0.42170  0.59947  1.0000 0.0702371296
C   C94       1.0  0.05230  0.07830  0.09947  1.0000 0.0702371296
C   C95       1.0  0.44770  0.57830  0.90053  1.0000 0.0702371296
C   C96       1.0  0.55230  0.92170  0.40053  1.0000 0.0702371296
C   C97       1.0  0.95290  0.44520  0.55102  1.0000 0.0896540936
C   C98       1.0  0.04710  0.05480  0.05102  1.0000 0.0896540936
C   C99       1.0  0.45290  0.55480  0.94898  1.0000 0.0896540936
C   C100      1.0  0.54710  0.94520  0.44898  1.0000 0.0896540936
C   C101      1.0  0.86120  0.42930  0.54588  1.0000 -0.138753545
C   C102      1.0  0.13880  0.07070  0.04588  1.0000 -0.138753545
C   C103      1.0  0.36120  0.57070  0.95412  1.0000 -0.138753545
C   C104      1.0  0.63880  0.92930  0.45412  1.0000 -0.138753545
C   C105      1.0  0.51540  0.41500  0.51396  1.0000 0.0461115884
C   C106      1.0  0.48460  0.08500  0.01396  1.0000 0.0461115884
C   C107      1.0  0.01540  0.58500  0.98604  1.0000 0.0461115884
C   C108      1.0  0.98460  0.91500  0.48604  1.0000 0.0461115884
C   C109      1.0  0.56190  0.43950  0.49106  1.0000 -0.1497191474
C   C110      1.0  0.43810  0.06050  0.99106  1.0000 -0.1497191474
C   C111      1.0  0.06190  0.56050  0.00894  1.0000 -0.1497191474
C   C112      1.0  0.93810  0.93950  0.50894  1.0000 -0.1497191474
C   C113      1.0  0.51150  0.45260  0.46615  1.0000 0.0806551667
C   C114      1.0  0.48850  0.04740  0.96615  1.0000 0.0806551667
C   C115      1.0  0.01150  0.54740  0.03385  1.0000 0.0806551667
C   C116      1.0  0.98850  0.95260  0.53385  1.0000 0.0806551667
C   C117      1.0  0.37080  0.42030  0.48445  1.0000 0.0702371296
C   C118      1.0  0.62920  0.07970  0.98445  1.0000 0.0702371296
C   C119      1.0  0.87080  0.57970  0.01555  1.0000 0.0702371296
C   C120      1.0  0.12920  0.92030  0.51555  1.0000 0.0702371296
C   C121      1.0  0.41810  0.40600  0.51068  1.0000 -0.138753545
C   C122      1.0  0.58190  0.09400  0.01068  1.0000 -0.138753545
C   C123      1.0  0.91810  0.59400  0.98932  1.0000 -0.138753545
C   C124      1.0  0.08190  0.90600  0.48932  1.0000 -0.138753545
C   C125      1.0  0.51780  0.33800  0.60835  1.0000 0.0613439089
C   C126      1.0  0.48220  0.16200  0.10835  1.0000 0.0613439089
C   C127      1.0  0.01780  0.66200  0.89165  1.0000 0.0613439089
C   C128      1.0  0.98220  0.83800  0.39165  1.0000 0.0613439089
C   C129      1.0  0.41740  0.34040  0.60930  1.0000 -0.1236985117
C   C130      1.0  0.58260  0.15960  0.10930  1.0000 -0.1236985117
C   C131      1.0  0.91740  0.65960  0.89070  1.0000 -0.1236985117
C   C132      1.0  0.08260  0.84040  0.39070  1.0000 -0.1236985117
C   C133      1.0  0.36870  0.31920  0.63180  1.0000 0.0806551667
C   C134      1.0  0.63130  0.18080  0.13180  1.0000 0.0806551667
C   C135      1.0  0.86870  0.68080  0.86820  1.0000 0.0806551667
C   C136      1.0  0.13130  0.81920  0.36820  1.0000 0.0806551667
C   C137      1.0  0.50880  0.29280  0.65313  1.0000 0.0896540936
C   C138      1.0  0.49120  0.20720  0.15313  1.0000 0.0896540936
C   C139      1.0  0.00880  0.70720  0.84687  1.0000 0.0896540936
C   C140      1.0  0.99120  0.79280  0.34687  1.0000 0.0896540936
C   C141      1.0  0.56430  0.31260  0.63162  1.0000 -0.138753545
C   C142      1.0  0.43570  0.18740  0.13162  1.0000 -0.138753545
C   C143      1.0  0.06430  0.68740  0.86838  1.0000 -0.138753545
C   C144      1.0  0.93570  0.81260  0.36838  1.0000 -0.138753545
C   C145      1.0  0.95290  0.32340  0.35344  1.0000 0.3775055436
C   C146      1.0  0.04710  0.17660  0.85344  1.0000 0.3775055436
C   C147      1.0  0.45290  0.67660  0.14656  1.0000 0.3775055436
C   C148      1.0  0.54710  0.82340  0.64656  1.0000 0.3775055436
C   C149      1.0  0.98940  0.28020  0.31267  1.0000 0.3692542007
C   C150      1.0  0.01060  0.21980  0.81267  1.0000 0.3692542007
C   C151      1.0  0.48940  0.71980  0.18733  1.0000 0.3692542007
C   C152      1.0  0.51060  0.78020  0.68733  1.0000 0.3692542007
C   C153      1.0  0.94980  0.24310  0.35504  1.0000 0.3692542007
C   C154      1.0  0.05020  0.25690  0.85504  1.0000 0.3692542007
C   C155      1.0  0.44980  0.75690  0.14496  1.0000 0.3692542007
C   C156      1.0  0.55020  0.74310  0.64496  1.0000 0.3692542007
C   C157      1.0  0.94000  0.37070  0.36850  1.0000 0.0613439089
C   C158      1.0  0.06000  0.12930  0.86850  1.0000 0.0613439089
C   C159      1.0  0.44000  0.62930  0.13150  1.0000 0.0613439089
C   C160      1.0  0.56000  0.87070  0.63150  1.0000 0.0613439089
C   C161      1.0  0.91940  0.37350  0.39786  1.0000 -0.138753545
C   C162      1.0  0.08060  0.12650  0.89786  1.0000 -0.138753545
C   C163      1.0  0.41940  0.62650  0.10214  1.0000 -0.138753545
C   C164      1.0  0.58060  0.87350  0.60214  1.0000 -0.138753545
C   C165      1.0  0.90360  0.41670  0.41123  1.0000 0.0806551667
C   C166      1.0  0.09640  0.08330  0.91123  1.0000 0.0806551667
C   C167      1.0  0.40360  0.58330  0.08877  1.0000 0.0806551667
C   C168      1.0  0.59640  0.91670  0.58877  1.0000 0.0806551667
C   C169      1.0  0.93230  0.45540  0.36730  1.0000 0.0806551667
C   C170      1.0  0.06770  0.04460  0.86730  1.0000 0.0806551667
C   C171      1.0  0.43230  0.54460  0.13270  1.0000 0.0806551667
C   C172      1.0  0.56770  0.95540  0.63270  1.0000 0.0806551667
C   C173      1.0  0.94860  0.41340  0.35276  1.0000 -0.1611711051
C   C174      1.0  0.05140  0.08660  0.85276  1.0000 -0.1611711051
C   C175      1.0  0.44860  0.58660  0.14724  1.0000 -0.1611711051
C   C176      1.0  0.55140  0.91340  0.64724  1.0000 -0.1611711051
C   C177      1.0  0.02250  0.27640  0.28164  1.0000 0.0613439089
C   C178      1.0  0.97750  0.22360  0.78164  1.0000 0.0613439089
C   C179      1.0  0.52250  0.72360  0.21836  1.0000 0.0613439089
C   C180      1.0  0.47750  0.77640  0.71836  1.0000 0.0613439089
C   C181      1.0  0.05950  0.31700  0.26716  1.0000 -0.1497191474
C   C182      1.0  0.94050  0.18300  0.76716  1.0000 -0.1497191474
C   C183      1.0  0.55950  0.68300  0.23284  1.0000 -0.1497191474
C   C184      1.0  0.44050  0.81700  0.73284  1.0000 -0.1497191474
C   C185      1.0  0.09620  0.31040  0.23823  1.0000 0.0896540936
C   C186      1.0  0.90380  0.18960  0.73823  1.0000 0.0896540936
C   C187      1.0  0.59620  0.68960  0.26177  1.0000 0.0896540936
C   C188      1.0  0.40380  0.81040  0.76177  1.0000 0.0896540936
C   C189      1.0  0.05760  0.23080  0.23828  1.0000 0.0896540936
C   C190      1.0  0.94240  0.26920  0.73828  1.0000 0.1017846722
C   C191      1.0  0.55760  0.76920  0.26172  1.0000 0.0896540936
C   C192      1.0  0.44240  0.73080  0.76172  1.0000 0.0896540936
C   C193      1.0  0.02170  0.23310  0.26678  1.0000 -0.1497191474
C   C194      1.0  0.97830  0.26690  0.76678  1.0000 -0.1497191474
C   C195      1.0  0.52170  0.76690  0.23322  1.0000 -0.1497191474
C   C196      1.0  0.47830  0.73310  0.73322  1.0000 -0.1497191474
C   C197      1.0  0.93300  0.19760  0.37145  1.0000 0.0702371296
C   C198      1.0  0.06700  0.30240  0.87145  1.0000 0.0702371296
C   C199      1.0  0.43300  0.80240  0.12855  1.0000 0.0613439089
C   C200      1.0  0.56700  0.69760  0.62855  1.0000 0.0702371296
C   C201      1.0  0.94200  0.15310  0.35748  1.0000 -0.1611711051
C   C202      1.0  0.05800  0.34690  0.85748  1.0000 -0.1611711051
C   C203      1.0  0.44200  0.84690  0.14252  1.0000 -0.1611711051
C   C204      1.0  0.55800  0.65310  0.64252  1.0000 -0.1611711051
C   C205      1.0  0.92470  0.11180  0.37296  1.0000 0.0896540936
C   C206      1.0  0.07530  0.38820  0.87296  1.0000 0.0896540936
C   C207      1.0  0.42470  0.88820  0.12704  1.0000 0.0896540936
C   C208      1.0  0.57530  0.61180  0.62704  1.0000 0.0896540936
C   C209      1.0  0.88970  0.15460  0.41546  1.0000 0.0806551667
C   C210      1.0  0.11030  0.34540  0.91546  1.0000 0.0806551667
C   C211      1.0  0.38970  0.84540  0.08454  1.0000 0.0806551667
C   C212      1.0  0.61030  0.65460  0.58454  1.0000 0.0806551667
C   C213      1.0  0.90790  0.19800  0.40169  1.0000 -0.1611711051
C   C214      1.0  0.09210  0.30200  0.90169  1.0000 -0.1611711051
C   C215      1.0  0.40790  0.80200  0.09831  1.0000 -0.1611711051
C   C216      1.0  0.59210  0.69800  0.59831  1.0000 -0.1611711051
C   C217      1.0  0.29320  0.60570  0.43380  1.0000 0.3692542007
C   C218      1.0  0.70680  0.89430  0.93380  1.0000 0.3692542007
C   C219      1.0  0.79320  0.39430  0.06620  1.0000 0.3692542007
C   C220      1.0  0.20680  0.10570  0.56620  1.0000 0.3692542007
C   C221      1.0  0.43070  0.60120  0.46020  1.0000 0.3621316692
C   C222      1.0  0.56930  0.89880  0.96020  1.0000 0.3621316692
C   C223      1.0  0.93070  0.39880  0.03980  1.0000 0.3621316692
C   C224      1.0  0.06930  0.10120  0.53980  1.0000 0.3621316692
C   C225      1.0  0.42830  0.63850  0.41556  1.0000 0.3621316692
C   C226      1.0  0.57170  0.86150  0.91556  1.0000 0.3621316692
C   C227      1.0  0.92830  0.36150  0.08444  1.0000 0.3621316692
C   C228      1.0  0.07170  0.13850  0.58444  1.0000 0.3621316692
C   C229      1.0  0.19020  0.59150  0.43015  1.0000 0.0702371296
C   C230      1.0  0.80980  0.90850  0.93015  1.0000 0.0702371296
C   C231      1.0  0.69020  0.40850  0.06985  1.0000 0.0702371296
C   C232      1.0  0.30980  0.09150  0.56985  1.0000 0.0702371296
C   C233      1.0  0.14440  0.59450  0.40305  1.0000 -0.1236985117
C   C234      1.0  0.85560  0.90550  0.90305  1.0000 -0.1236985117
C   C235      1.0  0.64440  0.40550  0.09695  1.0000 -0.1236985117
C   C236      1.0  0.35560  0.09450  0.59695  1.0000 -0.1236985117
C   C237      1.0  0.05230  0.57830  0.40053  1.0000 0.0702371296
C   C238      1.0  0.94770  0.92170  0.90053  1.0000 0.0702371296
C   C239      1.0  0.55230  0.42170  0.09947  1.0000 0.0702371296
C   C240      1.0  0.44770  0.07830  0.59947  1.0000 0.0702371296
C   C241      1.0  0.04710  0.55480  0.44898  1.0000 0.0896540936
C   C242      1.0  0.95290  0.94520  0.94898  1.0000 0.0896540936
C   C243      1.0  0.54710  0.44520  0.05102  1.0000 0.0896540936
C   C244      1.0  0.45290  0.05480  0.55102  1.0000 0.0896540936
C   C245      1.0  0.13880  0.57070  0.45412  1.0000 -0.138753545
C   C246      1.0  0.86120  0.92930  0.95412  1.0000 -0.138753545
C   C247      1.0  0.63880  0.42930  0.04588  1.0000 -0.138753545
C   C248      1.0  0.36120  0.07070  0.54588  1.0000 -0.138753545
C   C249      1.0  0.48460  0.58500  0.48604  1.0000 0.0461115884
C   C250      1.0  0.51540  0.91500  0.98604  1.0000 0.0461115884
C   C251      1.0  0.98460  0.41500  0.01396  1.0000 0.0461115884
C   C252      1.0  0.01540  0.08500  0.51396  1.0000 0.0461115884
C   C253      1.0  0.43810  0.56050  0.50894  1.0000 -0.1497191474
C   C254      1.0  0.56190  0.93950  0.00894  1.0000 -0.1497191474
C   C255      1.0  0.93810  0.43950  0.99106  1.0000 -0.1497191474
C   C256      1.0  0.06190  0.06050  0.49106  1.0000 -0.1497191474
C   C257      1.0  0.48850  0.54740  0.53385  1.0000 0.0806551667
C   C258      1.0  0.51150  0.95260  0.03385  1.0000 0.0806551667
C   C259      1.0  0.98850  0.45260  0.96615  1.0000 0.0806551667
C   C260      1.0  0.01150  0.04740  0.46615  1.0000 0.0806551667
C   C261      1.0  0.62920  0.57970  0.51555  1.0000 0.0702371296
C   C262      1.0  0.37080  0.92030  0.01555  1.0000 0.0702371296
C   C263      1.0  0.12920  0.42030  0.98445  1.0000 0.0702371296
C   C264      1.0  0.87080  0.07970  0.48445  1.0000 0.0702371296
C   C265      1.0  0.58190  0.59400  0.48932  1.0000 -0.138753545
C   C266      1.0  0.41810  0.90600  0.98932  1.0000 -0.138753545
C   C267      1.0  0.08190  0.40600  0.01068  1.0000 -0.138753545
C   C268      1.0  0.91810  0.09400  0.51068  1.0000 -0.138753545
C   C269      1.0  0.48220  0.66200  0.39165  1.0000 0.0613439089
C   C270      1.0  0.51780  0.83800  0.89165  1.0000 0.0613439089
C   C271      1.0  0.98220  0.33800  0.10835  1.0000 0.0613439089
C   C272      1.0  0.01780  0.16200  0.60835  1.0000 0.0613439089
C   C273      1.0  0.58260  0.65960  0.39070  1.0000 -0.1236985117
C   C274      1.0  0.41740  0.84040  0.89070  1.0000 -0.1236985117
C   C275      1.0  0.08260  0.34040  0.10930  1.0000 -0.1236985117
C   C276      1.0  0.91740  0.15960  0.60930  1.0000 -0.1236985117
C   C277      1.0  0.63130  0.68080  0.36820  1.0000 0.0806551667
C   C278      1.0  0.36870  0.81920  0.86820  1.0000 0.0806551667
C   C279      1.0  0.13130  0.31920  0.13180  1.0000 0.0806551667
C   C280      1.0  0.86870  0.18080  0.63180  1.0000 0.0806551667
C   C281      1.0  0.49120  0.70720  0.34687  1.0000 0.0896540936
C   C282      1.0  0.50880  0.79280  0.84687  1.0000 0.0896540936
C   C283      1.0  0.99120  0.29280  0.15313  1.0000 0.0896540936
C   C284      1.0  0.00880  0.20720  0.65313  1.0000 0.0896540936
C   C285      1.0  0.43570  0.68740  0.36838  1.0000 -0.138753545
C   C286      1.0  0.56430  0.81260  0.86838  1.0000 -0.138753545
C   C287      1.0  0.93570  0.31260  0.13162  1.0000 -0.138753545
C   C288      1.0  0.06430  0.18740  0.63162  1.0000 -0.138753545
I   I1        1.0  0.20158  0.49452  0.53367  1.0000 -0.4671907173
I   I2        1.0  0.79842  0.00548  0.03367  1.0000 -0.4671907173
I   I3        1.0  0.70158  0.50548  0.96633  1.0000 -0.4671907173
I   I4        1.0  0.29842  0.99452  0.46633  1.0000 -0.4671907173
I   I5        1.0  0.21682  0.43073  0.62472  1.0000 -0.4301633032
I   I6        1.0  0.78318  0.06927  0.12472  1.0000 -0.4301633032
I   I7        1.0  0.71682  0.56927  0.87528  1.0000 -0.4301633032
I   I8        1.0  0.28318  0.93073  0.37528  1.0000 -0.4301633032
I   I9        1.0  0.67095  0.69389  0.80774  1.0000 -0.4627639102
I   I10       1.0  0.32905  0.80611  0.30774  1.0000 -0.4627639102
I   I11       1.0  0.17095  0.30611  0.69226  1.0000 -0.4627639102
I   I12       1.0  0.82905  0.19389  0.19226  1.0000 -0.4627639102
I   I13       1.0  0.83229  0.82676  0.82990  1.0000 -0.4488448808
I   I14       1.0  0.16771  0.67324  0.32990  1.0000 -0.4488448808
I   I15       1.0  0.33229  0.17324  0.67010  1.0000 -0.4488448808
I   I16       1.0  0.66771  0.32676  0.17010  1.0000 -0.4488448808
I   I17       1.0  0.32757  0.94575  0.57306  1.0000 -0.4429510022
I   I18       1.0  0.67243  0.55425  0.07306  1.0000 -0.4429510022
I   I19       1.0  0.82757  0.05425  0.92694  1.0000 -0.4429510022
I   I20       1.0  0.17243  0.44575  0.42694  1.0000 -0.4429510022
I   I21       1.0  0.05227  0.01626  0.60555  1.0000 -0.4301633032
I   I22       1.0  0.94773  0.48374  0.10555  1.0000 -0.4301633032
I   I23       1.0  0.55227  0.98374  0.89445  1.0000 -0.4301633032
I   I24       1.0  0.44773  0.51626  0.39445  1.0000 -0.4301633032
I   I25       1.0  0.79842  0.50548  0.46633  1.0000 -0.4671907173
I   I26       1.0  0.20158  0.99452  0.96633  1.0000 -0.4671907173
I   I27       1.0  0.29842  0.49452  0.03367  1.0000 -0.4671907173
I   I28       1.0  0.70158  0.00548  0.53367  1.0000 -0.4671907173
I   I29       1.0  0.78318  0.56927  0.37528  1.0000 -0.4301633032
I   I30       1.0  0.21682  0.93073  0.87528  1.0000 -0.4170771147
I   I31       1.0  0.28318  0.43073  0.12472  1.0000 -0.4301633032
I   I32       1.0  0.71682  0.06927  0.62472  1.0000 -0.4301633032
I   I33       1.0  0.32905  0.30611  0.19226  1.0000 -0.4627639102
I   I34       1.0  0.67095  0.19389  0.69226  1.0000 -0.4627639102
I   I35       1.0  0.82905  0.69389  0.30774  1.0000 -0.4627639102
I   I36       1.0  0.17095  0.80611  0.80774  1.0000 -0.4627639102
I   I37       1.0  0.16771  0.17324  0.17010  1.0000 -0.4488448808
I   I38       1.0  0.83229  0.32676  0.67010  1.0000 -0.4488448808
I   I39       1.0  0.66771  0.82676  0.32990  1.0000 -0.4488448808
I   I40       1.0  0.33229  0.67324  0.82990  1.0000 -0.4488448808
I   I41       1.0  0.67243  0.05425  0.42694  1.0000 -0.4429510022
I   I42       1.0  0.32757  0.44575  0.92694  1.0000 -0.4429510022
I   I43       1.0  0.17243  0.94575  0.07306  1.0000 -0.4429510022
I   I44       1.0  0.82757  0.55425  0.57306  1.0000 -0.4429510022
I   I45       1.0  0.94773  0.98374  0.39445  1.0000 -0.4301633032
I   I46       1.0  0.05227  0.51626  0.89445  1.0000 -0.4301633032
I   I47       1.0  0.44773  0.01626  0.10555  1.0000 -0.4301633032
I   I48       1.0  0.55227  0.48374  0.60555  1.0000 -0.4301633032
N   N1        1.0  0.02100  0.67600  0.67546  1.0000 -0.4170771147
N   N2        1.0  0.97900  0.82400  0.17546  1.0000 -0.4170771147
N   N3        1.0  0.52100  0.32400  0.82454  1.0000 -0.4170771147
N   N4        1.0  0.47900  0.17600  0.32454  1.0000 -0.4170771147
N   N5        1.0  0.02530  0.76130  0.67296  1.0000 -0.4043728085
N   N6        1.0  0.97470  0.73870  0.17296  1.0000 -0.4043728085
N   N7        1.0  0.52530  0.23870  0.82704  1.0000 -0.4103962056
N   N8        1.0  0.47470  0.26130  0.32704  1.0000 -0.4103962056
N   N9        1.0  0.06310  0.71560  0.63037  1.0000 -0.4103962056
N   N10       1.0  0.93690  0.78440  0.13037  1.0000 -0.4103962056
N   N11       1.0  0.56310  0.28440  0.86963  1.0000 -0.4103962056
N   N12       1.0  0.43690  0.21560  0.36963  1.0000 -0.4103962056
N   N13       1.0  0.09050  0.54160  0.60377  1.0000 -0.1744005735
N   N14       1.0  0.90950  0.95840  0.10377  1.0000 -0.1744005735
N   N15       1.0  0.59050  0.45840  0.89623  1.0000 -0.1744005735
N   N16       1.0  0.40950  0.04160  0.39623  1.0000 -0.1744005735
N   N17       1.0  0.90450  0.73120  0.77559  1.0000 -0.1788565087
N   N18       1.0  0.09550  0.76880  0.27559  1.0000 -0.1788565087
N   N19       1.0  0.40450  0.26880  0.72441  1.0000 -0.1788565087
N   N20       1.0  0.59550  0.23120  0.22441  1.0000 -0.1788565087
N   N21       1.0  0.10260  0.88770  0.59816  1.0000 -0.1878675753
N   N22       1.0  0.89740  0.61230  0.09816  1.0000 -0.1878675753
N   N23       1.0  0.60260  0.11230  0.90184  1.0000 -0.1878675753
N   N24       1.0  0.39740  0.38770  0.40184  1.0000 -0.1878675753
N   N25       1.0  0.66400  0.40930  0.54149  1.0000 -0.3824511922
N   N26       1.0  0.33600  0.09070  0.04149  1.0000 -0.3824511922
N   N27       1.0  0.16400  0.59070  0.95851  1.0000 -0.3824511922
N   N28       1.0  0.83600  0.90930  0.45851  1.0000 -0.3824511922
N   N29       1.0  0.51990  0.37420  0.56052  1.0000 -0.3824511922
N   N30       1.0  0.48010  0.12580  0.06052  1.0000 -0.3824511922
N   N31       1.0  0.01990  0.62580  0.93948  1.0000 -0.3824511922
N   N32       1.0  0.98010  0.87420  0.43948  1.0000 -0.3851525756
N   N33       1.0  0.66630  0.36970  0.58820  1.0000 -0.3633655878
N   N34       1.0  0.33370  0.13030  0.08820  1.0000 -0.3633655878
N   N35       1.0  0.16630  0.63030  0.91180  1.0000 -0.3633655878
N   N36       1.0  0.83370  0.86970  0.41180  1.0000 -0.3633655878
N   N37       1.0  0.99750  0.44280  0.57688  1.0000 -0.1788565087
N   N38       1.0  0.00250  0.05720  0.07688  1.0000 -0.1788565087
N   N39       1.0  0.49750  0.55720  0.92312  1.0000 -0.1788565087
N   N40       1.0  0.50250  0.94280  0.42312  1.0000 -0.1788565087
N   N41       1.0  0.41820  0.44270  0.46240  1.0000 -0.1878675753
N   N42       1.0  0.58180  0.05730  0.96240  1.0000 -0.1878675753
N   N43       1.0  0.91820  0.55730  0.03760  1.0000 -0.1878675753
N   N44       1.0  0.08180  0.94270  0.53760  1.0000 -0.1878675753
N   N45       1.0  0.41330  0.29600  0.65440  1.0000 -0.1788565087
N   N46       1.0  0.58670  0.20400  0.15440  1.0000 -0.1788565087
N   N47       1.0  0.91330  0.70400  0.84560  1.0000 -0.1788565087
N   N48       1.0  0.08670  0.79600  0.34560  1.0000 -0.1788565087
N   N49       1.0  0.97900  0.32400  0.32454  1.0000 -0.4170771147
N   N50       1.0  0.02100  0.17600  0.82454  1.0000 -0.4170771147
N   N51       1.0  0.47900  0.67600  0.17546  1.0000 -0.4170771147
N   N52       1.0  0.52100  0.82400  0.67546  1.0000 -0.4170771147
N   N53       1.0  0.97470  0.23870  0.32704  1.0000 -0.4103962056
N   N54       1.0  0.02530  0.26130  0.82704  1.0000 -0.4103962056
N   N55       1.0  0.47470  0.76130  0.17296  1.0000 -0.4043728085
N   N56       1.0  0.52530  0.73870  0.67296  1.0000 -0.4043728085
N   N57       1.0  0.93690  0.28440  0.36963  1.0000 -0.4103962056
N   N58       1.0  0.06310  0.21560  0.86963  1.0000 -0.4103962056
N   N59       1.0  0.43690  0.71560  0.13037  1.0000 -0.4103962056
N   N60       1.0  0.56310  0.78440  0.63037  1.0000 -0.4103962056
N   N61       1.0  0.90950  0.45840  0.39623  1.0000 -0.1744005735
N   N62       1.0  0.09050  0.04160  0.89623  1.0000 -0.1744005735
N   N63       1.0  0.40950  0.54160  0.10377  1.0000 -0.1744005735
N   N64       1.0  0.59050  0.95840  0.60377  1.0000 -0.1744005735
N   N65       1.0  0.09550  0.26880  0.22441  1.0000 -0.1788565087
N   N66       1.0  0.90450  0.23120  0.72441  1.0000 -0.1788565087
N   N67       1.0  0.59550  0.73120  0.27559  1.0000 -0.1788565087
N   N68       1.0  0.40450  0.76880  0.77559  1.0000 -0.1788565087
N   N69       1.0  0.89740  0.11230  0.40184  1.0000 -0.1878675753
N   N70       1.0  0.10260  0.38770  0.90184  1.0000 -0.1878675753
N   N71       1.0  0.39740  0.88770  0.09816  1.0000 -0.1878675753
N   N72       1.0  0.60260  0.61230  0.59816  1.0000 -0.1878675753
N   N73       1.0  0.33600  0.59070  0.45851  1.0000 -0.3824511922
N   N74       1.0  0.66400  0.90930  0.95851  1.0000 -0.3824511922
N   N75       1.0  0.83600  0.40930  0.04149  1.0000 -0.3824511922
N   N76       1.0  0.16400  0.09070  0.54149  1.0000 -0.3824511922
N   N77       1.0  0.48010  0.62580  0.43948  1.0000 -0.3824511922
N   N78       1.0  0.51990  0.87420  0.93948  1.0000 -0.3851525756
N   N79       1.0  0.98010  0.37420  0.06052  1.0000 -0.3851525756
N   N80       1.0  0.01990  0.12580  0.56052  1.0000 -0.3824511922
N   N81       1.0  0.33370  0.63030  0.41180  1.0000 -0.3633655878
N   N82       1.0  0.66630  0.86970  0.91180  1.0000 -0.3633655878
N   N83       1.0  0.83370  0.36970  0.08820  1.0000 -0.3633655878
N   N84       1.0  0.16630  0.13030  0.58820  1.0000 -0.3633655878
N   N85       1.0  0.00250  0.55720  0.42312  1.0000 -0.1788565087
N   N86       1.0  0.99750  0.94280  0.92312  1.0000 -0.1788565087
N   N87       1.0  0.50250  0.44280  0.07688  1.0000 -0.1788565087
N   N88       1.0  0.49750  0.05720  0.57688  1.0000 -0.1788565087
N   N89       1.0  0.58180  0.55730  0.53760  1.0000 -0.1878675753
N   N90       1.0  0.41820  0.94270  0.03760  1.0000 -0.1878675753
N   N91       1.0  0.08180  0.44270  0.96240  1.0000 -0.1878675753
N   N92       1.0  0.91820  0.05730  0.46240  1.0000 -0.1878675753
N   N93       1.0  0.58670  0.70400  0.34560  1.0000 -0.1788565087
N   N94       1.0  0.41330  0.79600  0.84560  1.0000 -0.1788565087
N   N95       1.0  0.08670  0.29600  0.15440  1.0000 -0.1744005735
N   N96       1.0  0.91330  0.20400  0.65440  1.0000 -0.1788565087
