# DDEC6 charges by PACMAN v1.1 (https://github.com/mtap-research/PACMAN-charge/)
data_2008[Cu][dia]3[FSR]2
_chemical_formula_sum              "Cu4 H32 C32 N16"
_cell_length_a       11.124
_cell_length_b       15.709
_cell_length_c       11.337
_cell_angle_alpha    90
_cell_angle_beta     106.48
_cell_angle_gamma    90

_symmetry_space_group_name_H-M    "P 1"
_symmetry_Int_Tables_number       1

loop_
  _symmetry_equiv_pos_as_xyz
  'x, y, z'

loop_
  _atom_site_type_symbol
  _atom_site_label
  _atom_site_symmetry_multiplicity
  _atom_site_fract_x
  _atom_site_fract_y
  _atom_site_fract_z
  _atom_site_occupancy
  _atom_site_charge
Cu  Cu1       1.0  0.23895  0.87304  0.96658  1.0000 0.1557985712
Cu  Cu2       1.0  0.76105  0.37304  0.53342  1.0000 0.1557985712
Cu  Cu3       1.0  0.76105  0.12696  0.03342  1.0000 0.15389085
Cu  Cu4       1.0  0.23895  0.62696  0.46658  1.0000 0.1557985712
H   H1        1.0  0.08840  0.72870  0.03300  1.0000 0.10756698
H   H2        1.0  0.91160  0.22870  0.46700  1.0000 0.10756698
H   H3        1.0  0.91160  0.27130  0.96700  1.0000 0.10756698
H   H4        1.0  0.08840  0.77130  0.53300  1.0000 0.10756698
H   H5        1.0  0.39040  0.83840  0.22740  1.0000 0.10756698
H   H6        1.0  0.60960  0.33840  0.27260  1.0000 0.10756698
H   H7        1.0  0.60960  0.16160  0.77260  1.0000 0.10756698
H   H8        1.0  0.39040  0.66160  0.72740  1.0000 0.10756698
H   H9        1.0  0.08460  0.64840  0.19800  1.0000 0.10756698
H   H10       1.0  0.91540  0.14840  0.30200  1.0000 0.10756698
H   H11       1.0  0.91540  0.35160  0.80200  1.0000 0.10756698
H   H12       1.0  0.08460  0.85160  0.69800  1.0000 0.10756698
H   H13       1.0  0.38680  0.75840  0.39160  1.0000 0.10756698
H   H14       1.0  0.61320  0.25840  0.10840  1.0000 0.10756698
H   H15       1.0  0.61320  0.24160  0.60840  1.0000 0.10756698
H   H16       1.0  0.38680  0.74160  0.89160  1.0000 0.10756698
H   H17       1.0  0.95580  0.88680  0.87270  1.0000 0.1036179109
H   H18       1.0  0.04420  0.38680  0.62730  1.0000 0.10756698
H   H19       1.0  0.04420  0.11320  0.12730  1.0000 0.10756698
H   H20       1.0  0.95580  0.61320  0.37270  1.0000 0.1036179109
H   H21       1.0  0.20140  0.03300  0.09510  1.0000 0.10756698
H   H22       1.0  0.79860  0.53300  0.40490  1.0000 0.10756698
H   H23       1.0  0.79860  0.96700  0.90490  1.0000 0.10756698
H   H24       1.0  0.20140  0.46700  0.59510  1.0000 0.10756698
H   H25       1.0  0.30590  0.04950  0.90940  1.0000 0.10756698
H   H26       1.0  0.69410  0.54950  0.59060  1.0000 0.10756698
H   H27       1.0  0.69410  0.95050  0.09060  1.0000 0.10756698
H   H28       1.0  0.30590  0.45050  0.40940  1.0000 0.10756698
H   H29       1.0  0.52450  0.86610  0.07400  1.0000 0.1036179109
H   H30       1.0  0.47550  0.36610  0.42600  1.0000 0.1036179109
H   H31       1.0  0.47550  0.13390  0.92600  1.0000 0.1036179109
H   H32       1.0  0.52450  0.63390  0.57400  1.0000 0.1036179109
C   C1        1.0  0.15150  0.73610  0.10620  1.0000 -0.0287330556
C   C2        1.0  0.84850  0.23610  0.39380  1.0000 -0.0287330556
C   C3        1.0  0.84850  0.26390  0.89380  1.0000 -0.0287330556
C   C4        1.0  0.15150  0.76390  0.60620  1.0000 -0.0287330556
C   C5        1.0  0.32580  0.79920  0.21890  1.0000 -0.0420926707
C   C6        1.0  0.67420  0.29920  0.28110  1.0000 -0.0420926707
C   C7        1.0  0.67420  0.20080  0.78110  1.0000 -0.0420926707
C   C8        1.0  0.32580  0.70080  0.71890  1.0000 -0.0420926707
C   C9        1.0  0.14900  0.68780  0.20630  1.0000 -0.0287330556
C   C10       1.0  0.85100  0.18780  0.29370  1.0000 -0.0287330556
C   C11       1.0  0.85100  0.31220  0.79370  1.0000 -0.0287330556
C   C12       1.0  0.14900  0.81220  0.70630  1.0000 -0.0287330556
C   C13       1.0  0.32350  0.75120  0.31850  1.0000 -0.0239628701
C   C14       1.0  0.67650  0.25120  0.18150  1.0000 -0.0239628701
C   C15       1.0  0.67650  0.24880  0.68150  1.0000 -0.0239628701
C   C16       1.0  0.32350  0.74880  0.81850  1.0000 -0.0239628701
C   C17       1.0  0.97600  0.93320  0.92540  1.0000 -0.0239628701
C   C18       1.0  0.02400  0.43320  0.57460  1.0000 -0.0239628701
C   C19       1.0  0.02400  0.06680  0.07460  1.0000 -0.0287330556
C   C20       1.0  0.97600  0.56680  0.42540  1.0000 -0.0239628701
C   C21       1.0  0.11890  0.01840  0.05490  1.0000 -0.0287330556
C   C22       1.0  0.88110  0.51840  0.44510  1.0000 -0.0287330556
C   C23       1.0  0.88110  0.98160  0.94510  1.0000 -0.0287330556
C   C24       1.0  0.11890  0.48160  0.55490  1.0000 -0.0287330556
C   C25       1.0  0.38540  0.02790  0.94730  1.0000 -0.0287330556
C   C26       1.0  0.61460  0.52790  0.55270  1.0000 -0.0239628701
C   C27       1.0  0.61460  0.97210  0.05270  1.0000 -0.0287330556
C   C28       1.0  0.38540  0.47210  0.44730  1.0000 -0.0239628701
C   C29       1.0  0.51230  0.92120  0.04300  1.0000 -0.0287330556
C   C30       1.0  0.48770  0.42120  0.45700  1.0000 -0.0287330556
C   C31       1.0  0.48770  0.07880  0.95700  1.0000 -0.0287330556
C   C32       1.0  0.51230  0.57880  0.54300  1.0000 -0.0287330556
N   N1        1.0  0.24030  0.79286  0.11000  1.0000 -0.1888943073
N   N2        1.0  0.75970  0.29286  0.39000  1.0000 -0.1888943073
N   N3        1.0  0.75970  0.20714  0.89000  1.0000 -0.1888943073
N   N4        1.0  0.24030  0.70714  0.61000  1.0000 -0.1888943073
N   N5        1.0  0.23460  0.69491  0.31450  1.0000 -0.1888943073
N   N6        1.0  0.76540  0.19491  0.18550  1.0000 -0.1888943073
N   N7        1.0  0.76540  0.30509  0.68550  1.0000 -0.1888943073
N   N8        1.0  0.23460  0.80509  0.81450  1.0000 -0.1888943073
N   N9        1.0  0.09700  0.95062  0.97960  1.0000 -0.1998270602
N   N10       1.0  0.90300  0.45062  0.52040  1.0000 -0.1998270602
N   N11       1.0  0.90300  0.04938  0.02040  1.0000 -0.1998270602
N   N12       1.0  0.09700  0.54938  0.47960  1.0000 -0.1998270602
N   N13       1.0  0.39580  0.94824  0.99060  1.0000 -0.1998270602
N   N14       1.0  0.60420  0.44824  0.50940  1.0000 -0.1998270602
N   N15       1.0  0.60420  0.05176  0.00940  1.0000 -0.1998270602
N   N16       1.0  0.39580  0.55176  0.49060  1.0000 -0.1998270602
