# DDEC6 charges by PACMAN v1.1 (https://github.com/mtap-research/PACMAN-charge/)
data_2009[Cd][nuc]3[FSR]7
_chemical_formula_sum              "Cd4 H144 C192 N48"
_cell_length_a       15.905
_cell_length_b       15.905
_cell_length_c       21.548
_cell_angle_alpha    90
_cell_angle_beta     90
_cell_angle_gamma    90

_symmetry_space_group_name_H-M    "P 1"
_symmetry_Int_Tables_number       1

loop_
  _symmetry_equiv_pos_as_xyz
  'x, y, z'

loop_
  _atom_site_type_symbol
  _atom_site_label
  _atom_site_symmetry_multiplicity
  _atom_site_fract_x
  _atom_site_fract_y
  _atom_site_fract_z
  _atom_site_occupancy
  _atom_site_charge
Cd  Cd1       1.0  0.94113  0.94113  0.50000  1.0000 0.643323427
Cd  Cd2       1.0  0.05887  0.05887  0.00000  1.0000 0.643323427
Cd  Cd3       1.0  0.55887  0.44113  0.25000  1.0000 0.643323427
Cd  Cd4       1.0  0.44113  0.55887  0.75000  1.0000 0.643323427
H   H1        1.0  0.00500  0.76070  0.57310  1.0000 0.0926802934
H   H2        1.0  0.99500  0.23930  0.07310  1.0000 0.0926802934
H   H3        1.0  0.73930  0.50500  0.32310  1.0000 0.0926802934
H   H4        1.0  0.26070  0.49500  0.82310  1.0000 0.0926802934
H   H5        1.0  0.49500  0.26070  0.17690  1.0000 0.0926802934
H   H6        1.0  0.50500  0.73930  0.67690  1.0000 0.0926802934
H   H7        1.0  0.76070  0.00500  0.42690  1.0000 0.0926802934
H   H8        1.0  0.23930  0.99500  0.92690  1.0000 0.0926802934
H   H9        1.0  0.10070  0.65080  0.56380  1.0000 0.1265422837
H   H10       1.0  0.89930  0.34920  0.06380  1.0000 0.1265422837
H   H11       1.0  0.84920  0.60070  0.31380  1.0000 0.1265422837
H   H12       1.0  0.15080  0.39930  0.81380  1.0000 0.1265422837
H   H13       1.0  0.39930  0.15080  0.18620  1.0000 0.1265422837
H   H14       1.0  0.60070  0.84920  0.68620  1.0000 0.1265422837
H   H15       1.0  0.65080  0.10070  0.43620  1.0000 0.1265422837
H   H16       1.0  0.34920  0.89930  0.93620  1.0000 0.1265422837
H   H17       1.0  0.15530  0.73650  0.39190  1.0000 0.1265422837
H   H18       1.0  0.84470  0.26350  0.89190  1.0000 0.1265422837
H   H19       1.0  0.76350  0.65530  0.14190  1.0000 0.1265422837
H   H20       1.0  0.23650  0.34470  0.64190  1.0000 0.1265422837
H   H21       1.0  0.34470  0.23650  0.35810  1.0000 0.1265422837
H   H22       1.0  0.65530  0.76350  0.85810  1.0000 0.1265422837
H   H23       1.0  0.73650  0.15530  0.60810  1.0000 0.1265422837
H   H24       1.0  0.26350  0.84470  0.10810  1.0000 0.1265422837
H   H25       1.0  0.06120  0.84480  0.40760  1.0000 0.1016430335
H   H26       1.0  0.93880  0.15520  0.90760  1.0000 0.1016430335
H   H27       1.0  0.65520  0.56120  0.15760  1.0000 0.1016430335
H   H28       1.0  0.34480  0.43880  0.65760  1.0000 0.1016430335
H   H29       1.0  0.43880  0.34480  0.34240  1.0000 0.1016430335
H   H30       1.0  0.56120  0.65520  0.84240  1.0000 0.1016430335
H   H31       1.0  0.84480  0.06120  0.59240  1.0000 0.1016430335
H   H32       1.0  0.15520  0.93880  0.09240  1.0000 0.1016430335
H   H33       1.0  0.16160  0.53510  0.53490  1.0000 0.1107577146
H   H34       1.0  0.83840  0.46490  0.03490  1.0000 0.1107577146
H   H35       1.0  0.96490  0.66160  0.28490  1.0000 0.1107577146
H   H36       1.0  0.03510  0.33840  0.78490  1.0000 0.1107577146
H   H37       1.0  0.33840  0.03510  0.21510  1.0000 0.1107577146
H   H38       1.0  0.66160  0.96490  0.71510  1.0000 0.1107577146
H   H39       1.0  0.53510  0.16160  0.46510  1.0000 0.1107577146
H   H40       1.0  0.46490  0.83840  0.96510  1.0000 0.1107577146
H   H41       1.0  0.26720  0.43530  0.52710  1.0000 0.1107577146
H   H42       1.0  0.73280  0.56470  0.02710  1.0000 0.1107577146
H   H43       1.0  0.06470  0.76720  0.27710  1.0000 0.1107577146
H   H44       1.0  0.93530  0.23280  0.77710  1.0000 0.1107577146
H   H45       1.0  0.23280  0.93530  0.22290  1.0000 0.1107577146
H   H46       1.0  0.76720  0.06470  0.72290  1.0000 0.1107577146
H   H47       1.0  0.43530  0.26720  0.47290  1.0000 0.1107577146
H   H48       1.0  0.56470  0.73280  0.97290  1.0000 0.1107577146
H   H49       1.0  0.37710  0.45400  0.45820  1.0000 0.1107577146
H   H50       1.0  0.62290  0.54600  0.95820  1.0000 0.1107577146
H   H51       1.0  0.04600  0.87710  0.20820  1.0000 0.1107577146
H   H52       1.0  0.95400  0.12290  0.70820  1.0000 0.1107577146
H   H53       1.0  0.12290  0.95400  0.29180  1.0000 0.1107577146
H   H54       1.0  0.87710  0.04600  0.79180  1.0000 0.1107577146
H   H55       1.0  0.45400  0.37710  0.54180  1.0000 0.1107577146
H   H56       1.0  0.54600  0.62290  0.04180  1.0000 0.1107577146
H   H57       1.0  0.27740  0.67590  0.40530  1.0000 0.1016430335
H   H58       1.0  0.72260  0.32410  0.90530  1.0000 0.1016430335
H   H59       1.0  0.82410  0.77740  0.15530  1.0000 0.1016430335
H   H60       1.0  0.17590  0.22260  0.65530  1.0000 0.1016430335
H   H61       1.0  0.22260  0.17590  0.34470  1.0000 0.1016430335
H   H62       1.0  0.77740  0.82410  0.84470  1.0000 0.1016430335
H   H63       1.0  0.67590  0.27740  0.59470  1.0000 0.1016430335
H   H64       1.0  0.32410  0.72260  0.09470  1.0000 0.1016430335
H   H65       1.0  0.20000  0.00430  0.45710  1.0000 0.1107577146
H   H66       1.0  0.80000  0.99570  0.95710  1.0000 0.1107577146
H   H67       1.0  0.49570  0.70000  0.20710  1.0000 0.1107577146
H   H68       1.0  0.50430  0.30000  0.70710  1.0000 0.1107577146
H   H69       1.0  0.30000  0.50430  0.29290  1.0000 0.1107577146
H   H70       1.0  0.70000  0.49570  0.79290  1.0000 0.1107577146
H   H71       1.0  0.00430  0.20000  0.54290  1.0000 0.1107577146
H   H72       1.0  0.99570  0.80000  0.04290  1.0000 0.1107577146
H   H73       1.0  0.29590  0.90980  0.41240  1.0000 0.1016430335
H   H74       1.0  0.70410  0.09020  0.91240  1.0000 0.1016430335
H   H75       1.0  0.59020  0.79590  0.16240  1.0000 0.1016430335
H   H76       1.0  0.40980  0.20410  0.66240  1.0000 0.1016430335
H   H77       1.0  0.20410  0.40980  0.33760  1.0000 0.1016430335
H   H78       1.0  0.79590  0.59020  0.83760  1.0000 0.1016430335
H   H79       1.0  0.90980  0.29590  0.58760  1.0000 0.1016430335
H   H80       1.0  0.09020  0.70410  0.08760  1.0000 0.1016430335
H   H81       1.0  0.34720  0.79600  0.46880  1.0000 0.0926802934
H   H82       1.0  0.65280  0.20400  0.96880  1.0000 0.0926802934
H   H83       1.0  0.70400  0.84720  0.21880  1.0000 0.0926802934
H   H84       1.0  0.29600  0.15280  0.71880  1.0000 0.0926802934
H   H85       1.0  0.15280  0.29600  0.28120  1.0000 0.0926802934
H   H86       1.0  0.84720  0.70400  0.78120  1.0000 0.0926802934
H   H87       1.0  0.79600  0.34720  0.53120  1.0000 0.0926802934
H   H88       1.0  0.20400  0.65280  0.03120  1.0000 0.0926802934
H   H89       1.0  0.19720  0.86040  0.61290  1.0000 0.1107577146
H   H90       1.0  0.80280  0.13960  0.11290  1.0000 0.1107577146
H   H91       1.0  0.63960  0.69720  0.36290  1.0000 0.1107577146
H   H92       1.0  0.36040  0.30280  0.86290  1.0000 0.1107577146
H   H93       1.0  0.30280  0.36040  0.13710  1.0000 0.1107577146
H   H94       1.0  0.69720  0.63960  0.63710  1.0000 0.1107577146
H   H95       1.0  0.86040  0.19720  0.38710  1.0000 0.1107577146
H   H96       1.0  0.13960  0.80280  0.88710  1.0000 0.1107577146
H   H97       1.0  0.21190  0.74000  0.64650  1.0000 0.1265422837
H   H98       1.0  0.78810  0.26000  0.14650  1.0000 0.1265422837
H   H99       1.0  0.76000  0.71190  0.39650  1.0000 0.1265422837
H   H100      1.0  0.24000  0.28810  0.89650  1.0000 0.1265422837
H   H101      1.0  0.28810  0.24000  0.10350  1.0000 0.1265422837
H   H102      1.0  0.71190  0.76000  0.60350  1.0000 0.1265422837
H   H103      1.0  0.74000  0.21190  0.35350  1.0000 0.1265422837
H   H104      1.0  0.26000  0.78810  0.85350  1.0000 0.1265422837
H   H105      1.0  0.27030  0.63990  0.71000  1.0000 0.0926802934
H   H106      1.0  0.72970  0.36010  0.21000  1.0000 0.0926802934
H   H107      1.0  0.86010  0.77030  0.46000  1.0000 0.0926802934
H   H108      1.0  0.13990  0.22970  0.96000  1.0000 0.0926802934
H   H109      1.0  0.22970  0.13990  0.04000  1.0000 0.0926802934
H   H110      1.0  0.77030  0.86010  0.54000  1.0000 0.0926802934
H   H111      1.0  0.63990  0.27030  0.29000  1.0000 0.0926802934
H   H112      1.0  0.36010  0.72970  0.79000  1.0000 0.0926802934
H   H113      1.0  0.46330  0.61200  0.59970  1.0000 0.1016430335
H   H114      1.0  0.53670  0.38800  0.09970  1.0000 0.1016430335
H   H115      1.0  0.88800  0.96330  0.34970  1.0000 0.1016430335
H   H116      1.0  0.11200  0.03670  0.84970  1.0000 0.1016430335
H   H117      1.0  0.03670  0.11200  0.15030  1.0000 0.1016430335
H   H118      1.0  0.96330  0.88800  0.65030  1.0000 0.1016430335
H   H119      1.0  0.61200  0.46330  0.40030  1.0000 0.1016430335
H   H120      1.0  0.38800  0.53670  0.90030  1.0000 0.1016430335
H   H121      1.0  0.41330  0.71390  0.53290  1.0000 0.1265422837
H   H122      1.0  0.58670  0.28610  0.03290  1.0000 0.1265422837
H   H123      1.0  0.78610  0.91330  0.28290  1.0000 0.1265422837
H   H124      1.0  0.21390  0.08670  0.78290  1.0000 0.1265422837
H   H125      1.0  0.08670  0.21390  0.21710  1.0000 0.1265422837
H   H126      1.0  0.91330  0.78610  0.71710  1.0000 0.1265422837
H   H127      1.0  0.71390  0.41330  0.46710  1.0000 0.1265422837
H   H128      1.0  0.28610  0.58670  0.96710  1.0000 0.1265422837
H   H129      1.0  0.47350  0.75860  0.39030  1.0000 0.261084387
H   H130      1.0  0.52650  0.24140  0.89030  1.0000 0.261084387
H   H131      1.0  0.74140  0.97350  0.14030  1.0000 0.261084387
H   H132      1.0  0.25860  0.02650  0.64030  1.0000 0.261084387
H   H133      1.0  0.02650  0.25860  0.35970  1.0000 0.261084387
H   H134      1.0  0.97350  0.74140  0.85970  1.0000 0.261084387
H   H135      1.0  0.75860  0.47350  0.60970  1.0000 0.261084387
H   H136      1.0  0.24140  0.52650  0.10970  1.0000 0.261084387
H   H137      1.0  0.39740  0.75920  0.35020  1.0000 0.250253966
H   H138      1.0  0.60260  0.24080  0.85020  1.0000 0.250253966
H   H139      1.0  0.74080  0.89740  0.10020  1.0000 0.250253966
H   H140      1.0  0.25920  0.10260  0.60020  1.0000 0.250253966
H   H141      1.0  0.10260  0.25920  0.39980  1.0000 0.250253966
H   H142      1.0  0.89740  0.74080  0.89980  1.0000 0.250253966
H   H143      1.0  0.75920  0.39740  0.64980  1.0000 0.250253966
H   H144      1.0  0.24080  0.60260  0.14980  1.0000 0.250253966
C   C1        1.0  0.03700  0.75640  0.53600  1.0000 0.0682454624
C   C2        1.0  0.96300  0.24360  0.03600  1.0000 0.0682454624
C   C3        1.0  0.74360  0.53700  0.28600  1.0000 0.0682454624
C   C4        1.0  0.25640  0.46300  0.78600  1.0000 0.0682454624
C   C5        1.0  0.46300  0.25640  0.21400  1.0000 0.0682454624
C   C6        1.0  0.53700  0.74360  0.71400  1.0000 0.0682454624
C   C7        1.0  0.75640  0.03700  0.46400  1.0000 0.0682454624
C   C8        1.0  0.24360  0.96300  0.96400  1.0000 0.0682454624
C   C9        1.0  0.09430  0.69000  0.53090  1.0000 -0.2117197598
C   C10       1.0  0.90570  0.31000  0.03090  1.0000 -0.2117197598
C   C11       1.0  0.81000  0.59430  0.28090  1.0000 -0.2117197598
C   C12       1.0  0.19000  0.40570  0.78090  1.0000 -0.2117197598
C   C13       1.0  0.40570  0.19000  0.21910  1.0000 -0.2117197598
C   C14       1.0  0.59430  0.81000  0.71910  1.0000 -0.2117197598
C   C15       1.0  0.69000  0.09430  0.46910  1.0000 -0.2117197598
C   C16       1.0  0.31000  0.90570  0.96910  1.0000 -0.2117197598
C   C17       1.0  0.14220  0.68190  0.47660  1.0000 0.1107577146
C   C18       1.0  0.85780  0.31810  0.97660  1.0000 0.1107577146
C   C19       1.0  0.81810  0.64220  0.22660  1.0000 0.1107577146
C   C20       1.0  0.18190  0.35780  0.72660  1.0000 0.1107577146
C   C21       1.0  0.35780  0.18190  0.27340  1.0000 0.1107577146
C   C22       1.0  0.64220  0.81810  0.77340  1.0000 0.1107577146
C   C23       1.0  0.68190  0.14220  0.52340  1.0000 0.1107577146
C   C24       1.0  0.31810  0.85780  0.02340  1.0000 0.1107577146
C   C25       1.0  0.12650  0.74060  0.43050  1.0000 -0.1988591571
C   C26       1.0  0.87350  0.25940  0.93050  1.0000 -0.1988591571
C   C27       1.0  0.75940  0.62650  0.18050  1.0000 -0.1988591571
C   C28       1.0  0.24060  0.37350  0.68050  1.0000 -0.1988591571
C   C29       1.0  0.37350  0.24060  0.31950  1.0000 -0.1988591571
C   C30       1.0  0.62650  0.75940  0.81950  1.0000 -0.1988591571
C   C31       1.0  0.74060  0.12650  0.56950  1.0000 -0.1988591571
C   C32       1.0  0.25940  0.87350  0.06950  1.0000 -0.1988591571
C   C33       1.0  0.06930  0.80480  0.43980  1.0000 0.06213599
C   C34       1.0  0.93070  0.19520  0.93980  1.0000 0.06213599
C   C35       1.0  0.69520  0.56930  0.18980  1.0000 0.06213599
C   C36       1.0  0.30480  0.43070  0.68980  1.0000 0.06213599
C   C37       1.0  0.43070  0.30480  0.31020  1.0000 0.06213599
C   C38       1.0  0.56930  0.69520  0.81020  1.0000 0.06213599
C   C39       1.0  0.80480  0.06930  0.56020  1.0000 0.06213599
C   C40       1.0  0.19520  0.93070  0.06020  1.0000 0.06213599
C   C41       1.0  0.20780  0.61680  0.47080  1.0000 0.0682454624
C   C42       1.0  0.79220  0.38320  0.97080  1.0000 0.0682454624
C   C43       1.0  0.88320  0.70780  0.22080  1.0000 0.0682454624
C   C44       1.0  0.11680  0.29220  0.72080  1.0000 0.0682454624
C   C45       1.0  0.29220  0.11680  0.27920  1.0000 0.0682454624
C   C46       1.0  0.70780  0.88320  0.77920  1.0000 0.0682454624
C   C47       1.0  0.61680  0.20780  0.52920  1.0000 0.0682454624
C   C48       1.0  0.38320  0.79220  0.02920  1.0000 0.0682454624
C   C49       1.0  0.20660  0.54390  0.50670  1.0000 -0.1617458268
C   C50       1.0  0.79340  0.45610  0.00670  1.0000 -0.1617458268
C   C51       1.0  0.95610  0.70660  0.25670  1.0000 -0.1617458268
C   C52       1.0  0.04390  0.29340  0.75670  1.0000 -0.1617458268
C   C53       1.0  0.29340  0.04390  0.24330  1.0000 -0.1617458268
C   C54       1.0  0.70660  0.95610  0.74330  1.0000 -0.1617458268
C   C55       1.0  0.54390  0.20660  0.49330  1.0000 -0.1617458268
C   C56       1.0  0.45610  0.79340  0.99330  1.0000 -0.1617458268
C   C57       1.0  0.26930  0.48440  0.50200  1.0000 -0.1070810603
C   C58       1.0  0.73070  0.51560  0.00200  1.0000 -0.1070810603
C   C59       1.0  0.01560  0.76930  0.25200  1.0000 -0.1070810603
C   C60       1.0  0.98440  0.23070  0.75200  1.0000 -0.1070810603
C   C61       1.0  0.23070  0.98440  0.24800  1.0000 -0.1070810603
C   C62       1.0  0.76930  0.01560  0.74800  1.0000 -0.1070810603
C   C63       1.0  0.48440  0.26930  0.49800  1.0000 -0.1070810603
C   C64       1.0  0.51560  0.73070  0.99800  1.0000 -0.1070810603
C   C65       1.0  0.33450  0.49560  0.46160  1.0000 -0.1617458268
C   C66       1.0  0.66550  0.50440  0.96160  1.0000 -0.1617458268
C   C67       1.0  0.00440  0.83450  0.21160  1.0000 -0.1617458268
C   C68       1.0  0.99560  0.16550  0.71160  1.0000 -0.1617458268
C   C69       1.0  0.16550  0.99560  0.28840  1.0000 -0.1617458268
C   C70       1.0  0.83450  0.00440  0.78840  1.0000 -0.1617458268
C   C71       1.0  0.49560  0.33450  0.53840  1.0000 -0.1617458268
C   C72       1.0  0.50440  0.66550  0.03840  1.0000 -0.1617458268
C   C73       1.0  0.33850  0.56790  0.42540  1.0000 0.0360499043
C   C74       1.0  0.66150  0.43210  0.92540  1.0000 0.0360499043
C   C75       1.0  0.93210  0.83850  0.17540  1.0000 0.0360499043
C   C76       1.0  0.06790  0.16150  0.67540  1.0000 0.0360499043
C   C77       1.0  0.16150  0.06790  0.32460  1.0000 0.0360499043
C   C78       1.0  0.83850  0.93210  0.82460  1.0000 0.0360499043
C   C79       1.0  0.56790  0.33850  0.57460  1.0000 0.0360499043
C   C80       1.0  0.43210  0.66150  0.07460  1.0000 0.0360499043
C   C81       1.0  0.27500  0.62680  0.43040  1.0000 -0.1988591571
C   C82       1.0  0.72500  0.37320  0.93040  1.0000 -0.1988591571
C   C83       1.0  0.87320  0.77500  0.18040  1.0000 -0.1988591571
C   C84       1.0  0.12680  0.22500  0.68040  1.0000 -0.1988591571
C   C85       1.0  0.22500  0.12680  0.31960  1.0000 -0.1988591571
C   C86       1.0  0.77500  0.87320  0.81960  1.0000 -0.1988591571
C   C87       1.0  0.62680  0.27500  0.56960  1.0000 -0.1988591571
C   C88       1.0  0.37320  0.72500  0.06960  1.0000 -0.1988591571
C   C89       1.0  0.40830  0.57660  0.38170  1.0000 0.1734104752
C   C90       1.0  0.59170  0.42340  0.88170  1.0000 0.1734104752
C   C91       1.0  0.92340  0.90830  0.13170  1.0000 0.1734104752
C   C92       1.0  0.07660  0.09170  0.63170  1.0000 0.1734104752
C   C93       1.0  0.09170  0.07660  0.36830  1.0000 0.1734104752
C   C94       1.0  0.90830  0.92340  0.86830  1.0000 0.1734104752
C   C95       1.0  0.57660  0.40830  0.61830  1.0000 0.1734104752
C   C96       1.0  0.42340  0.59170  0.11830  1.0000 0.1734104752
C   C97       1.0  0.12630  0.99510  0.56980  1.0000 0.1734104752
C   C98       1.0  0.87370  0.00490  0.06980  1.0000 0.1734104752
C   C99       1.0  0.50490  0.62630  0.31980  1.0000 0.1734104752
C   C100      1.0  0.49510  0.37370  0.81980  1.0000 0.1734104752
C   C101      1.0  0.37370  0.49510  0.18020  1.0000 0.1734104752
C   C102      1.0  0.62630  0.50490  0.68020  1.0000 0.1734104752
C   C103      1.0  0.99510  0.12630  0.43020  1.0000 0.1734104752
C   C104      1.0  0.00490  0.87370  0.93020  1.0000 0.1734104752
C   C105      1.0  0.18840  0.93980  0.53980  1.0000 0.0173904281
C   C106      1.0  0.81160  0.06020  0.03980  1.0000 0.0173904281
C   C107      1.0  0.56020  0.68840  0.28980  1.0000 0.0173904281
C   C108      1.0  0.43980  0.31160  0.78980  1.0000 0.0173904281
C   C109      1.0  0.31160  0.43980  0.21020  1.0000 0.0173904281
C   C110      1.0  0.68840  0.56020  0.71020  1.0000 0.0173904281
C   C111      1.0  0.93980  0.18840  0.46020  1.0000 0.0173904281
C   C112      1.0  0.06020  0.81160  0.96020  1.0000 0.0173904281
C   C113      1.0  0.21870  0.95640  0.47950  1.0000 -0.1732918882
C   C114      1.0  0.78130  0.04360  0.97950  1.0000 -0.1732918882
C   C115      1.0  0.54360  0.71870  0.22950  1.0000 -0.1732918882
C   C116      1.0  0.45640  0.28130  0.72950  1.0000 -0.1732918882
C   C117      1.0  0.28130  0.45640  0.27050  1.0000 -0.1732918882
C   C118      1.0  0.71870  0.54360  0.77050  1.0000 -0.1732918882
C   C119      1.0  0.95640  0.21870  0.52050  1.0000 -0.1732918882
C   C120      1.0  0.04360  0.78130  0.02050  1.0000 -0.1732918882
C   C121      1.0  0.27670  0.90080  0.45360  1.0000 -0.1070810603
C   C122      1.0  0.72330  0.09920  0.95360  1.0000 -0.1070810603
C   C123      1.0  0.59920  0.77670  0.20360  1.0000 -0.1070810603
C   C124      1.0  0.40080  0.22330  0.70360  1.0000 -0.1070810603
C   C125      1.0  0.22330  0.40080  0.29640  1.0000 -0.1070810603
C   C126      1.0  0.77670  0.59920  0.79640  1.0000 -0.1070810603
C   C127      1.0  0.90080  0.27670  0.54640  1.0000 -0.1070810603
C   C128      1.0  0.09920  0.72330  0.04640  1.0000 -0.1070810603
C   C129      1.0  0.30670  0.83240  0.48700  1.0000 -0.1732918882
C   C130      1.0  0.69330  0.16760  0.98700  1.0000 -0.1732918882
C   C131      1.0  0.66760  0.80670  0.23700  1.0000 -0.1732918882
C   C132      1.0  0.33240  0.19330  0.73700  1.0000 -0.1732918882
C   C133      1.0  0.19330  0.33240  0.26300  1.0000 -0.1732918882
C   C134      1.0  0.80670  0.66760  0.76300  1.0000 -0.1732918882
C   C135      1.0  0.83240  0.30670  0.51300  1.0000 -0.1732918882
C   C136      1.0  0.16760  0.69330  0.01300  1.0000 -0.1732918882
C   C137      1.0  0.27810  0.81670  0.54680  1.0000 0.0682454624
C   C138      1.0  0.72190  0.18330  0.04680  1.0000 0.0682454624
C   C139      1.0  0.68330  0.77810  0.29680  1.0000 0.0682454624
C   C140      1.0  0.31670  0.22190  0.79680  1.0000 0.0682454624
C   C141      1.0  0.22190  0.31670  0.20320  1.0000 0.0682454624
C   C142      1.0  0.77810  0.68330  0.70320  1.0000 0.0682454624
C   C143      1.0  0.81670  0.27810  0.45320  1.0000 0.0682454624
C   C144      1.0  0.18330  0.72190  0.95320  1.0000 0.0682454624
C   C145      1.0  0.21800  0.87110  0.57230  1.0000 -0.2117197598
C   C146      1.0  0.78200  0.12890  0.07230  1.0000 -0.2117197598
C   C147      1.0  0.62890  0.71800  0.32230  1.0000 -0.2117197598
C   C148      1.0  0.37110  0.28200  0.82230  1.0000 -0.2117197598
C   C149      1.0  0.28200  0.37110  0.17770  1.0000 -0.2117197598
C   C150      1.0  0.71800  0.62890  0.67770  1.0000 -0.2117197598
C   C151      1.0  0.87110  0.21800  0.42770  1.0000 -0.2117197598
C   C152      1.0  0.12890  0.78200  0.92770  1.0000 -0.2117197598
C   C153      1.0  0.30800  0.74420  0.58350  1.0000 0.1153584327
C   C154      1.0  0.69200  0.25580  0.08350  1.0000 0.1153584327
C   C155      1.0  0.75580  0.80800  0.33350  1.0000 0.1153584327
C   C156      1.0  0.24420  0.19200  0.83350  1.0000 0.1153584327
C   C157      1.0  0.19200  0.24420  0.16650  1.0000 0.1153584327
C   C158      1.0  0.80800  0.75580  0.66650  1.0000 0.1153584327
C   C159      1.0  0.74420  0.30800  0.41650  1.0000 0.1153584327
C   C160      1.0  0.25580  0.69200  0.91650  1.0000 0.1153584327
C   C161      1.0  0.26530  0.71680  0.63650  1.0000 -0.2117197598
C   C162      1.0  0.73470  0.28320  0.13650  1.0000 -0.2117197598
C   C163      1.0  0.78320  0.76530  0.38650  1.0000 -0.2117197598
C   C164      1.0  0.21680  0.23470  0.88650  1.0000 -0.2117197598
C   C165      1.0  0.23470  0.21680  0.11350  1.0000 -0.2117197598
C   C166      1.0  0.76530  0.78320  0.61350  1.0000 -0.2117197598
C   C167      1.0  0.71680  0.26530  0.36350  1.0000 -0.2117197598
C   C168      1.0  0.28320  0.73470  0.86350  1.0000 -0.2117197598
C   C169      1.0  0.30040  0.65660  0.67400  1.0000 0.0360499043
C   C170      1.0  0.69960  0.34340  0.17400  1.0000 0.0360499043
C   C171      1.0  0.84340  0.80040  0.42400  1.0000 0.0360499043
C   C172      1.0  0.15660  0.19960  0.92400  1.0000 0.0360499043
C   C173      1.0  0.19960  0.15660  0.07600  1.0000 0.0360499043
C   C174      1.0  0.80040  0.84340  0.57600  1.0000 0.034982888
C   C175      1.0  0.65660  0.30040  0.32600  1.0000 0.0360499043
C   C176      1.0  0.34340  0.69960  0.82600  1.0000 0.0360499043
C   C177      1.0  0.41280  0.64050  0.61020  1.0000 0.06213599
C   C178      1.0  0.58720  0.35950  0.11020  1.0000 0.06213599
C   C179      1.0  0.85950  0.91280  0.36020  1.0000 0.06213599
C   C180      1.0  0.14050  0.08720  0.86020  1.0000 0.06213599
C   C181      1.0  0.08720  0.14050  0.13980  1.0000 0.06213599
C   C182      1.0  0.91280  0.85950  0.63980  1.0000 0.06213599
C   C183      1.0  0.64050  0.41280  0.38980  1.0000 0.06213599
C   C184      1.0  0.35950  0.58720  0.88980  1.0000 0.06213599
C   C185      1.0  0.38310  0.70130  0.56980  1.0000 -0.2117197598
C   C186      1.0  0.61690  0.29870  0.06980  1.0000 -0.2117197598
C   C187      1.0  0.79870  0.88310  0.31980  1.0000 -0.2117197598
C   C188      1.0  0.20130  0.11690  0.81980  1.0000 -0.2117197598
C   C189      1.0  0.11690  0.20130  0.18020  1.0000 -0.2117197598
C   C190      1.0  0.88310  0.79870  0.68020  1.0000 -0.2117197598
C   C191      1.0  0.70130  0.38310  0.43020  1.0000 -0.2117197598
C   C192      1.0  0.29870  0.61690  0.93020  1.0000 -0.2117197598
N   N1        1.0  0.02460  0.81330  0.49240  1.0000 -0.2435226683
N   N2        1.0  0.97540  0.18670  0.99240  1.0000 -0.2435226683
N   N3        1.0  0.68670  0.52460  0.24240  1.0000 -0.2435226683
N   N4        1.0  0.31330  0.47540  0.74240  1.0000 -0.2435226683
N   N5        1.0  0.47540  0.31330  0.25760  1.0000 -0.2435226683
N   N6        1.0  0.52460  0.68670  0.75760  1.0000 -0.2435226683
N   N7        1.0  0.81330  0.02460  0.50760  1.0000 -0.2435226683
N   N8        1.0  0.18670  0.97540  0.00760  1.0000 -0.2435226683
N   N9        1.0  0.44600  0.51220  0.35530  1.0000 -0.2802971024
N   N10       1.0  0.55400  0.48780  0.85530  1.0000 -0.2802971024
N   N11       1.0  0.98780  0.94600  0.10530  1.0000 -0.2802971024
N   N12       1.0  0.01220  0.05400  0.60530  1.0000 -0.2802971024
N   N13       1.0  0.05400  0.01220  0.39470  1.0000 -0.2802971024
N   N14       1.0  0.94600  0.98780  0.89470  1.0000 -0.2802971024
N   N15       1.0  0.51220  0.44600  0.64470  1.0000 -0.2802971024
N   N16       1.0  0.48780  0.55400  0.14470  1.0000 -0.2802971024
N   N17       1.0  0.04460  0.99310  0.56640  1.0000 -0.2296195376
N   N18       1.0  0.95540  0.00690  0.06640  1.0000 -0.2296195376
N   N19       1.0  0.50690  0.54460  0.31640  1.0000 -0.2296195376
N   N20       1.0  0.49310  0.45540  0.81640  1.0000 -0.2296195376
N   N21       1.0  0.45540  0.49310  0.18360  1.0000 -0.2296195376
N   N22       1.0  0.54460  0.50690  0.68360  1.0000 -0.2296195376
N   N23       1.0  0.99310  0.04460  0.43360  1.0000 -0.2296195376
N   N24       1.0  0.00690  0.95540  0.93360  1.0000 -0.2296195376
N   N25       1.0  0.44360  0.64900  0.36030  1.0000 0.06213599
N   N26       1.0  0.55640  0.35100  0.86030  1.0000 0.06213599
N   N27       1.0  0.85100  0.94360  0.11030  1.0000 0.06213599
N   N28       1.0  0.14900  0.05640  0.61030  1.0000 0.06213599
N   N29       1.0  0.05640  0.14900  0.38970  1.0000 0.06213599
N   N30       1.0  0.94360  0.85100  0.88970  1.0000 0.06213599
N   N31       1.0  0.64900  0.44360  0.63970  1.0000 0.06213599
N   N32       1.0  0.35100  0.55640  0.13970  1.0000 0.06213599
N   N33       1.0  0.42500  0.73110  0.38100  1.0000 -0.5191153531
N   N34       1.0  0.57500  0.26890  0.88100  1.0000 -0.5191153531
N   N35       1.0  0.76890  0.92500  0.13100  1.0000 -0.5191153531
N   N36       1.0  0.23110  0.07500  0.63100  1.0000 -0.5191153531
N   N37       1.0  0.07500  0.23110  0.36900  1.0000 -0.5191153531
N   N38       1.0  0.92500  0.76890  0.86900  1.0000 -0.5191153531
N   N39       1.0  0.73110  0.42500  0.61900  1.0000 -0.5191153531
N   N40       1.0  0.26890  0.57500  0.11900  1.0000 -0.5191153531
N   N41       1.0  0.88000  0.87460  0.41270  1.0000 -0.2296195376
N   N42       1.0  0.12000  0.12540  0.91270  1.0000 -0.2296195376
N   N43       1.0  0.62540  0.38000  0.16270  1.0000 -0.2296195376
N   N44       1.0  0.37460  0.62000  0.66270  1.0000 -0.2296195376
N   N45       1.0  0.62000  0.37460  0.33730  1.0000 -0.2296195376
N   N46       1.0  0.38000  0.62540  0.83730  1.0000 -0.2296195376
N   N47       1.0  0.87460  0.88000  0.58730  1.0000 -0.2296195376
N   N48       1.0  0.12540  0.12000  0.08730  1.0000 -0.2296195376
