# DDEC6 charges by PACMAN v1.1 (https://github.com/mtap-research/PACMAN-charge/)
data_2009[Zn][srs]3[FSR]2
_chemical_formula_sum              "Zn24 H192 C288 I48 N96"
_cell_length_a       13.845
_cell_length_b       27.908
_cell_length_c       44.236
_cell_angle_alpha    90
_cell_angle_beta     90
_cell_angle_gamma    90

_symmetry_space_group_name_H-M    "P 1"
_symmetry_Int_Tables_number       1

loop_
  _symmetry_equiv_pos_as_xyz
  'x, y, z'

loop_
  _atom_site_type_symbol
  _atom_site_label
  _atom_site_symmetry_multiplicity
  _atom_site_fract_x
  _atom_site_fract_y
  _atom_site_fract_z
  _atom_site_occupancy
  _atom_site_charge
Zn  Zn1       1.0  0.85923  0.45374  0.91225  1.0000 0.4609184359
Zn  Zn2       1.0  0.14077  0.04626  0.41225  1.0000 0.4609184359
Zn  Zn3       1.0  0.35923  0.54626  0.58775  1.0000 0.4609184359
Zn  Zn4       1.0  0.64077  0.95374  0.08775  1.0000 0.4609184359
Zn  Zn5       1.0  0.18258  0.23999  0.68033  1.0000 0.4680148737
Zn  Zn6       1.0  0.81742  0.26001  0.18033  1.0000 0.4680148737
Zn  Zn7       1.0  0.68258  0.76001  0.81967  1.0000 0.4680148737
Zn  Zn8       1.0  0.31742  0.73999  0.31967  1.0000 0.4680148737
Zn  Zn9       1.0  0.61954  0.47623  0.08617  1.0000 0.4609184359
Zn  Zn10      1.0  0.38046  0.02377  0.58617  1.0000 0.4609184359
Zn  Zn11      1.0  0.11954  0.52377  0.41383  1.0000 0.4609184359
Zn  Zn12      1.0  0.88046  0.97623  0.91383  1.0000 0.4609184359
Zn  Zn13      1.0  0.14077  0.54626  0.08775  1.0000 0.4609184359
Zn  Zn14      1.0  0.85923  0.95374  0.58775  1.0000 0.4609184359
Zn  Zn15      1.0  0.64077  0.45374  0.41225  1.0000 0.4609184359
Zn  Zn16      1.0  0.35923  0.04626  0.91225  1.0000 0.4609184359
Zn  Zn17      1.0  0.81742  0.76001  0.31967  1.0000 0.4680148737
Zn  Zn18      1.0  0.18258  0.73999  0.81967  1.0000 0.4680148737
Zn  Zn19      1.0  0.31742  0.23999  0.18033  1.0000 0.4680148737
Zn  Zn20      1.0  0.68258  0.26001  0.68033  1.0000 0.4680148737
Zn  Zn21      1.0  0.38046  0.52377  0.91383  1.0000 0.4609184359
Zn  Zn22      1.0  0.61954  0.97623  0.41383  1.0000 0.4609184359
Zn  Zn23      1.0  0.88046  0.47623  0.58617  1.0000 0.4609184359
Zn  Zn24      1.0  0.11954  0.02377  0.08617  1.0000 0.4609184359
H   H1        1.0  0.78540  0.31620  0.12490  1.0000 0.1091398469
H   H2        1.0  0.21460  0.18380  0.62490  1.0000 0.1091398469
H   H3        1.0  0.28540  0.68380  0.37510  1.0000 0.1091398469
H   H4        1.0  0.71460  0.81620  0.87510  1.0000 0.1091398469
H   H5        1.0  0.87000  0.35500  0.08640  1.0000 0.1319060737
H   H6        1.0  0.13000  0.14500  0.58640  1.0000 0.1319060737
H   H7        1.0  0.37000  0.64500  0.41360  1.0000 0.1319060737
H   H8        1.0  0.63000  0.85500  0.91360  1.0000 0.1319060737
H   H9        1.0  0.02680  0.28240  0.16610  1.0000 0.1091398469
H   H10       1.0  0.97320  0.21760  0.66610  1.0000 0.1091398469
H   H11       1.0  0.52680  0.71760  0.33390  1.0000 0.1091398469
H   H12       1.0  0.47320  0.78240  0.83390  1.0000 0.1091398469
H   H13       1.0  0.11750  0.32150  0.12970  1.0000 0.1319060737
H   H14       1.0  0.88250  0.17850  0.62970  1.0000 0.1319060737
H   H15       1.0  0.61750  0.67850  0.37030  1.0000 0.1319060737
H   H16       1.0  0.38250  0.82150  0.87030  1.0000 0.1319060737
H   H17       1.0  0.46350  0.42390  0.11970  1.0000 0.1091398469
H   H18       1.0  0.53650  0.07610  0.61970  1.0000 0.1091398469
H   H19       1.0  0.96350  0.57610  0.38030  1.0000 0.1091398469
H   H20       1.0  0.03650  0.92390  0.88030  1.0000 0.1091398469
H   H21       1.0  0.30720  0.39720  0.11320  1.0000 0.1376214576
H   H22       1.0  0.69280  0.10280  0.61320  1.0000 0.1376214576
H   H23       1.0  0.80720  0.60280  0.38680  1.0000 0.1319060737
H   H24       1.0  0.19280  0.89720  0.88680  1.0000 0.1319060737
H   H25       1.0  0.48040  0.46300  0.03430  1.0000 0.1091398469
H   H26       1.0  0.51960  0.03700  0.53430  1.0000 0.1091398469
H   H27       1.0  0.98040  0.53700  0.46570  1.0000 0.1091398469
H   H28       1.0  0.01960  0.96300  0.96570  1.0000 0.1091398469
H   H29       1.0  0.32420  0.43760  0.02540  1.0000 0.1319060737
H   H30       1.0  0.67580  0.06240  0.52540  1.0000 0.1319060737
H   H31       1.0  0.82420  0.56240  0.47460  1.0000 0.1319060737
H   H32       1.0  0.17580  0.93760  0.97460  1.0000 0.1319060737
H   H33       1.0  0.04810  0.47180  0.94290  1.0000 0.1091398469
H   H34       1.0  0.95190  0.02820  0.44290  1.0000 0.1091398469
H   H35       1.0  0.54810  0.52820  0.55710  1.0000 0.1091398469
H   H36       1.0  0.45190  0.97180  0.05710  1.0000 0.1091398469
H   H37       1.0  0.12760  0.45140  0.98700  1.0000 0.1319060737
H   H38       1.0  0.87240  0.04860  0.48700  1.0000 0.1319060737
H   H39       1.0  0.62760  0.54860  0.51300  1.0000 0.1319060737
H   H40       1.0  0.37240  0.95140  0.01300  1.0000 0.1319060737
H   H41       1.0  0.80000  0.42680  0.97590  1.0000 0.1091398469
H   H42       1.0  0.20000  0.07320  0.47590  1.0000 0.1091398469
H   H43       1.0  0.30000  0.57320  0.52410  1.0000 0.1091398469
H   H44       1.0  0.70000  0.92680  0.02410  1.0000 0.1091398469
H   H45       1.0  0.87230  0.40420  0.02120  1.0000 0.1376214576
H   H46       1.0  0.12770  0.09580  0.52120  1.0000 0.1376214576
H   H47       1.0  0.37230  0.59580  0.47880  1.0000 0.1376214576
H   H48       1.0  0.62770  0.90420  0.97880  1.0000 0.1376214576
H   H49       1.0  0.87170  0.34850  0.93060  1.0000 0.1091398469
H   H50       1.0  0.12830  0.15150  0.43060  1.0000 0.1091398469
H   H51       1.0  0.37170  0.65150  0.56940  1.0000 0.1091398469
H   H52       1.0  0.62830  0.84850  0.06940  1.0000 0.1091398469
H   H53       1.0  0.89880  0.27420  0.90840  1.0000 0.1376214576
H   H54       1.0  0.10120  0.22580  0.40840  1.0000 0.1376214576
H   H55       1.0  0.39880  0.72580  0.59160  1.0000 0.1376214576
H   H56       1.0  0.60120  0.77420  0.09160  1.0000 0.1376214576
H   H57       1.0  0.94880  0.41580  0.85610  1.0000 0.098956124
H   H58       1.0  0.05120  0.08420  0.35610  1.0000 0.098956124
H   H59       1.0  0.44880  0.58420  0.64390  1.0000 0.098956124
H   H60       1.0  0.55120  0.91580  0.14390  1.0000 0.098956124
H   H61       1.0  0.97210  0.34390  0.83150  1.0000 0.1319060737
H   H62       1.0  0.02790  0.15610  0.33150  1.0000 0.1319060737
H   H63       1.0  0.47210  0.65610  0.66850  1.0000 0.1319060737
H   H64       1.0  0.52790  0.84390  0.16850  1.0000 0.1319060737
H   H65       1.0  0.06510  0.29860  0.72350  1.0000 0.1091398469
H   H66       1.0  0.93490  0.20140  0.22350  1.0000 0.1091398469
H   H67       1.0  0.56510  0.70140  0.77650  1.0000 0.1091398469
H   H68       1.0  0.43490  0.79860  0.27650  1.0000 0.1091398469
H   H69       1.0  0.00230  0.29280  0.77190  1.0000 0.1319060737
H   H70       1.0  0.99770  0.20720  0.27190  1.0000 0.1319060737
H   H71       1.0  0.50230  0.70720  0.72810  1.0000 0.1319060737
H   H72       1.0  0.49770  0.79280  0.22810  1.0000 0.1319060737
H   H73       1.0  0.12310  0.16020  0.72190  1.0000 0.1091398469
H   H74       1.0  0.87690  0.33980  0.22190  1.0000 0.1091398469
H   H75       1.0  0.62310  0.83980  0.77810  1.0000 0.1091398469
H   H76       1.0  0.37690  0.66020  0.27810  1.0000 0.1091398469
H   H77       1.0  0.05410  0.14990  0.76940  1.0000 0.1376214576
H   H78       1.0  0.94590  0.35010  0.26940  1.0000 0.1376214576
H   H79       1.0  0.55410  0.85010  0.73060  1.0000 0.1376214576
H   H80       1.0  0.44590  0.64990  0.23060  1.0000 0.1376214576
H   H81       1.0  0.93510  0.01370  0.85310  1.0000 0.1091398469
H   H82       1.0  0.06490  0.48630  0.35310  1.0000 0.1091398469
H   H83       1.0  0.43510  0.98630  0.64690  1.0000 0.1091398469
H   H84       1.0  0.56490  0.51370  0.14690  1.0000 0.1091398469
H   H85       1.0  0.95920  0.08540  0.82780  1.0000 0.1319060737
H   H86       1.0  0.04080  0.41460  0.32780  1.0000 0.1319060737
H   H87       1.0  0.45920  0.91460  0.67220  1.0000 0.1319060737
H   H88       1.0  0.54080  0.58540  0.17220  1.0000 0.1319060737
H   H89       1.0  0.89850  0.08080  0.93020  1.0000 0.1091398469
H   H90       1.0  0.10150  0.41920  0.43020  1.0000 0.1091398469
H   H91       1.0  0.39850  0.91920  0.56980  1.0000 0.1091398469
H   H92       1.0  0.60150  0.58080  0.06980  1.0000 0.1091398469
H   H93       1.0  0.92060  0.15480  0.90690  1.0000 0.1319060737
H   H94       1.0  0.07940  0.34520  0.40690  1.0000 0.1319060737
H   H95       1.0  0.42060  0.84520  0.59310  1.0000 0.1319060737
H   H96       1.0  0.57940  0.65480  0.09310  1.0000 0.1319060737
H   H97       1.0  0.21460  0.68380  0.87510  1.0000 0.1091398469
H   H98       1.0  0.78540  0.81620  0.37510  1.0000 0.1091398469
H   H99       1.0  0.71460  0.31620  0.62490  1.0000 0.1091398469
H   H100      1.0  0.28540  0.18380  0.12490  1.0000 0.1091398469
H   H101      1.0  0.13000  0.64500  0.91360  1.0000 0.1319060737
H   H102      1.0  0.87000  0.85500  0.41360  1.0000 0.1319060737
H   H103      1.0  0.63000  0.35500  0.58640  1.0000 0.1319060737
H   H104      1.0  0.37000  0.14500  0.08640  1.0000 0.1319060737
H   H105      1.0  0.97320  0.71760  0.83390  1.0000 0.1091398469
H   H106      1.0  0.02680  0.78240  0.33390  1.0000 0.1091398469
H   H107      1.0  0.47320  0.28240  0.66610  1.0000 0.1091398469
H   H108      1.0  0.52680  0.21760  0.16610  1.0000 0.1091398469
H   H109      1.0  0.88250  0.67850  0.87030  1.0000 0.1319060737
H   H110      1.0  0.11750  0.82150  0.37030  1.0000 0.1319060737
H   H111      1.0  0.38250  0.32150  0.62970  1.0000 0.1319060737
H   H112      1.0  0.61750  0.17850  0.12970  1.0000 0.1319060737
H   H113      1.0  0.53650  0.57610  0.88030  1.0000 0.1091398469
H   H114      1.0  0.46350  0.92390  0.38030  1.0000 0.1091398469
H   H115      1.0  0.03650  0.42390  0.61970  1.0000 0.1091398469
H   H116      1.0  0.96350  0.07610  0.11970  1.0000 0.1091398469
H   H117      1.0  0.69280  0.60280  0.88680  1.0000 0.1319060737
H   H118      1.0  0.30720  0.89720  0.38680  1.0000 0.1376214576
H   H119      1.0  0.19280  0.39720  0.61320  1.0000 0.1376214576
H   H120      1.0  0.80720  0.10280  0.11320  1.0000 0.1376214576
H   H121      1.0  0.51960  0.53700  0.96570  1.0000 0.1091398469
H   H122      1.0  0.48040  0.96300  0.46570  1.0000 0.1091398469
H   H123      1.0  0.01960  0.46300  0.53430  1.0000 0.1091398469
H   H124      1.0  0.98040  0.03700  0.03430  1.0000 0.1091398469
H   H125      1.0  0.67580  0.56240  0.97460  1.0000 0.1319060737
H   H126      1.0  0.32420  0.93760  0.47460  1.0000 0.1319060737
H   H127      1.0  0.17580  0.43760  0.52540  1.0000 0.1319060737
H   H128      1.0  0.82420  0.06240  0.02540  1.0000 0.1319060737
H   H129      1.0  0.95190  0.52820  0.05710  1.0000 0.1091398469
H   H130      1.0  0.04810  0.97180  0.55710  1.0000 0.1091398469
H   H131      1.0  0.45190  0.47180  0.44290  1.0000 0.1091398469
H   H132      1.0  0.54810  0.02820  0.94290  1.0000 0.1091398469
H   H133      1.0  0.87240  0.54860  0.01300  1.0000 0.1319060737
H   H134      1.0  0.12760  0.95140  0.51300  1.0000 0.1319060737
H   H135      1.0  0.37240  0.45140  0.48700  1.0000 0.1319060737
H   H136      1.0  0.62760  0.04860  0.98700  1.0000 0.1319060737
H   H137      1.0  0.20000  0.57320  0.02410  1.0000 0.1091398469
H   H138      1.0  0.80000  0.92680  0.52410  1.0000 0.1091398469
H   H139      1.0  0.70000  0.42680  0.47590  1.0000 0.1091398469
H   H140      1.0  0.30000  0.07320  0.97590  1.0000 0.1091398469
H   H141      1.0  0.12770  0.59580  0.97880  1.0000 0.1376214576
H   H142      1.0  0.87230  0.90420  0.47880  1.0000 0.1376214576
H   H143      1.0  0.62770  0.40420  0.52120  1.0000 0.1376214576
H   H144      1.0  0.37230  0.09580  0.02120  1.0000 0.1376214576
H   H145      1.0  0.12830  0.65150  0.06940  1.0000 0.1091398469
H   H146      1.0  0.87170  0.84850  0.56940  1.0000 0.1091398469
H   H147      1.0  0.62830  0.34850  0.43060  1.0000 0.1091398469
H   H148      1.0  0.37170  0.15150  0.93060  1.0000 0.1091398469
H   H149      1.0  0.10120  0.72580  0.09160  1.0000 0.1376214576
H   H150      1.0  0.89880  0.77420  0.59160  1.0000 0.1376214576
H   H151      1.0  0.60120  0.27420  0.40840  1.0000 0.1376214576
H   H152      1.0  0.39880  0.22580  0.90840  1.0000 0.1376214576
H   H153      1.0  0.05120  0.58420  0.14390  1.0000 0.098956124
H   H154      1.0  0.94880  0.91580  0.64390  1.0000 0.098956124
H   H155      1.0  0.55120  0.41580  0.35610  1.0000 0.098956124
H   H156      1.0  0.44880  0.08420  0.85610  1.0000 0.098956124
H   H157      1.0  0.02790  0.65610  0.16850  1.0000 0.1319060737
H   H158      1.0  0.97210  0.84390  0.66850  1.0000 0.1319060737
H   H159      1.0  0.52790  0.34390  0.33150  1.0000 0.1319060737
H   H160      1.0  0.47210  0.15610  0.83150  1.0000 0.1319060737
H   H161      1.0  0.93490  0.70140  0.27650  1.0000 0.1091398469
H   H162      1.0  0.06510  0.79860  0.77650  1.0000 0.1091398469
H   H163      1.0  0.43490  0.29860  0.22350  1.0000 0.1091398469
H   H164      1.0  0.56510  0.20140  0.72350  1.0000 0.1091398469
H   H165      1.0  0.99770  0.70720  0.22810  1.0000 0.1319060737
H   H166      1.0  0.00230  0.79280  0.72810  1.0000 0.1319060737
H   H167      1.0  0.49770  0.29280  0.27190  1.0000 0.1319060737
H   H168      1.0  0.50230  0.20720  0.77190  1.0000 0.1319060737
H   H169      1.0  0.87690  0.83980  0.27810  1.0000 0.1091398469
H   H170      1.0  0.12310  0.66020  0.77810  1.0000 0.1091398469
H   H171      1.0  0.37690  0.16020  0.22190  1.0000 0.1091398469
H   H172      1.0  0.62310  0.33980  0.72190  1.0000 0.1091398469
H   H173      1.0  0.94590  0.85010  0.23060  1.0000 0.1376214576
H   H174      1.0  0.05410  0.64990  0.73060  1.0000 0.1376214576
H   H175      1.0  0.44590  0.14990  0.26940  1.0000 0.1376214576
H   H176      1.0  0.55410  0.35010  0.76940  1.0000 0.1376214576
H   H177      1.0  0.06490  0.98630  0.14690  1.0000 0.1091398469
H   H178      1.0  0.93510  0.51370  0.64690  1.0000 0.1091398469
H   H179      1.0  0.56490  0.01370  0.35310  1.0000 0.1091398469
H   H180      1.0  0.43510  0.48630  0.85310  1.0000 0.1091398469
H   H181      1.0  0.04080  0.91460  0.17220  1.0000 0.1319060737
H   H182      1.0  0.95920  0.58540  0.67220  1.0000 0.1319060737
H   H183      1.0  0.54080  0.08540  0.32780  1.0000 0.1319060737
H   H184      1.0  0.45920  0.41460  0.82780  1.0000 0.1319060737
H   H185      1.0  0.10150  0.91920  0.06980  1.0000 0.1091398469
H   H186      1.0  0.89850  0.58080  0.56980  1.0000 0.1091398469
H   H187      1.0  0.60150  0.08080  0.43020  1.0000 0.1091398469
H   H188      1.0  0.39850  0.41920  0.93020  1.0000 0.1091398469
H   H189      1.0  0.07940  0.84520  0.09310  1.0000 0.1319060737
H   H190      1.0  0.92060  0.65480  0.59310  1.0000 0.1319060737
H   H191      1.0  0.57940  0.15480  0.40690  1.0000 0.1319060737
H   H192      1.0  0.42060  0.34520  0.90690  1.0000 0.1319060737
C   C1        1.0  0.85390  0.31690  0.12572  1.0000 0.0913453311
C   C2        1.0  0.14610  0.18310  0.62572  1.0000 0.0913453311
C   C3        1.0  0.35390  0.68310  0.37428  1.0000 0.0913453311
C   C4        1.0  0.64610  0.81690  0.87428  1.0000 0.0913453311
C   C5        1.0  0.90380  0.34050  0.10270  1.0000 -0.1205514228
C   C6        1.0  0.09620  0.15950  0.60270  1.0000 -0.1205514228
C   C7        1.0  0.40380  0.65950  0.39730  1.0000 -0.1205514228
C   C8        1.0  0.59620  0.84050  0.89730  1.0000 -0.1205514228
C   C9        1.0  0.99450  0.29760  0.14968  1.0000 0.0819825261
C   C10       1.0  0.00550  0.20240  0.64968  1.0000 0.0819825261
C   C11       1.0  0.49450  0.70240  0.35032  1.0000 0.0819825261
C   C12       1.0  0.50550  0.79760  0.85032  1.0000 0.0819825261
C   C13       1.0  0.04910  0.32050  0.12810  1.0000 -0.1205514228
C   C14       1.0  0.95090  0.17950  0.62810  1.0000 -0.1205514228
C   C15       1.0  0.54910  0.67950  0.37190  1.0000 -0.1205514228
C   C16       1.0  0.45090  0.82050  0.87190  1.0000 -0.1205514228
C   C17       1.0  0.00290  0.34214  0.10412  1.0000 0.0536248547
C   C18       1.0  0.99710  0.15786  0.60412  1.0000 0.0536248547
C   C19       1.0  0.50290  0.65786  0.39588  1.0000 0.0536248547
C   C20       1.0  0.49710  0.84214  0.89588  1.0000 0.0576276529
C   C21       1.0  0.05820  0.36805  0.08049  1.0000 0.3756603786
C   C22       1.0  0.94180  0.13195  0.58049  1.0000 0.3756603786
C   C23       1.0  0.55820  0.63195  0.41951  1.0000 0.3756603786
C   C24       1.0  0.44180  0.86805  0.91951  1.0000 0.3756603786
C   C25       1.0  0.43450  0.42657  0.10032  1.0000 0.0819825261
C   C26       1.0  0.56550  0.07343  0.60032  1.0000 0.0819825261
C   C27       1.0  0.93450  0.57343  0.39968  1.0000 0.0819825261
C   C28       1.0  0.06550  0.92657  0.89968  1.0000 0.0819825261
C   C29       1.0  0.34140  0.41080  0.09667  1.0000 -0.1205514228
C   C30       1.0  0.65860  0.08920  0.59667  1.0000 -0.1205514228
C   C31       1.0  0.84140  0.58920  0.40333  1.0000 -0.1205514228
C   C32       1.0  0.15860  0.91080  0.90333  1.0000 -0.1205514228
C   C33       1.0  0.44450  0.44947  0.05045  1.0000 0.0819825261
C   C34       1.0  0.55550  0.05053  0.55045  1.0000 0.0819825261
C   C35       1.0  0.94450  0.55053  0.44955  1.0000 0.0819825261
C   C36       1.0  0.05550  0.94947  0.94955  1.0000 0.0819825261
C   C37       1.0  0.35160  0.43450  0.04502  1.0000 -0.1346257452
C   C38       1.0  0.64840  0.06550  0.54502  1.0000 -0.1346257452
C   C39       1.0  0.85160  0.56550  0.45498  1.0000 -0.1346257452
C   C40       1.0  0.14840  0.93450  0.95498  1.0000 -0.1404881178
C   C41       1.0  0.29820  0.41488  0.06860  1.0000 0.0576276529
C   C42       1.0  0.70180  0.08512  0.56860  1.0000 0.0576276529
C   C43       1.0  0.79820  0.58512  0.43140  1.0000 0.0576276529
C   C44       1.0  0.20180  0.91488  0.93140  1.0000 0.0576276529
C   C45       1.0  0.19590  0.40161  0.06391  1.0000 0.3756603786
C   C46       1.0  0.80410  0.09839  0.56391  1.0000 0.3756603786
C   C47       1.0  0.69590  0.59839  0.43609  1.0000 0.3756603786
C   C48       1.0  0.30410  0.90161  0.93609  1.0000 0.3756603786
C   C49       1.0  0.01270  0.45716  0.95883  1.0000 0.0676281695
C   C50       1.0  0.98730  0.04284  0.45883  1.0000 0.0676281695
C   C51       1.0  0.51270  0.54284  0.54117  1.0000 0.0676281695
C   C52       1.0  0.48730  0.95716  0.04117  1.0000 0.0676281695
C   C53       1.0  0.06040  0.44512  0.98498  1.0000 -0.1404881178
C   C54       1.0  0.93960  0.05488  0.48498  1.0000 -0.1404881178
C   C55       1.0  0.56040  0.55488  0.51502  1.0000 -0.1404881178
C   C56       1.0  0.43960  0.94512  0.01502  1.0000 -0.1404881178
C   C57       1.0  0.86780  0.43080  0.97806  1.0000 0.0819825261
C   C58       1.0  0.13220  0.06920  0.47806  1.0000 0.0819825261
C   C59       1.0  0.36780  0.56920  0.52194  1.0000 0.0819825261
C   C60       1.0  0.63220  0.93080  0.02194  1.0000 0.0819825261
C   C61       1.0  0.91000  0.41730  0.00523  1.0000 -0.1510373465
C   C62       1.0  0.09000  0.08270  0.50523  1.0000 -0.1510373465
C   C63       1.0  0.41000  0.58270  0.49477  1.0000 -0.1510373465
C   C64       1.0  0.59000  0.91730  0.99477  1.0000 -0.1510373465
C   C65       1.0  0.00930  0.42367  0.00841  1.0000 0.0536248547
C   C66       1.0  0.99070  0.07633  0.50841  1.0000 0.0536248547
C   C67       1.0  0.50930  0.57633  0.49159  1.0000 0.0536248547
C   C68       1.0  0.49070  0.92367  0.99159  1.0000 0.0536248547
C   C69       1.0  0.05990  0.40763  0.03613  1.0000 0.3756603786
C   C70       1.0  0.94010  0.09237  0.53613  1.0000 0.3756603786
C   C71       1.0  0.55990  0.59237  0.46387  1.0000 0.3756603786
C   C72       1.0  0.44010  0.90763  0.96387  1.0000 0.3756603786
C   C73       1.0  0.89220  0.34732  0.91011  1.0000 0.0819825261
C   C74       1.0  0.10780  0.15268  0.41011  1.0000 0.0819825261
C   C75       1.0  0.39220  0.65268  0.58989  1.0000 0.0819825261
C   C76       1.0  0.60780  0.84732  0.08989  1.0000 0.0819825261
C   C77       1.0  0.90800  0.30287  0.89714  1.0000 -0.1587112098
C   C78       1.0  0.09200  0.19713  0.39714  1.0000 -0.1587112098
C   C79       1.0  0.40800  0.69713  0.60286  1.0000 -0.1587112098
C   C80       1.0  0.59200  0.80287  0.10286  1.0000 -0.1587112098
C   C81       1.0  0.93650  0.38673  0.86655  1.0000 0.0913453311
C   C82       1.0  0.06350  0.11327  0.36655  1.0000 0.0913453311
C   C83       1.0  0.43650  0.61327  0.63345  1.0000 0.0913453311
C   C84       1.0  0.56350  0.88673  0.13345  1.0000 0.0913453311
C   C85       1.0  0.95180  0.34411  0.85200  1.0000 -0.1587112098
C   C86       1.0  0.04820  0.15589  0.35200  1.0000 -0.1587112098
C   C87       1.0  0.45180  0.65589  0.64800  1.0000 -0.1587112098
C   C88       1.0  0.54820  0.84411  0.14800  1.0000 -0.1587112098
C   C89       1.0  0.93760  0.30151  0.86711  1.0000 0.0576276529
C   C90       1.0  0.06240  0.19849  0.36711  1.0000 0.0576276529
C   C91       1.0  0.43760  0.69849  0.63289  1.0000 0.0576276529
C   C92       1.0  0.56240  0.80151  0.13289  1.0000 0.0576276529
C   C93       1.0  0.95160  0.25544  0.85114  1.0000 0.3711596486
C   C94       1.0  0.04840  0.24456  0.35114  1.0000 0.3711596486
C   C95       1.0  0.45160  0.74456  0.64886  1.0000 0.3711596486
C   C96       1.0  0.54840  0.75544  0.14886  1.0000 0.3711596486
C   C97       1.0  0.06510  0.26830  0.73332  1.0000 0.098956124
C   C98       1.0  0.93490  0.23170  0.23332  1.0000 0.098956124
C   C99       1.0  0.56510  0.73170  0.76668  1.0000 0.098956124
C   C100      1.0  0.43490  0.76830  0.26668  1.0000 0.098956124
C   C101      1.0  0.02650  0.26508  0.76198  1.0000 -0.1404881178
C   C102      1.0  0.97350  0.23492  0.26198  1.0000 -0.1404881178
C   C103      1.0  0.52650  0.73492  0.73802  1.0000 -0.1404881178
C   C104      1.0  0.47350  0.76508  0.23802  1.0000 -0.1404881178
C   C105      1.0  0.09800  0.18730  0.73231  1.0000 0.0819825261
C   C106      1.0  0.90200  0.31270  0.23231  1.0000 0.0819825261
C   C107      1.0  0.59800  0.81270  0.76769  1.0000 0.0819825261
C   C108      1.0  0.40200  0.68730  0.26769  1.0000 0.0819825261
C   C109      1.0  0.05790  0.18090  0.76069  1.0000 -0.1587112098
C   C110      1.0  0.94210  0.31910  0.26069  1.0000 -0.1587112098
C   C111      1.0  0.55790  0.81910  0.73931  1.0000 -0.1587112098
C   C112      1.0  0.44210  0.68090  0.23931  1.0000 -0.1587112098
C   C113      1.0  0.02330  0.22074  0.77621  1.0000 0.0576276529
C   C114      1.0  0.97670  0.27926  0.27621  1.0000 0.0576276529
C   C115      1.0  0.52330  0.77926  0.72379  1.0000 0.0576276529
C   C116      1.0  0.47670  0.72074  0.22379  1.0000 0.0576276529
C   C117      1.0  0.98910  0.21733  0.80770  1.0000 0.3711596486
C   C118      1.0  0.01090  0.28267  0.30770  1.0000 0.3711596486
C   C119      1.0  0.48910  0.78267  0.69230  1.0000 0.3711596486
C   C120      1.0  0.51090  0.71733  0.19230  1.0000 0.3711596486
C   C121      1.0  0.93170  0.04280  0.86415  1.0000 0.0913453311
C   C122      1.0  0.06830  0.45720  0.36415  1.0000 0.0913453311
C   C123      1.0  0.43170  0.95720  0.63585  1.0000 0.0913453311
C   C124      1.0  0.56830  0.54280  0.13585  1.0000 0.0913453311
C   C125      1.0  0.94600  0.08540  0.84889  1.0000 -0.1510373465
C   C126      1.0  0.05400  0.41460  0.34889  1.0000 -0.1510373465
C   C127      1.0  0.44600  0.91460  0.65111  1.0000 -0.1510373465
C   C128      1.0  0.55400  0.58540  0.15111  1.0000 -0.1510373465
C   C129      1.0  0.91030  0.08189  0.90909  1.0000 0.0913453311
C   C130      1.0  0.08970  0.41811  0.40909  1.0000 0.0913453311
C   C131      1.0  0.41030  0.91811  0.59091  1.0000 0.0913453311
C   C132      1.0  0.58970  0.58189  0.09091  1.0000 0.0913453311
C   C133      1.0  0.92350  0.12620  0.89533  1.0000 -0.1404881178
C   C134      1.0  0.07650  0.37380  0.39533  1.0000 -0.1404881178
C   C135      1.0  0.42350  0.87380  0.60467  1.0000 -0.1404881178
C   C136      1.0  0.57650  0.62620  0.10467  1.0000 -0.1404881178
C   C137      1.0  0.94090  0.12822  0.86493  1.0000 0.0576276529
C   C138      1.0  0.05910  0.37178  0.36493  1.0000 0.0576276529
C   C139      1.0  0.44090  0.87178  0.63507  1.0000 0.0576276529
C   C140      1.0  0.55910  0.62822  0.13507  1.0000 0.0576276529
C   C141      1.0  0.95240  0.17486  0.84955  1.0000 0.3756603786
C   C142      1.0  0.04760  0.32514  0.34955  1.0000 0.3756603786
C   C143      1.0  0.45240  0.82514  0.65045  1.0000 0.3756603786
C   C144      1.0  0.54760  0.67486  0.15045  1.0000 0.3756603786
C   C145      1.0  0.14610  0.68310  0.87428  1.0000 0.0913453311
C   C146      1.0  0.85390  0.81690  0.37428  1.0000 0.0913453311
C   C147      1.0  0.64610  0.31690  0.62572  1.0000 0.0913453311
C   C148      1.0  0.35390  0.18310  0.12572  1.0000 0.0913453311
C   C149      1.0  0.09620  0.65950  0.89730  1.0000 -0.1205514228
C   C150      1.0  0.90380  0.84050  0.39730  1.0000 -0.1205514228
C   C151      1.0  0.59620  0.34050  0.60270  1.0000 -0.1205514228
C   C152      1.0  0.40380  0.15950  0.10270  1.0000 -0.1205514228
C   C153      1.0  0.00550  0.70240  0.85032  1.0000 0.0819825261
C   C154      1.0  0.99450  0.79760  0.35032  1.0000 0.0819825261
C   C155      1.0  0.50550  0.29760  0.64968  1.0000 0.0819825261
C   C156      1.0  0.49450  0.20240  0.14968  1.0000 0.0819825261
C   C157      1.0  0.95090  0.67950  0.87190  1.0000 -0.1205514228
C   C158      1.0  0.04910  0.82050  0.37190  1.0000 -0.1205514228
C   C159      1.0  0.45090  0.32050  0.62810  1.0000 -0.1205514228
C   C160      1.0  0.54910  0.17950  0.12810  1.0000 -0.1205514228
C   C161      1.0  0.99710  0.65786  0.89588  1.0000 0.0576276529
C   C162      1.0  0.00290  0.84214  0.39588  1.0000 0.0536248547
C   C163      1.0  0.49710  0.34214  0.60412  1.0000 0.0536248547
C   C164      1.0  0.50290  0.15786  0.10412  1.0000 0.0536248547
C   C165      1.0  0.94180  0.63195  0.91951  1.0000 0.3756603786
C   C166      1.0  0.05820  0.86805  0.41951  1.0000 0.3756603786
C   C167      1.0  0.44180  0.36805  0.58049  1.0000 0.3756603786
C   C168      1.0  0.55820  0.13195  0.08049  1.0000 0.3756603786
C   C169      1.0  0.56550  0.57343  0.89968  1.0000 0.0819825261
C   C170      1.0  0.43450  0.92657  0.39968  1.0000 0.0819825261
C   C171      1.0  0.06550  0.42657  0.60032  1.0000 0.0819825261
C   C172      1.0  0.93450  0.07343  0.10032  1.0000 0.0819825261
C   C173      1.0  0.65860  0.58920  0.90333  1.0000 -0.1205514228
C   C174      1.0  0.34140  0.91080  0.40333  1.0000 -0.1205514228
C   C175      1.0  0.15860  0.41080  0.59667  1.0000 -0.1205514228
C   C176      1.0  0.84140  0.08920  0.09667  1.0000 -0.1205514228
C   C177      1.0  0.55550  0.55053  0.94955  1.0000 0.0819825261
C   C178      1.0  0.44450  0.94947  0.44955  1.0000 0.0819825261
C   C179      1.0  0.05550  0.44947  0.55045  1.0000 0.0819825261
C   C180      1.0  0.94450  0.05053  0.05045  1.0000 0.0819825261
C   C181      1.0  0.64840  0.56550  0.95498  1.0000 -0.1404881178
C   C182      1.0  0.35160  0.93450  0.45498  1.0000 -0.1346257452
C   C183      1.0  0.14840  0.43450  0.54502  1.0000 -0.1346257452
C   C184      1.0  0.85160  0.06550  0.04502  1.0000 -0.1346257452
C   C185      1.0  0.70180  0.58512  0.93140  1.0000 0.0576276529
C   C186      1.0  0.29820  0.91488  0.43140  1.0000 0.0576276529
C   C187      1.0  0.20180  0.41488  0.56860  1.0000 0.0576276529
C   C188      1.0  0.79820  0.08512  0.06860  1.0000 0.0576276529
C   C189      1.0  0.80410  0.59839  0.93609  1.0000 0.3756603786
C   C190      1.0  0.19590  0.90161  0.43609  1.0000 0.3756603786
C   C191      1.0  0.30410  0.40161  0.56391  1.0000 0.3756603786
C   C192      1.0  0.69590  0.09839  0.06391  1.0000 0.3756603786
C   C193      1.0  0.98730  0.54284  0.04117  1.0000 0.0676281695
C   C194      1.0  0.01270  0.95716  0.54117  1.0000 0.0676281695
C   C195      1.0  0.48730  0.45716  0.45883  1.0000 0.0676281695
C   C196      1.0  0.51270  0.04284  0.95883  1.0000 0.0676281695
C   C197      1.0  0.93960  0.55488  0.01502  1.0000 -0.1404881178
C   C198      1.0  0.06040  0.94512  0.51502  1.0000 -0.1404881178
C   C199      1.0  0.43960  0.44512  0.48498  1.0000 -0.1404881178
C   C200      1.0  0.56040  0.05488  0.98498  1.0000 -0.1404881178
C   C201      1.0  0.13220  0.56920  0.02194  1.0000 0.0819825261
C   C202      1.0  0.86780  0.93080  0.52194  1.0000 0.0819825261
C   C203      1.0  0.63220  0.43080  0.47806  1.0000 0.0819825261
C   C204      1.0  0.36780  0.06920  0.97806  1.0000 0.0819825261
C   C205      1.0  0.09000  0.58270  0.99477  1.0000 -0.1510373465
C   C206      1.0  0.91000  0.91730  0.49477  1.0000 -0.1510373465
C   C207      1.0  0.59000  0.41730  0.50523  1.0000 -0.1510373465
C   C208      1.0  0.41000  0.08270  0.00523  1.0000 -0.1510373465
C   C209      1.0  0.99070  0.57633  0.99159  1.0000 0.0536248547
C   C210      1.0  0.00930  0.92367  0.49159  1.0000 0.0536248547
C   C211      1.0  0.49070  0.42367  0.50841  1.0000 0.0536248547
C   C212      1.0  0.50930  0.07633  0.00841  1.0000 0.0536248547
C   C213      1.0  0.94010  0.59237  0.96387  1.0000 0.3756603786
C   C214      1.0  0.05990  0.90763  0.46387  1.0000 0.3756603786
C   C215      1.0  0.44010  0.40763  0.53613  1.0000 0.3756603786
C   C216      1.0  0.55990  0.09237  0.03613  1.0000 0.3756603786
C   C217      1.0  0.10780  0.65268  0.08989  1.0000 0.0819825261
C   C218      1.0  0.89220  0.84732  0.58989  1.0000 0.0819825261
C   C219      1.0  0.60780  0.34732  0.41011  1.0000 0.0819825261
C   C220      1.0  0.39220  0.15268  0.91011  1.0000 0.0819825261
C   C221      1.0  0.09200  0.69713  0.10286  1.0000 -0.1587112098
C   C222      1.0  0.90800  0.80287  0.60286  1.0000 -0.1587112098
C   C223      1.0  0.59200  0.30287  0.39714  1.0000 -0.1587112098
C   C224      1.0  0.40800  0.19713  0.89714  1.0000 -0.1587112098
C   C225      1.0  0.06350  0.61327  0.13345  1.0000 0.0913453311
C   C226      1.0  0.93650  0.88673  0.63345  1.0000 0.0913453311
C   C227      1.0  0.56350  0.38673  0.36655  1.0000 0.0913453311
C   C228      1.0  0.43650  0.11327  0.86655  1.0000 0.0913453311
C   C229      1.0  0.04820  0.65589  0.14800  1.0000 -0.1587112098
C   C230      1.0  0.95180  0.84411  0.64800  1.0000 -0.1587112098
C   C231      1.0  0.54820  0.34411  0.35200  1.0000 -0.1587112098
C   C232      1.0  0.45180  0.15589  0.85200  1.0000 -0.1587112098
C   C233      1.0  0.06240  0.69849  0.13289  1.0000 0.0576276529
C   C234      1.0  0.93760  0.80151  0.63289  1.0000 0.0576276529
C   C235      1.0  0.56240  0.30151  0.36711  1.0000 0.0576276529
C   C236      1.0  0.43760  0.19849  0.86711  1.0000 0.0576276529
C   C237      1.0  0.04840  0.74456  0.14886  1.0000 0.3711596486
C   C238      1.0  0.95160  0.75544  0.64886  1.0000 0.3711596486
C   C239      1.0  0.54840  0.25544  0.35114  1.0000 0.3711596486
C   C240      1.0  0.45160  0.24456  0.85114  1.0000 0.3711596486
C   C241      1.0  0.93490  0.73170  0.26668  1.0000 0.098956124
C   C242      1.0  0.06510  0.76830  0.76668  1.0000 0.098956124
C   C243      1.0  0.43490  0.26830  0.23332  1.0000 0.098956124
C   C244      1.0  0.56510  0.23170  0.73332  1.0000 0.098956124
C   C245      1.0  0.97350  0.73492  0.23802  1.0000 -0.1404881178
C   C246      1.0  0.02650  0.76508  0.73802  1.0000 -0.1404881178
C   C247      1.0  0.47350  0.26508  0.26198  1.0000 -0.1404881178
C   C248      1.0  0.52650  0.23492  0.76198  1.0000 -0.1404881178
C   C249      1.0  0.90200  0.81270  0.26769  1.0000 0.0819825261
C   C250      1.0  0.09800  0.68730  0.76769  1.0000 0.0819825261
C   C251      1.0  0.40200  0.18730  0.23231  1.0000 0.0819825261
C   C252      1.0  0.59800  0.31270  0.73231  1.0000 0.0819825261
C   C253      1.0  0.94210  0.81910  0.23931  1.0000 -0.1587112098
C   C254      1.0  0.05790  0.68090  0.73931  1.0000 -0.1587112098
C   C255      1.0  0.44210  0.18090  0.26069  1.0000 -0.1587112098
C   C256      1.0  0.55790  0.31910  0.76069  1.0000 -0.1587112098
C   C257      1.0  0.97670  0.77926  0.22379  1.0000 0.0576276529
C   C258      1.0  0.02330  0.72074  0.72379  1.0000 0.0576276529
C   C259      1.0  0.47670  0.22074  0.27621  1.0000 0.0576276529
C   C260      1.0  0.52330  0.27926  0.77621  1.0000 0.0576276529
C   C261      1.0  0.01090  0.78267  0.19230  1.0000 0.3711596486
C   C262      1.0  0.98910  0.71733  0.69230  1.0000 0.3711596486
C   C263      1.0  0.51090  0.21733  0.30770  1.0000 0.3711596486
C   C264      1.0  0.48910  0.28267  0.80770  1.0000 0.3711596486
C   C265      1.0  0.06830  0.95720  0.13585  1.0000 0.0913453311
C   C266      1.0  0.93170  0.54280  0.63585  1.0000 0.0913453311
C   C267      1.0  0.56830  0.04280  0.36415  1.0000 0.0913453311
C   C268      1.0  0.43170  0.45720  0.86415  1.0000 0.0913453311
C   C269      1.0  0.05400  0.91460  0.15111  1.0000 -0.1510373465
C   C270      1.0  0.94600  0.58540  0.65111  1.0000 -0.1510373465
C   C271      1.0  0.55400  0.08540  0.34889  1.0000 -0.1510373465
C   C272      1.0  0.44600  0.41460  0.84889  1.0000 -0.1510373465
C   C273      1.0  0.08970  0.91811  0.09091  1.0000 0.0913453311
C   C274      1.0  0.91030  0.58189  0.59091  1.0000 0.0913453311
C   C275      1.0  0.58970  0.08189  0.40909  1.0000 0.0913453311
C   C276      1.0  0.41030  0.41811  0.90909  1.0000 0.0913453311
C   C277      1.0  0.07650  0.87380  0.10467  1.0000 -0.1404881178
C   C278      1.0  0.92350  0.62620  0.60467  1.0000 -0.1404881178
C   C279      1.0  0.57650  0.12620  0.39533  1.0000 -0.1404881178
C   C280      1.0  0.42350  0.37380  0.89533  1.0000 -0.1404881178
C   C281      1.0  0.05910  0.87178  0.13507  1.0000 0.0576276529
C   C282      1.0  0.94090  0.62822  0.63507  1.0000 0.0576276529
C   C283      1.0  0.55910  0.12822  0.36493  1.0000 0.0576276529
C   C284      1.0  0.44090  0.37178  0.86493  1.0000 0.0576276529
C   C285      1.0  0.04760  0.82514  0.15045  1.0000 0.3756603786
C   C286      1.0  0.95240  0.67486  0.65045  1.0000 0.3756603786
C   C287      1.0  0.54760  0.17486  0.34955  1.0000 0.3756603786
C   C288      1.0  0.45240  0.32514  0.84955  1.0000 0.3756603786
I   I1        1.0  0.67658  0.44572  0.91591  1.0000 -0.4589451674
I   I2        1.0  0.32342  0.05428  0.41591  1.0000 -0.4589451674
I   I3        1.0  0.17658  0.55428  0.58409  1.0000 -0.4589451674
I   I4        1.0  0.82342  0.94572  0.08409  1.0000 -0.4589451674
I   I5        1.0  0.94726  0.51783  0.88234  1.0000 -0.4455540701
I   I6        1.0  0.05274  0.98217  0.38234  1.0000 -0.4421759381
I   I7        1.0  0.44726  0.48217  0.61766  1.0000 -0.4455540701
I   I8        1.0  0.55274  0.01783  0.11766  1.0000 -0.4455540701
I   I9        1.0  0.18743  0.32878  0.66751  1.0000 -0.4589451674
I   I10       1.0  0.81257  0.17122  0.16751  1.0000 -0.4589451674
I   I11       1.0  0.68743  0.67122  0.83249  1.0000 -0.4589451674
I   I12       1.0  0.31257  0.82878  0.33249  1.0000 -0.4589451674
I   I13       1.0  0.34091  0.19487  0.68819  1.0000 -0.4589451674
I   I14       1.0  0.65909  0.30513  0.18819  1.0000 -0.4589451674
I   I15       1.0  0.84091  0.80513  0.81181  1.0000 -0.4589451674
I   I16       1.0  0.15909  0.69487  0.31181  1.0000 -0.4589451674
I   I17       1.0  0.70606  0.42807  0.12625  1.0000 -0.4421759381
I   I18       1.0  0.29394  0.07193  0.62625  1.0000 -0.4421759381
I   I19       1.0  0.20606  0.57193  0.37375  1.0000 -0.4421759381
I   I20       1.0  0.79394  0.92807  0.87375  1.0000 -0.4421759381
I   I21       1.0  0.69537  0.49372  0.03447  1.0000 -0.478757955
I   I22       1.0  0.30463  0.00628  0.53447  1.0000 -0.478757955
I   I23       1.0  0.19537  0.50628  0.46553  1.0000 -0.478757955
I   I24       1.0  0.80463  0.99372  0.96553  1.0000 -0.478757955
I   I25       1.0  0.32342  0.55428  0.08409  1.0000 -0.4589451674
I   I26       1.0  0.67658  0.94572  0.58409  1.0000 -0.4589451674
I   I27       1.0  0.82342  0.44572  0.41591  1.0000 -0.4589451674
I   I28       1.0  0.17658  0.05428  0.91591  1.0000 -0.4589451674
I   I29       1.0  0.05274  0.48217  0.11766  1.0000 -0.4455540701
I   I30       1.0  0.94726  0.01783  0.61766  1.0000 -0.4455540701
I   I31       1.0  0.55274  0.51783  0.38234  1.0000 -0.4455540701
I   I32       1.0  0.44726  0.98217  0.88234  1.0000 -0.4421759381
I   I33       1.0  0.81257  0.67122  0.33249  1.0000 -0.4589451674
I   I34       1.0  0.18743  0.82878  0.83249  1.0000 -0.4589451674
I   I35       1.0  0.31257  0.32878  0.16751  1.0000 -0.4589451674
I   I36       1.0  0.68743  0.17122  0.66751  1.0000 -0.4589451674
I   I37       1.0  0.65909  0.80513  0.31181  1.0000 -0.4589451674
I   I38       1.0  0.34091  0.69487  0.81181  1.0000 -0.4589451674
I   I39       1.0  0.15909  0.19487  0.18819  1.0000 -0.4589451674
I   I40       1.0  0.84091  0.30513  0.68819  1.0000 -0.4589451674
I   I41       1.0  0.29394  0.57193  0.87375  1.0000 -0.4421759381
I   I42       1.0  0.70606  0.92807  0.37375  1.0000 -0.4421759381
I   I43       1.0  0.79394  0.42807  0.62625  1.0000 -0.4421759381
I   I44       1.0  0.20606  0.07193  0.12625  1.0000 -0.4421759381
I   I45       1.0  0.30463  0.50628  0.96553  1.0000 -0.478757955
I   I46       1.0  0.69537  0.99372  0.46553  1.0000 -0.478757955
I   I47       1.0  0.80463  0.49372  0.53447  1.0000 -0.478757955
I   I48       1.0  0.19537  0.00628  0.03447  1.0000 -0.478757955
N   N1        1.0  0.89800  0.29565  0.14861  1.0000 -0.1731617859
N   N2        1.0  0.10200  0.20435  0.64861  1.0000 -0.1731617859
N   N3        1.0  0.39800  0.70435  0.35139  1.0000 -0.1731617859
N   N4        1.0  0.60200  0.79565  0.85139  1.0000 -0.1731617859
N   N5        1.0  0.48660  0.44568  0.07765  1.0000 -0.1731617859
N   N6        1.0  0.51340  0.05432  0.57765  1.0000 -0.1731617859
N   N7        1.0  0.98660  0.55432  0.42235  1.0000 -0.1731617859
N   N8        1.0  0.01340  0.94568  0.92235  1.0000 -0.1731617859
N   N9        1.0  0.91710  0.44898  0.95488  1.0000 -0.1875949665
N   N10       1.0  0.08290  0.05102  0.45488  1.0000 -0.1875949665
N   N11       1.0  0.41710  0.55102  0.54512  1.0000 -0.1875949665
N   N12       1.0  0.58290  0.94898  0.04512  1.0000 -0.1875949665
N   N13       1.0  0.15260  0.37569  0.08504  1.0000 -0.3669184967
N   N14       1.0  0.84740  0.12431  0.58504  1.0000 -0.3669184967
N   N15       1.0  0.65260  0.62431  0.41496  1.0000 -0.3669184967
N   N16       1.0  0.34740  0.87569  0.91496  1.0000 -0.3669184967
N   N17       1.0  0.15320  0.41855  0.03882  1.0000 -0.382853426
N   N18       1.0  0.84680  0.08145  0.53882  1.0000 -0.382853426
N   N19       1.0  0.65320  0.58145  0.46118  1.0000 -0.382853426
N   N20       1.0  0.34680  0.91855  0.96118  1.0000 -0.382853426
N   N21       1.0  0.00850  0.38294  0.05629  1.0000 -0.394433031
N   N22       1.0  0.99150  0.11706  0.55629  1.0000 -0.394433031
N   N23       1.0  0.50850  0.61706  0.44371  1.0000 -0.394433031
N   N24       1.0  0.49150  0.88294  0.94371  1.0000 -0.394433031
N   N25       1.0  0.90430  0.38872  0.89532  1.0000 -0.1802822269
N   N26       1.0  0.09570  0.11128  0.39532  1.0000 -0.1802822269
N   N27       1.0  0.40430  0.61128  0.60468  1.0000 -0.1802822269
N   N28       1.0  0.59570  0.88872  0.10468  1.0000 -0.1875949665
N   N29       1.0  0.10270  0.23058  0.71891  1.0000 -0.1802822269
N   N30       1.0  0.89730  0.26942  0.21891  1.0000 -0.1802822269
N   N31       1.0  0.60270  0.76942  0.78109  1.0000 -0.1802822269
N   N32       1.0  0.39730  0.73058  0.28109  1.0000 -0.1802822269
N   N33       1.0  0.91340  0.04079  0.89366  1.0000 -0.1802822269
N   N34       1.0  0.08660  0.45921  0.39366  1.0000 -0.1802822269
N   N35       1.0  0.41340  0.95921  0.60634  1.0000 -0.1802822269
N   N36       1.0  0.58660  0.54079  0.10634  1.0000 -0.1802822269
N   N37       1.0  0.97600  0.25876  0.82189  1.0000 -0.4107244833
N   N38       1.0  0.02400  0.24124  0.32189  1.0000 -0.4107244833
N   N39       1.0  0.47600  0.74124  0.67811  1.0000 -0.4107244833
N   N40       1.0  0.52400  0.75876  0.17811  1.0000 -0.4107244833
N   N41       1.0  0.97820  0.17397  0.82010  1.0000 -0.4182490184
N   N42       1.0  0.02180  0.32603  0.32010  1.0000 -0.4182490184
N   N43       1.0  0.47820  0.82603  0.67990  1.0000 -0.4182490184
N   N44       1.0  0.52180  0.67397  0.17990  1.0000 -0.4182490184
N   N45       1.0  0.93850  0.21427  0.86601  1.0000 -0.4107244833
N   N46       1.0  0.06150  0.28573  0.36601  1.0000 -0.4107244833
N   N47       1.0  0.43850  0.78573  0.63399  1.0000 -0.4107244833
N   N48       1.0  0.56150  0.71427  0.13399  1.0000 -0.4107244833
N   N49       1.0  0.10200  0.70435  0.85139  1.0000 -0.1731617859
N   N50       1.0  0.89800  0.79565  0.35139  1.0000 -0.1731617859
N   N51       1.0  0.60200  0.29565  0.64861  1.0000 -0.1731617859
N   N52       1.0  0.39800  0.20435  0.14861  1.0000 -0.1731617859
N   N53       1.0  0.51340  0.55432  0.92235  1.0000 -0.1731617859
N   N54       1.0  0.48660  0.94568  0.42235  1.0000 -0.1731617859
N   N55       1.0  0.01340  0.44568  0.57765  1.0000 -0.1731617859
N   N56       1.0  0.98660  0.05432  0.07765  1.0000 -0.1731617859
N   N57       1.0  0.08290  0.55102  0.04512  1.0000 -0.1875949665
N   N58       1.0  0.91710  0.94898  0.54512  1.0000 -0.1875949665
N   N59       1.0  0.58290  0.44898  0.45488  1.0000 -0.1875949665
N   N60       1.0  0.41710  0.05102  0.95488  1.0000 -0.1875949665
N   N61       1.0  0.84740  0.62431  0.91496  1.0000 -0.3669184967
N   N62       1.0  0.15260  0.87569  0.41496  1.0000 -0.3669184967
N   N63       1.0  0.34740  0.37569  0.58504  1.0000 -0.3669184967
N   N64       1.0  0.65260  0.12431  0.08504  1.0000 -0.3669184967
N   N65       1.0  0.84680  0.58145  0.96118  1.0000 -0.382853426
N   N66       1.0  0.15320  0.91855  0.46118  1.0000 -0.382853426
N   N67       1.0  0.34680  0.41855  0.53882  1.0000 -0.382853426
N   N68       1.0  0.65320  0.08145  0.03882  1.0000 -0.382853426
N   N69       1.0  0.99150  0.61706  0.94371  1.0000 -0.3954441174
N   N70       1.0  0.00850  0.88294  0.44371  1.0000 -0.394433031
N   N71       1.0  0.49150  0.38294  0.55629  1.0000 -0.394433031
N   N72       1.0  0.50850  0.11706  0.05629  1.0000 -0.394433031
N   N73       1.0  0.09570  0.61128  0.10468  1.0000 -0.1875949665
N   N74       1.0  0.90430  0.88872  0.60468  1.0000 -0.1802822269
N   N75       1.0  0.59570  0.38872  0.39532  1.0000 -0.1802822269
N   N76       1.0  0.40430  0.11128  0.89532  1.0000 -0.1802822269
N   N77       1.0  0.89730  0.76942  0.28109  1.0000 -0.1802822269
N   N78       1.0  0.10270  0.73058  0.78109  1.0000 -0.1802822269
N   N79       1.0  0.39730  0.23058  0.21891  1.0000 -0.1802822269
N   N80       1.0  0.60270  0.26942  0.71891  1.0000 -0.1802822269
N   N81       1.0  0.08660  0.95921  0.10634  1.0000 -0.1802822269
N   N82       1.0  0.91340  0.54079  0.60634  1.0000 -0.1802822269
N   N83       1.0  0.58660  0.04079  0.39366  1.0000 -0.1802822269
N   N84       1.0  0.41340  0.45921  0.89366  1.0000 -0.1802822269
N   N85       1.0  0.02400  0.74124  0.17811  1.0000 -0.4107244833
N   N86       1.0  0.97600  0.75876  0.67811  1.0000 -0.4107244833
N   N87       1.0  0.52400  0.25876  0.32189  1.0000 -0.4107244833
N   N88       1.0  0.47600  0.24124  0.82189  1.0000 -0.4107244833
N   N89       1.0  0.02180  0.82603  0.17990  1.0000 -0.4182490184
N   N90       1.0  0.97820  0.67397  0.67990  1.0000 -0.4182490184
N   N91       1.0  0.52180  0.17397  0.32010  1.0000 -0.4182490184
N   N92       1.0  0.47820  0.32603  0.82010  1.0000 -0.4182490184
N   N93       1.0  0.06150  0.78573  0.13399  1.0000 -0.4107244833
N   N94       1.0  0.93850  0.71427  0.63399  1.0000 -0.4107244833
N   N95       1.0  0.56150  0.21427  0.36601  1.0000 -0.4107244833
N   N96       1.0  0.43850  0.28573  0.86601  1.0000 -0.4107244833
