# DDEC6 charges by PACMAN v1.1 (https://github.com/mtap-research/PACMAN-charge/)
data_2009[Co][pcu]3[FSR]3
_chemical_formula_sum              "Co2 H60 C72 N24"
_cell_length_a       8.096
_cell_length_b       21.507
_cell_length_c       13.935
_cell_angle_alpha    90
_cell_angle_beta     111.81
_cell_angle_gamma    90

_symmetry_space_group_name_H-M    "P 1"
_symmetry_Int_Tables_number       1

loop_
  _symmetry_equiv_pos_as_xyz
  'x, y, z'

loop_
  _atom_site_type_symbol
  _atom_site_label
  _atom_site_symmetry_multiplicity
  _atom_site_fract_x
  _atom_site_fract_y
  _atom_site_fract_z
  _atom_site_occupancy
  _atom_site_charge
Co  Co1       1.0  0.00000  0.50000  0.50000  1.0000 0.5029727656
Co  Co2       1.0  0.00000  0.00000  0.00000  1.0000 0.5073450047
H   H1        1.0  0.16830  0.36860  0.61860  1.0000 0.0997294232
H   H2        1.0  0.83170  0.86860  0.88140  1.0000 0.0997294232
H   H3        1.0  0.83170  0.63140  0.38140  1.0000 0.0997294232
H   H4        1.0  0.16830  0.13140  0.11860  1.0000 0.0997294232
H   H5        1.0  0.43400  0.52270  0.63330  1.0000 0.1095032495
H   H6        1.0  0.56600  0.02270  0.86670  1.0000 0.1095032495
H   H7        1.0  0.56600  0.47730  0.36670  1.0000 0.1095032495
H   H8        1.0  0.43400  0.97730  0.13330  1.0000 0.1095032495
H   H9        1.0  0.64040  0.44830  0.74950  1.0000 0.1095032495
H   H10       1.0  0.35960  0.94830  0.75050  1.0000 0.1095032495
H   H11       1.0  0.35960  0.55170  0.25050  1.0000 0.1095032495
H   H12       1.0  0.64040  0.05170  0.24950  1.0000 0.1095032495
H   H13       1.0  0.73550  0.33510  0.74730  1.0000 0.1168362125
H   H14       1.0  0.26450  0.83510  0.75270  1.0000 0.1168362125
H   H15       1.0  0.26450  0.66490  0.25270  1.0000 0.1168362125
H   H16       1.0  0.73550  0.16490  0.24730  1.0000 0.1168362125
H   H17       1.0  0.27200  0.30950  0.78520  1.0000 0.1168362125
H   H18       1.0  0.72800  0.80950  0.71480  1.0000 0.1168362125
H   H19       1.0  0.72800  0.69050  0.21480  1.0000 0.1168362125
H   H20       1.0  0.27200  0.19050  0.28520  1.0000 0.1168362125
H   H21       1.0  0.38010  0.21710  0.87220  1.0000 0.1168362125
H   H22       1.0  0.61990  0.71710  0.62780  1.0000 0.1168362125
H   H23       1.0  0.61990  0.78290  0.12780  1.0000 0.1168362125
H   H24       1.0  0.38010  0.28290  0.37220  1.0000 0.1168362125
H   H25       1.0  0.90070  0.52520  0.24840  1.0000 0.0997294232
H   H26       1.0  0.09930  0.02520  0.25160  1.0000 0.0997294232
H   H27       1.0  0.09930  0.47480  0.75160  1.0000 0.0997294232
H   H28       1.0  0.90070  0.97480  0.74840  1.0000 0.0997294232
H   H29       1.0  0.24620  0.40340  0.41690  1.0000 0.1095032495
H   H30       1.0  0.75380  0.90340  0.08310  1.0000 0.1095032495
H   H31       1.0  0.75380  0.59660  0.58310  1.0000 0.1095032495
H   H32       1.0  0.24620  0.09660  0.91690  1.0000 0.1095032495
H   H33       1.0  0.25570  0.39940  0.24420  1.0000 0.1168362125
H   H34       1.0  0.74430  0.89940  0.25580  1.0000 0.1168362125
H   H35       1.0  0.74430  0.60060  0.75580  1.0000 0.1168362125
H   H36       1.0  0.25570  0.10060  0.74420  1.0000 0.1168362125
H   H37       1.0  0.95810  0.57390  0.10990  1.0000 0.1168362125
H   H38       1.0  0.04190  0.07390  0.39010  1.0000 0.1168362125
H   H39       1.0  0.04190  0.42610  0.89010  1.0000 0.1168362125
H   H40       1.0  0.95810  0.92610  0.60990  1.0000 0.1168362125
H   H41       1.0  0.09510  0.40060  0.06080  1.0000 0.1168362125
H   H42       1.0  0.90490  0.90060  0.43920  1.0000 0.1168362125
H   H43       1.0  0.90490  0.59940  0.93920  1.0000 0.1168362125
H   H44       1.0  0.09510  0.09940  0.56080  1.0000 0.1168362125
H   H45       1.0  0.86660  0.13140  0.87000  1.0000 0.0997294232
H   H46       1.0  0.13340  0.63140  0.63000  1.0000 0.0997294232
H   H47       1.0  0.13340  0.86860  0.13000  1.0000 0.0997294232
H   H48       1.0  0.86660  0.36860  0.37000  1.0000 0.0997294232
H   H49       1.0  0.74350  0.07460  0.10170  1.0000 0.0997294232
H   H50       1.0  0.25650  0.57460  0.39830  1.0000 0.0997294232
H   H51       1.0  0.25650  0.92540  0.89830  1.0000 0.0997294232
H   H52       1.0  0.74350  0.42540  0.60170  1.0000 0.0997294232
H   H53       1.0  0.56980  0.16850  0.03430  1.0000 0.1095032495
H   H54       1.0  0.43020  0.66850  0.46570  1.0000 0.1095032495
H   H55       1.0  0.43020  0.83150  0.96570  1.0000 0.1095032495
H   H56       1.0  0.56980  0.33150  0.53430  1.0000 0.1095032495
H   H57       1.0  0.84670  0.24470  0.84010  1.0000 0.1168362125
H   H58       1.0  0.15330  0.74470  0.65990  1.0000 0.1168362125
H   H59       1.0  0.15330  0.75530  0.15990  1.0000 0.1168362125
H   H60       1.0  0.84670  0.25530  0.34010  1.0000 0.1168362125
C   C1        1.0  0.25890  0.39805  0.63650  1.0000 0.0720223922
C   C2        1.0  0.74110  0.89805  0.86350  1.0000 0.0720223922
C   C3        1.0  0.74110  0.60195  0.36350  1.0000 0.0720223922
C   C4        1.0  0.25890  0.10195  0.13650  1.0000 0.0720223922
C   C5        1.0  0.40600  0.48220  0.64530  1.0000 -0.0530746553
C   C6        1.0  0.59400  0.98220  0.85470  1.0000 -0.0530746553
C   C7        1.0  0.59400  0.51780  0.35470  1.0000 -0.0530746553
C   C8        1.0  0.40600  0.01780  0.14530  1.0000 -0.0530746553
C   C9        1.0  0.52120  0.44134  0.70940  1.0000 -0.1425223362
C   C10       1.0  0.47880  0.94134  0.79060  1.0000 -0.1425223362
C   C11       1.0  0.47880  0.55866  0.29060  1.0000 -0.1425223362
C   C12       1.0  0.52120  0.05866  0.20940  1.0000 -0.1425223362
C   C13       1.0  0.49380  0.33071  0.75800  1.0000 0.1391679385
C   C14       1.0  0.50620  0.83071  0.74200  1.0000 0.1391679385
C   C15       1.0  0.50620  0.66929  0.24200  1.0000 0.1391679385
C   C16       1.0  0.49380  0.16929  0.25800  1.0000 0.1391679385
C   C17       1.0  0.66520  0.31172  0.77350  1.0000 -0.1891372141
C   C18       1.0  0.33480  0.81172  0.72650  1.0000 -0.1891372141
C   C19       1.0  0.33480  0.68828  0.22650  1.0000 -0.1891372141
C   C20       1.0  0.66520  0.18828  0.27350  1.0000 -0.1891372141
C   C21       1.0  0.38660  0.29615  0.79550  1.0000 -0.1786552281
C   C22       1.0  0.61340  0.79615  0.70450  1.0000 -0.1786552281
C   C23       1.0  0.61340  0.70385  0.20450  1.0000 -0.1786552281
C   C24       1.0  0.38660  0.20385  0.29550  1.0000 -0.1786552281
C   C25       1.0  0.45190  0.24150  0.84840  1.0000 -0.1786552281
C   C26       1.0  0.54810  0.74150  0.65160  1.0000 -0.1786552281
C   C27       1.0  0.54810  0.75850  0.15160  1.0000 -0.1786552281
C   C28       1.0  0.45190  0.25850  0.34840  1.0000 -0.1786552281
C   C29       1.0  0.98840  0.49474  0.26949  1.0000 0.0720223922
C   C30       1.0  0.01160  0.99474  0.23051  1.0000 0.0720223922
C   C31       1.0  0.01160  0.50526  0.73051  1.0000 0.0720223922
C   C32       1.0  0.98840  0.00526  0.76949  1.0000 0.0720223922
C   C33       1.0  0.17760  0.42769  0.36110  1.0000 -0.0630584329
C   C34       1.0  0.82240  0.92769  0.13890  1.0000 -0.0630584329
C   C35       1.0  0.82240  0.57231  0.63890  1.0000 -0.0630584329
C   C36       1.0  0.17760  0.07231  0.86110  1.0000 -0.0630584329
C   C37       1.0  0.18440  0.42531  0.26590  1.0000 -0.1457954247
C   C38       1.0  0.81560  0.92531  0.23410  1.0000 -0.1457954247
C   C39       1.0  0.81560  0.57469  0.73410  1.0000 -0.1457954247
C   C40       1.0  0.18440  0.07469  0.76590  1.0000 -0.1457954247
C   C41       1.0  0.03100  0.48482  0.10143  1.0000 0.1391679385
C   C42       1.0  0.96900  0.98482  0.39857  1.0000 0.1391679385
C   C43       1.0  0.96900  0.51518  0.89857  1.0000 0.1391679385
C   C44       1.0  0.03100  0.01518  0.60143  1.0000 0.1391679385
C   C45       1.0  0.97470  0.54436  0.06560  1.0000 -0.1891372141
C   C46       1.0  0.02530  0.04436  0.43440  1.0000 -0.1891372141
C   C47       1.0  0.02530  0.45564  0.93440  1.0000 -0.1891372141
C   C48       1.0  0.97470  0.95564  0.56560  1.0000 -0.1891372141
C   C49       1.0  0.05690  0.44036  0.03630  1.0000 -0.1700244749
C   C50       1.0  0.94310  0.94036  0.46370  1.0000 -0.1700244749
C   C51       1.0  0.94310  0.55964  0.96370  1.0000 -0.1700244749
C   C52       1.0  0.05690  0.05964  0.53630  1.0000 -0.1700244749
C   C53       1.0  0.81510  0.12855  0.91940  1.0000 0.0841294739
C   C54       1.0  0.18490  0.62855  0.58060  1.0000 0.0841294739
C   C55       1.0  0.18490  0.87145  0.08060  1.0000 0.0841294739
C   C56       1.0  0.81510  0.37145  0.41940  1.0000 0.0841294739
C   C57       1.0  0.74670  0.09794  0.04620  1.0000 -0.0630584329
C   C58       1.0  0.25330  0.59794  0.45380  1.0000 -0.0630584329
C   C59       1.0  0.25330  0.90206  0.95380  1.0000 -0.0630584329
C   C60       1.0  0.74670  0.40206  0.54620  1.0000 -0.0630584329
C   C61       1.0  0.64970  0.14977  0.00960  1.0000 -0.1457954247
C   C62       1.0  0.35030  0.64977  0.49040  1.0000 -0.1457954247
C   C63       1.0  0.35030  0.85023  0.99040  1.0000 -0.1457954247
C   C64       1.0  0.64970  0.35023  0.50960  1.0000 -0.1457954247
C   C65       1.0  0.62430  0.22334  0.86580  1.0000 0.1391679385
C   C66       1.0  0.37570  0.72334  0.63420  1.0000 0.1391679385
C   C67       1.0  0.37570  0.77666  0.13420  1.0000 0.1391679385
C   C68       1.0  0.62430  0.27666  0.36580  1.0000 0.1391679385
C   C69       1.0  0.73130  0.25767  0.82850  1.0000 -0.1700244749
C   C70       1.0  0.26870  0.75767  0.67150  1.0000 -0.1786552281
C   C71       1.0  0.26870  0.74233  0.17150  1.0000 -0.1700244749
C   C72       1.0  0.73130  0.24233  0.32850  1.0000 -0.1700244749
N   N1        1.0  0.23960  0.45494  0.60006  1.0000 -0.2810507279
N   N2        1.0  0.76040  0.95494  0.89994  1.0000 -0.2810507279
N   N3        1.0  0.76040  0.54506  0.39994  1.0000 -0.2810507279
N   N4        1.0  0.23960  0.04506  0.10006  1.0000 -0.2810507279
N   N5        1.0  0.42680  0.38742  0.70335  1.0000 -0.0062644272
N   N6        1.0  0.57320  0.88742  0.79665  1.0000 -0.0062644272
N   N7        1.0  0.57320  0.61258  0.29665  1.0000 -0.0062644272
N   N8        1.0  0.42680  0.11258  0.20335  1.0000 -0.0062644272
N   N9        1.0  0.05400  0.47138  0.36376  1.0000 -0.2810507279
N   N10       1.0  0.94600  0.97138  0.13624  1.0000 -0.2810507279
N   N11       1.0  0.94600  0.52862  0.63624  1.0000 -0.2810507279
N   N12       1.0  0.05400  0.02862  0.86376  1.0000 -0.2810507279
N   N13       1.0  0.06440  0.46892  0.20720  1.0000 -0.0062644272
N   N14       1.0  0.93560  0.96892  0.29280  1.0000 -0.0062644272
N   N15       1.0  0.93560  0.53108  0.79280  1.0000 -0.0062644272
N   N16       1.0  0.06440  0.03108  0.70720  1.0000 -0.0062644272
N   N17       1.0  0.85140  0.08440  0.98992  1.0000 -0.2810507279
N   N18       1.0  0.14860  0.58440  0.51008  1.0000 -0.2810507279
N   N19       1.0  0.14860  0.91560  0.01008  1.0000 -0.2810507279
N   N20       1.0  0.85140  0.41560  0.48992  1.0000 -0.2810507279
N   N21       1.0  0.69380  0.16926  0.92778  1.0000 -0.0062644272
N   N22       1.0  0.30620  0.66926  0.57222  1.0000 -0.0062644272
N   N23       1.0  0.30620  0.83074  0.07222  1.0000 -0.0062644272
N   N24       1.0  0.69380  0.33074  0.42778  1.0000 -0.0062644272
