# DDEC6 charges by PACMAN v1.1 (https://github.com/mtap-research/PACMAN-charge/)
data_2009[Cd][nuc]3[FSR]9
_chemical_formula_sum              "Cd4 H144 C192 N48"
_cell_length_a       15.8475
_cell_length_b       15.8475
_cell_length_c       21.601
_cell_angle_alpha    90
_cell_angle_beta     90
_cell_angle_gamma    90

_symmetry_space_group_name_H-M    "P 1"
_symmetry_Int_Tables_number       1

loop_
  _symmetry_equiv_pos_as_xyz
  'x, y, z'

loop_
  _atom_site_type_symbol
  _atom_site_label
  _atom_site_symmetry_multiplicity
  _atom_site_fract_x
  _atom_site_fract_y
  _atom_site_fract_z
  _atom_site_occupancy
  _atom_site_charge
Cd  Cd1       1.0  0.05931  0.94069  0.75000  1.0000 0.6424929777
Cd  Cd2       1.0  0.94069  0.05931  0.25000  1.0000 0.6424929777
Cd  Cd3       1.0  0.55931  0.55931  0.50000  1.0000 0.6424929777
Cd  Cd4       1.0  0.44069  0.44069  0.00000  1.0000 0.6424929777
H   H1        1.0  0.50600  0.26030  0.07330  1.0000 0.0928635428
H   H2        1.0  0.49400  0.73970  0.57330  1.0000 0.0928635428
H   H3        1.0  0.23970  0.00600  0.82330  1.0000 0.0928635428
H   H4        1.0  0.76030  0.99400  0.32330  1.0000 0.0928635428
H   H5        1.0  0.99400  0.76030  0.67670  1.0000 0.0928635428
H   H6        1.0  0.00600  0.23970  0.17670  1.0000 0.0928635428
H   H7        1.0  0.26030  0.50600  0.92670  1.0000 0.0928635428
H   H8        1.0  0.73970  0.49400  0.42670  1.0000 0.0928635428
H   H9        1.0  0.55740  0.34020  0.90650  1.0000 0.0989478788
H   H10       1.0  0.44260  0.65980  0.40650  1.0000 0.0989478788
H   H11       1.0  0.15980  0.05740  0.65650  1.0000 0.0989478788
H   H12       1.0  0.84020  0.94260  0.15650  1.0000 0.0989478788
H   H13       1.0  0.94260  0.84020  0.84350  1.0000 0.0989478788
H   H14       1.0  0.05740  0.15980  0.34350  1.0000 0.0989478788
H   H15       1.0  0.34020  0.55740  0.09350  1.0000 0.0989478788
H   H16       1.0  0.65980  0.44260  0.59350  1.0000 0.0989478788
H   H17       1.0  0.26100  0.21030  0.89500  1.0000 0.127215674
H   H18       1.0  0.73900  0.78970  0.39500  1.0000 0.127215674
H   H19       1.0  0.28970  0.76100  0.64500  1.0000 0.127215674
H   H20       1.0  0.71030  0.23900  0.14500  1.0000 0.127215674
H   H21       1.0  0.23900  0.71030  0.85500  1.0000 0.127215674
H   H22       1.0  0.76100  0.28970  0.35500  1.0000 0.127215674
H   H23       1.0  0.21030  0.26100  0.10500  1.0000 0.127215674
H   H24       1.0  0.78970  0.73900  0.60500  1.0000 0.127215674
H   H25       1.0  0.28590  0.41270  0.78360  1.0000 0.127215674
H   H26       1.0  0.71410  0.58730  0.28360  1.0000 0.127215674
H   H27       1.0  0.08730  0.78590  0.53360  1.0000 0.127215674
H   H28       1.0  0.91270  0.21410  0.03360  1.0000 0.127215674
H   H29       1.0  0.21410  0.91270  0.96640  1.0000 0.127215674
H   H30       1.0  0.78590  0.08730  0.46640  1.0000 0.127215674
H   H31       1.0  0.41270  0.28590  0.21640  1.0000 0.127215674
H   H32       1.0  0.58730  0.71410  0.71640  1.0000 0.127215674
H   H33       1.0  0.20530  0.34390  0.71820  1.0000 0.0989478788
H   H34       1.0  0.79470  0.65610  0.21820  1.0000 0.0989478788
H   H35       1.0  0.15610  0.70530  0.46820  1.0000 0.0989478788
H   H36       1.0  0.84390  0.29470  0.96820  1.0000 0.0989478788
H   H37       1.0  0.29470  0.84390  0.03180  1.0000 0.0989478788
H   H38       1.0  0.70530  0.15610  0.53180  1.0000 0.0989478788
H   H39       1.0  0.34390  0.20530  0.28180  1.0000 0.0989478788
H   H40       1.0  0.65610  0.79470  0.78180  1.0000 0.0989478788
H   H41       1.0  0.08910  0.29500  0.66300  1.0000 0.1102862421
H   H42       1.0  0.91090  0.70500  0.16300  1.0000 0.1102862421
H   H43       1.0  0.20500  0.58910  0.41300  1.0000 0.1102862421
H   H44       1.0  0.79500  0.41090  0.91300  1.0000 0.1102862421
H   H45       1.0  0.41090  0.79500  0.08700  1.0000 0.1102862421
H   H46       1.0  0.58910  0.20500  0.58700  1.0000 0.1102862421
H   H47       1.0  0.29500  0.08910  0.33700  1.0000 0.1102862421
H   H48       1.0  0.70500  0.91090  0.83700  1.0000 0.1102862421
H   H49       1.0  0.99530  0.19820  0.70820  1.0000 0.1102862421
H   H50       1.0  0.00470  0.80180  0.20820  1.0000 0.1102862421
H   H51       1.0  0.30180  0.49530  0.45820  1.0000 0.1102862421
H   H52       1.0  0.69820  0.50470  0.95820  1.0000 0.1102862421
H   H53       1.0  0.50470  0.69820  0.04180  1.0000 0.1102862421
H   H54       1.0  0.49530  0.30180  0.54180  1.0000 0.1102862421
H   H55       1.0  0.19820  0.99530  0.29180  1.0000 0.1102862421
H   H56       1.0  0.80180  0.00470  0.79180  1.0000 0.1102862421
H   H57       1.0  0.13860  0.19680  0.86270  1.0000 0.1102862421
H   H58       1.0  0.86140  0.80320  0.36270  1.0000 0.1102862421
H   H59       1.0  0.30320  0.63860  0.61270  1.0000 0.1102862421
H   H60       1.0  0.69680  0.36140  0.11270  1.0000 0.1102862421
H   H61       1.0  0.36140  0.69680  0.88730  1.0000 0.1102862421
H   H62       1.0  0.63860  0.30320  0.38730  1.0000 0.1102862421
H   H63       1.0  0.19680  0.13860  0.13730  1.0000 0.1102862421
H   H64       1.0  0.80320  0.86140  0.63730  1.0000 0.1102862421
H   H65       1.0  0.87700  0.95150  0.95890  1.0000 0.1102862421
H   H66       1.0  0.12300  0.04850  0.45890  1.0000 0.1102862421
H   H67       1.0  0.54850  0.37700  0.70890  1.0000 0.1102862421
H   H68       1.0  0.45150  0.62300  0.20890  1.0000 0.1102862421
H   H69       1.0  0.62300  0.45150  0.79110  1.0000 0.1102862421
H   H70       1.0  0.37700  0.54850  0.29110  1.0000 0.1102862421
H   H71       1.0  0.95150  0.87700  0.04110  1.0000 0.1102862421
H   H72       1.0  0.04850  0.12300  0.54110  1.0000 0.1102862421
H   H73       1.0  0.76820  0.93250  0.02660  1.0000 0.1102862421
H   H74       1.0  0.23180  0.06750  0.52660  1.0000 0.1102862421
H   H75       1.0  0.56750  0.26820  0.77660  1.0000 0.1102862421
H   H76       1.0  0.43250  0.73180  0.27660  1.0000 0.1102862421
H   H77       1.0  0.73180  0.43250  0.72340  1.0000 0.1102862421
H   H78       1.0  0.26820  0.56750  0.22340  1.0000 0.1102862421
H   H79       1.0  0.93250  0.76820  0.97340  1.0000 0.1102862421
H   H80       1.0  0.06750  0.23180  0.47340  1.0000 0.1102862421
H   H81       1.0  0.66210  0.03240  0.03640  1.0000 0.1102862421
H   H82       1.0  0.33790  0.96760  0.53640  1.0000 0.1102862421
H   H83       1.0  0.46760  0.16210  0.78640  1.0000 0.1102862421
H   H84       1.0  0.53240  0.83790  0.28640  1.0000 0.1102862421
H   H85       1.0  0.83790  0.53240  0.71360  1.0000 0.1102862421
H   H86       1.0  0.16210  0.46760  0.21360  1.0000 0.1102862421
H   H87       1.0  0.03240  0.66210  0.96360  1.0000 0.1102862421
H   H88       1.0  0.96760  0.33790  0.46360  1.0000 0.1102862421
H   H89       1.0  0.77480  0.17310  0.90370  1.0000 0.1102862421
H   H90       1.0  0.22520  0.82690  0.40370  1.0000 0.1102862421
H   H91       1.0  0.32690  0.27480  0.65370  1.0000 0.1102862421
H   H92       1.0  0.67310  0.72520  0.15370  1.0000 0.1102862421
H   H93       1.0  0.72520  0.67310  0.84630  1.0000 0.1102862421
H   H94       1.0  0.27480  0.32690  0.34630  1.0000 0.1102862421
H   H95       1.0  0.17310  0.77480  0.09630  1.0000 0.1102862421
H   H96       1.0  0.82690  0.22520  0.59630  1.0000 0.1102862421
H   H97       1.0  0.65260  0.23220  0.89120  1.0000 0.1248978207
H   H98       1.0  0.34740  0.76780  0.39120  1.0000 0.1248978207
H   H99       1.0  0.26780  0.15260  0.64120  1.0000 0.1248978207
H   H100      1.0  0.73220  0.84740  0.14120  1.0000 0.1248978207
H   H101      1.0  0.84740  0.73220  0.85880  1.0000 0.1248978207
H   H102      1.0  0.15260  0.26780  0.35880  1.0000 0.1248978207
H   H103      1.0  0.23220  0.65260  0.10880  1.0000 0.1248978207
H   H104      1.0  0.76780  0.34740  0.60880  1.0000 0.1248978207
H   H105      1.0  0.60080  0.15010  0.06330  1.0000 0.127215674
H   H106      1.0  0.39920  0.84990  0.56330  1.0000 0.127215674
H   H107      1.0  0.34990  0.10080  0.81330  1.0000 0.127215674
H   H108      1.0  0.65010  0.89920  0.31330  1.0000 0.127215674
H   H109      1.0  0.89920  0.65010  0.68670  1.0000 0.127215674
H   H110      1.0  0.10080  0.34990  0.18670  1.0000 0.127215674
H   H111      1.0  0.15010  0.60080  0.93670  1.0000 0.127215674
H   H112      1.0  0.84990  0.39920  0.43670  1.0000 0.127215674
H   H113      1.0  0.38680  0.46280  0.84950  1.0000 0.0989478788
H   H114      1.0  0.61320  0.53720  0.34950  1.0000 0.0989478788
H   H115      1.0  0.03720  0.88680  0.59950  1.0000 0.0989478788
H   H116      1.0  0.96280  0.11320  0.09950  1.0000 0.0989478788
H   H117      1.0  0.11320  0.96280  0.90050  1.0000 0.0989478788
H   H118      1.0  0.88680  0.03720  0.40050  1.0000 0.0989478788
H   H119      1.0  0.46280  0.38680  0.15050  1.0000 0.0989478788
H   H120      1.0  0.53720  0.61320  0.65050  1.0000 0.0989478788
H   H121      1.0  0.36000  0.26870  0.95970  1.0000 0.0989478788
H   H122      1.0  0.64000  0.73130  0.45970  1.0000 0.0989478788
H   H123      1.0  0.23130  0.86000  0.70970  1.0000 0.0989478788
H   H124      1.0  0.76870  0.14000  0.20970  1.0000 0.0989478788
H   H125      1.0  0.14000  0.76870  0.79030  1.0000 0.0989478788
H   H126      1.0  0.86000  0.23130  0.29030  1.0000 0.0989478788
H   H127      1.0  0.26870  0.36000  0.04030  1.0000 0.0989478788
H   H128      1.0  0.73130  0.64000  0.54030  1.0000 0.0989478788
H   H129      1.0  0.97300  0.25700  0.88970  1.0000 0.2577941397
H   H130      1.0  0.02700  0.74300  0.38970  1.0000 0.2577941397
H   H131      1.0  0.24300  0.47300  0.63970  1.0000 0.2577941397
H   H132      1.0  0.75700  0.52700  0.13970  1.0000 0.2577941397
H   H133      1.0  0.52700  0.75700  0.86030  1.0000 0.2577941397
H   H134      1.0  0.47300  0.24300  0.36030  1.0000 0.2577941397
H   H135      1.0  0.25700  0.97300  0.11030  1.0000 0.2577941397
H   H136      1.0  0.74300  0.02700  0.61030  1.0000 0.2577941397
H   H137      1.0  0.89570  0.25710  0.85080  1.0000 0.2476736287
H   H138      1.0  0.10430  0.74290  0.35080  1.0000 0.2476736287
H   H139      1.0  0.24290  0.39570  0.60080  1.0000 0.2476736287
H   H140      1.0  0.75710  0.60430  0.10080  1.0000 0.2476736287
H   H141      1.0  0.60430  0.75710  0.89920  1.0000 0.2476736287
H   H142      1.0  0.39570  0.24290  0.39920  1.0000 0.2476736287
H   H143      1.0  0.25710  0.89570  0.14920  1.0000 0.2476736287
H   H144      1.0  0.74290  0.10430  0.64920  1.0000 0.2476736287
C   C1        1.0  0.53730  0.25550  0.03600  1.0000 0.0507409515
C   C2        1.0  0.46270  0.74450  0.53600  1.0000 0.0507409515
C   C3        1.0  0.24450  0.03730  0.78600  1.0000 0.0507409515
C   C4        1.0  0.75550  0.96270  0.28600  1.0000 0.0507409515
C   C5        1.0  0.96270  0.75550  0.71400  1.0000 0.0507409515
C   C6        1.0  0.03730  0.24450  0.21400  1.0000 0.0507409515
C   C7        1.0  0.25550  0.53730  0.96400  1.0000 0.0507409515
C   C8        1.0  0.74450  0.46270  0.46400  1.0000 0.0507409515
C   C9        1.0  0.56700  0.30160  0.93940  1.0000 0.0676006208
C   C10       1.0  0.43300  0.69840  0.43940  1.0000 0.0676006208
C   C11       1.0  0.19840  0.06700  0.68940  1.0000 0.0676006208
C   C12       1.0  0.80160  0.93300  0.18940  1.0000 0.0676006208
C   C13       1.0  0.93300  0.80160  0.81060  1.0000 0.0676006208
C   C14       1.0  0.06700  0.19840  0.31060  1.0000 0.0676006208
C   C15       1.0  0.30160  0.56700  0.06060  1.0000 0.0676006208
C   C16       1.0  0.69840  0.43300  0.56060  1.0000 0.0676006208
C   C17       1.0  0.28340  0.26440  0.88570  1.0000 -0.2094304269
C   C18       1.0  0.71660  0.73560  0.38570  1.0000 -0.2094304269
C   C19       1.0  0.23560  0.78340  0.63570  1.0000 -0.2094304269
C   C20       1.0  0.76440  0.21660  0.13570  1.0000 -0.2094304269
C   C21       1.0  0.21660  0.76440  0.86430  1.0000 -0.2094304269
C   C22       1.0  0.78340  0.23560  0.36430  1.0000 -0.2094304269
C   C23       1.0  0.26440  0.28340  0.11430  1.0000 -0.2094304269
C   C24       1.0  0.73560  0.71660  0.61430  1.0000 -0.2094304269
C   C25       1.0  0.29830  0.38240  0.82050  1.0000 -0.2094304269
C   C26       1.0  0.70170  0.61760  0.32050  1.0000 -0.2094304269
C   C27       1.0  0.11760  0.79830  0.57050  1.0000 -0.2094304269
C   C28       1.0  0.88240  0.20170  0.07050  1.0000 -0.2094304269
C   C29       1.0  0.20170  0.88240  0.92950  1.0000 -0.2094304269
C   C30       1.0  0.79830  0.11760  0.42950  1.0000 -0.2094304269
C   C31       1.0  0.38240  0.29830  0.17950  1.0000 -0.2094304269
C   C32       1.0  0.61760  0.70170  0.67950  1.0000 -0.2094304269
C   C33       1.0  0.25510  0.30760  0.83360  1.0000 0.1102862421
C   C34       1.0  0.74490  0.69240  0.33360  1.0000 0.1102862421
C   C35       1.0  0.19240  0.75510  0.58360  1.0000 0.1102862421
C   C36       1.0  0.80760  0.24490  0.08360  1.0000 0.1102862421
C   C37       1.0  0.24490  0.80760  0.91640  1.0000 0.1102862421
C   C38       1.0  0.75510  0.19240  0.41640  1.0000 0.1102862421
C   C39       1.0  0.30760  0.25510  0.16640  1.0000 0.1102862421
C   C40       1.0  0.69240  0.74490  0.66640  1.0000 0.1102862421
C   C41       1.0  0.18330  0.27670  0.79660  1.0000 0.0676006208
C   C42       1.0  0.81670  0.72330  0.29660  1.0000 0.0676006208
C   C43       1.0  0.22330  0.68330  0.54660  1.0000 0.0676006208
C   C44       1.0  0.77670  0.31670  0.04660  1.0000 0.0676006208
C   C45       1.0  0.31670  0.77670  0.95340  1.0000 0.0676006208
C   C46       1.0  0.68330  0.22330  0.45340  1.0000 0.0676006208
C   C47       1.0  0.27670  0.18330  0.20340  1.0000 0.0676006208
C   C48       1.0  0.72330  0.81670  0.70340  1.0000 0.0676006208
C   C49       1.0  0.16800  0.30440  0.73680  1.0000 -0.1685488716
C   C50       1.0  0.83200  0.69560  0.23680  1.0000 -0.1685488716
C   C51       1.0  0.19560  0.66800  0.48680  1.0000 -0.1685488716
C   C52       1.0  0.80440  0.33200  0.98680  1.0000 -0.1685488716
C   C53       1.0  0.33200  0.80440  0.01320  1.0000 -0.1685488716
C   C54       1.0  0.66800  0.19560  0.51320  1.0000 -0.1685488716
C   C55       1.0  0.30440  0.16800  0.26320  1.0000 -0.1685488716
C   C56       1.0  0.69560  0.83200  0.76320  1.0000 -0.1685488716
C   C57       1.0  0.09890  0.27530  0.70390  1.0000 -0.1061696388
C   C58       1.0  0.90110  0.72470  0.20390  1.0000 -0.1061696388
C   C59       1.0  0.22470  0.59890  0.45390  1.0000 -0.1061696388
C   C60       1.0  0.77530  0.40110  0.95390  1.0000 -0.1061696388
C   C61       1.0  0.40110  0.77530  0.04610  1.0000 -0.1061696388
C   C62       1.0  0.59890  0.22470  0.54610  1.0000 -0.1061696388
C   C63       1.0  0.27530  0.09890  0.29610  1.0000 -0.1061696388
C   C64       1.0  0.72470  0.90110  0.79610  1.0000 -0.1061696388
C   C65       1.0  0.04340  0.21710  0.73040  1.0000 -0.1685488716
C   C66       1.0  0.95660  0.78290  0.23040  1.0000 -0.1685488716
C   C67       1.0  0.28290  0.54340  0.48040  1.0000 -0.1685488716
C   C68       1.0  0.71710  0.45660  0.98040  1.0000 -0.1685488716
C   C69       1.0  0.45660  0.71710  0.01960  1.0000 -0.1685488716
C   C70       1.0  0.54340  0.28290  0.51960  1.0000 -0.1685488716
C   C71       1.0  0.21710  0.04340  0.26960  1.0000 -0.1685488716
C   C72       1.0  0.78290  0.95660  0.76960  1.0000 -0.1685488716
C   C73       1.0  0.05930  0.18740  0.78940  1.0000 0.0171650626
C   C74       1.0  0.94070  0.81260  0.28940  1.0000 0.0171650626
C   C75       1.0  0.31260  0.55930  0.53940  1.0000 0.0171650626
C   C76       1.0  0.68740  0.44070  0.03940  1.0000 0.0171650626
C   C77       1.0  0.44070  0.68740  0.96060  1.0000 0.0171650626
C   C78       1.0  0.55930  0.31260  0.46060  1.0000 0.0171650626
C   C79       1.0  0.18740  0.05930  0.21060  1.0000 0.0171650626
C   C80       1.0  0.81260  0.94070  0.71060  1.0000 0.0171650626
C   C81       1.0  0.12840  0.21730  0.82200  1.0000 -0.2094304269
C   C82       1.0  0.87160  0.78270  0.32200  1.0000 -0.2094304269
C   C83       1.0  0.28270  0.62840  0.57200  1.0000 -0.2094304269
C   C84       1.0  0.71730  0.37160  0.07200  1.0000 -0.2094304269
C   C85       1.0  0.37160  0.71730  0.92800  1.0000 -0.2094304269
C   C86       1.0  0.62840  0.28270  0.42800  1.0000 -0.2094304269
C   C87       1.0  0.21730  0.12840  0.17800  1.0000 -0.2094304269
C   C88       1.0  0.78270  0.87160  0.67800  1.0000 -0.2094304269
C   C89       1.0  0.00450  0.12560  0.81986  1.0000 0.1719311865
C   C90       1.0  0.99550  0.87440  0.31986  1.0000 0.1719311865
C   C91       1.0  0.37440  0.50450  0.56986  1.0000 0.1719311865
C   C92       1.0  0.62560  0.49550  0.06986  1.0000 0.1719311865
C   C93       1.0  0.49550  0.62560  0.93014  1.0000 0.1719311865
C   C94       1.0  0.50450  0.37440  0.43014  1.0000 0.1719311865
C   C95       1.0  0.12560  0.00450  0.18014  1.0000 0.1719311865
C   C96       1.0  0.87440  0.99550  0.68014  1.0000 0.1719311865
C   C97       1.0  0.90810  0.07430  0.88200  1.0000 0.1719311865
C   C98       1.0  0.09190  0.92570  0.38200  1.0000 0.1719311865
C   C99       1.0  0.42570  0.40810  0.63200  1.0000 0.1719311865
C   C100      1.0  0.57430  0.59190  0.13200  1.0000 0.1719311865
C   C101      1.0  0.59190  0.57430  0.86800  1.0000 0.1719311865
C   C102      1.0  0.40810  0.42570  0.36800  1.0000 0.1719311865
C   C103      1.0  0.07430  0.90810  0.11800  1.0000 0.1719311865
C   C104      1.0  0.92570  0.09190  0.61800  1.0000 0.1719311865
C   C105      1.0  0.83850  0.06580  0.92540  1.0000 0.0305666
C   C106      1.0  0.16150  0.93420  0.42540  1.0000 0.0305666
C   C107      1.0  0.43420  0.33850  0.67540  1.0000 0.0305666
C   C108      1.0  0.56580  0.66150  0.17540  1.0000 0.0305666
C   C109      1.0  0.66150  0.56580  0.82460  1.0000 0.0305666
C   C110      1.0  0.33850  0.43420  0.32460  1.0000 0.0305666
C   C111      1.0  0.06580  0.83850  0.07460  1.0000 0.0305666
C   C112      1.0  0.93420  0.16150  0.57460  1.0000 0.0305666
C   C113      1.0  0.83420  0.99320  0.96210  1.0000 -0.1604916734
C   C114      1.0  0.16580  0.00680  0.46210  1.0000 -0.1604916734
C   C115      1.0  0.50680  0.33420  0.71210  1.0000 -0.1604916734
C   C116      1.0  0.49320  0.66580  0.21210  1.0000 -0.1604916734
C   C117      1.0  0.66580  0.49320  0.78790  1.0000 -0.1604916734
C   C118      1.0  0.33420  0.50680  0.28790  1.0000 -0.1604916734
C   C119      1.0  0.99320  0.83420  0.03790  1.0000 -0.1604916734
C   C120      1.0  0.00680  0.16580  0.53790  1.0000 -0.1604916734
C   C121      1.0  0.76990  0.98200  0.00190  1.0000 -0.1061696388
C   C122      1.0  0.23010  0.01800  0.50190  1.0000 -0.1061696388
C   C123      1.0  0.51800  0.26990  0.75190  1.0000 -0.1061696388
C   C124      1.0  0.48200  0.73010  0.25190  1.0000 -0.1061696388
C   C125      1.0  0.73010  0.48200  0.74810  1.0000 -0.1061696388
C   C126      1.0  0.26990  0.51800  0.24810  1.0000 -0.1061696388
C   C127      1.0  0.98200  0.76990  0.99810  1.0000 -0.1061696388
C   C128      1.0  0.01800  0.23010  0.49810  1.0000 -0.1061696388
C   C129      1.0  0.70640  0.04110  0.00750  1.0000 -0.1685488716
C   C130      1.0  0.29360  0.95890  0.50750  1.0000 -0.1685488716
C   C131      1.0  0.45890  0.20640  0.75750  1.0000 -0.1685488716
C   C132      1.0  0.54110  0.79360  0.25750  1.0000 -0.1685488716
C   C133      1.0  0.79360  0.54110  0.74250  1.0000 -0.1685488716
C   C134      1.0  0.20640  0.45890  0.24250  1.0000 -0.1685488716
C   C135      1.0  0.04110  0.70640  0.99250  1.0000 -0.1685488716
C   C136      1.0  0.95890  0.29360  0.49250  1.0000 -0.1685488716
C   C137      1.0  0.70690  0.11390  0.97060  1.0000 0.0676006208
C   C138      1.0  0.29310  0.88610  0.47060  1.0000 0.0676006208
C   C139      1.0  0.38610  0.20690  0.72060  1.0000 0.0676006208
C   C140      1.0  0.61390  0.79310  0.22060  1.0000 0.0676006208
C   C141      1.0  0.79310  0.61390  0.77940  1.0000 0.0676006208
C   C142      1.0  0.20690  0.38610  0.27940  1.0000 0.0676006208
C   C143      1.0  0.11390  0.70690  0.02940  1.0000 0.0676006208
C   C144      1.0  0.88610  0.29310  0.52940  1.0000 0.0676006208
C   C145      1.0  0.77360  0.12460  0.92950  1.0000 -0.1995565315
C   C146      1.0  0.22640  0.87540  0.42950  1.0000 -0.1995565315
C   C147      1.0  0.37540  0.27360  0.67950  1.0000 -0.1995565315
C   C148      1.0  0.62460  0.72640  0.17950  1.0000 -0.1995565315
C   C149      1.0  0.72640  0.62460  0.82050  1.0000 -0.1995565315
C   C150      1.0  0.27360  0.37540  0.32050  1.0000 -0.1995565315
C   C151      1.0  0.12460  0.77360  0.07050  1.0000 -0.1995565315
C   C152      1.0  0.87540  0.22640  0.57050  1.0000 -0.1995565315
C   C153      1.0  0.64080  0.17950  0.97700  1.0000 0.1102862421
C   C154      1.0  0.35920  0.82050  0.47700  1.0000 0.1102862421
C   C155      1.0  0.32050  0.14080  0.72700  1.0000 0.1102862421
C   C156      1.0  0.67950  0.85920  0.22700  1.0000 0.1102862421
C   C157      1.0  0.85920  0.67950  0.77300  1.0000 0.1102862421
C   C158      1.0  0.14080  0.32050  0.27300  1.0000 0.1102862421
C   C159      1.0  0.17950  0.64080  0.02300  1.0000 0.1102862421
C   C160      1.0  0.82050  0.35920  0.52300  1.0000 0.1102862421
C   C161      1.0  0.62440  0.23710  0.92990  1.0000 -0.2094304269
C   C162      1.0  0.37560  0.76290  0.42990  1.0000 -0.2094304269
C   C163      1.0  0.26290  0.12440  0.67990  1.0000 -0.2094304269
C   C164      1.0  0.73710  0.87560  0.17990  1.0000 -0.2094304269
C   C165      1.0  0.87560  0.73710  0.82010  1.0000 -0.2094304269
C   C166      1.0  0.12440  0.26290  0.32010  1.0000 -0.2094304269
C   C167      1.0  0.23710  0.62440  0.07010  1.0000 -0.2094304269
C   C168      1.0  0.76290  0.37560  0.57010  1.0000 -0.2094304269
C   C169      1.0  0.59420  0.18910  0.03020  1.0000 -0.2094304269
C   C170      1.0  0.40580  0.81090  0.53020  1.0000 -0.2094304269
C   C171      1.0  0.31090  0.09420  0.78020  1.0000 -0.2094304269
C   C172      1.0  0.68910  0.90580  0.28020  1.0000 -0.2094304269
C   C173      1.0  0.90580  0.68910  0.71980  1.0000 -0.2094304269
C   C174      1.0  0.09420  0.31090  0.21980  1.0000 -0.2094304269
C   C175      1.0  0.18910  0.59420  0.96980  1.0000 -0.2094304269
C   C176      1.0  0.81090  0.40580  0.46980  1.0000 -0.2094304269
C   C177      1.0  0.35840  0.41220  0.86020  1.0000 0.0591010471
C   C178      1.0  0.64160  0.58780  0.36020  1.0000 0.0591010471
C   C179      1.0  0.08780  0.85840  0.61020  1.0000 0.0591010471
C   C180      1.0  0.91220  0.14160  0.11020  1.0000 0.0591010471
C   C181      1.0  0.14160  0.91220  0.88980  1.0000 0.0591010471
C   C182      1.0  0.85840  0.08780  0.38980  1.0000 0.0591010471
C   C183      1.0  0.41220  0.35840  0.13980  1.0000 0.0591010471
C   C184      1.0  0.58780  0.64160  0.63980  1.0000 0.0591010471
C   C185      1.0  0.34320  0.29920  0.92390  1.0000 0.0305666
C   C186      1.0  0.65680  0.70080  0.42390  1.0000 0.0305666
C   C187      1.0  0.20080  0.84320  0.67390  1.0000 0.0305666
C   C188      1.0  0.79920  0.15680  0.17390  1.0000 0.0305666
C   C189      1.0  0.15680  0.79920  0.82610  1.0000 0.0305666
C   C190      1.0  0.84320  0.20080  0.32610  1.0000 0.0305666
C   C191      1.0  0.29920  0.34320  0.07610  1.0000 0.0305666
C   C192      1.0  0.70080  0.65680  0.57610  1.0000 0.0305666
N   N1        1.0  0.00660  0.04350  0.81671  1.0000 -0.2278671425
N   N2        1.0  0.99340  0.95650  0.31671  1.0000 -0.2278671425
N   N3        1.0  0.45650  0.50660  0.56671  1.0000 -0.2278671425
N   N4        1.0  0.54350  0.49340  0.06671  1.0000 -0.2278671425
N   N5        1.0  0.49340  0.54350  0.93329  1.0000 -0.2278671425
N   N6        1.0  0.50660  0.45650  0.43329  1.0000 -0.2278671425
N   N7        1.0  0.04350  0.00660  0.18329  1.0000 -0.2278671425
N   N8        1.0  0.95650  0.99340  0.68329  1.0000 -0.2278671425
N   N9        1.0  0.94600  0.01090  0.85546  1.0000 -0.2740549316
N   N10       1.0  0.05400  0.98910  0.35546  1.0000 -0.2740549316
N   N11       1.0  0.48910  0.44600  0.60546  1.0000 -0.2740549316
N   N12       1.0  0.51090  0.55400  0.10546  1.0000 -0.2740549316
N   N13       1.0  0.55400  0.51090  0.89454  1.0000 -0.2740549316
N   N14       1.0  0.44600  0.48910  0.39454  1.0000 -0.2740549316
N   N15       1.0  0.01090  0.94600  0.14454  1.0000 -0.2740549316
N   N16       1.0  0.98910  0.05400  0.64454  1.0000 -0.2740549316
N   N17       1.0  0.94360  0.14790  0.86076  1.0000 0.0591010471
N   N18       1.0  0.05640  0.85210  0.36076  1.0000 0.0591010471
N   N19       1.0  0.35210  0.44360  0.61076  1.0000 0.0591010471
N   N20       1.0  0.64790  0.55640  0.11076  1.0000 0.0591010471
N   N21       1.0  0.55640  0.64790  0.88924  1.0000 0.0591010471
N   N22       1.0  0.44360  0.35210  0.38924  1.0000 0.0591010471
N   N23       1.0  0.14790  0.94360  0.13924  1.0000 0.0591010471
N   N24       1.0  0.85210  0.05640  0.63924  1.0000 0.0591010471
N   N25       1.0  0.92410  0.22920  0.88110  1.0000 -0.5120743831
N   N26       1.0  0.07590  0.77080  0.38110  1.0000 -0.5120743831
N   N27       1.0  0.27080  0.42410  0.63110  1.0000 -0.5120743831
N   N28       1.0  0.72920  0.57590  0.13110  1.0000 -0.5120743831
N   N29       1.0  0.57590  0.72920  0.86890  1.0000 -0.5120743831
N   N30       1.0  0.42410  0.27080  0.36890  1.0000 -0.5120743831
N   N31       1.0  0.22920  0.92410  0.11890  1.0000 -0.5120743831
N   N32       1.0  0.77080  0.07590  0.61890  1.0000 -0.5120743831
N   N33       1.0  0.37920  0.37470  0.91282  1.0000 -0.2278671425
N   N34       1.0  0.62080  0.62530  0.41282  1.0000 -0.2278671425
N   N35       1.0  0.12530  0.87920  0.66282  1.0000 -0.2278671425
N   N36       1.0  0.87470  0.12080  0.16282  1.0000 -0.2278671425
N   N37       1.0  0.12080  0.87470  0.83718  1.0000 -0.2278671425
N   N38       1.0  0.87920  0.12530  0.33718  1.0000 -0.2278671425
N   N39       1.0  0.37470  0.37920  0.08718  1.0000 -0.2278671425
N   N40       1.0  0.62530  0.62080  0.58718  1.0000 -0.2278671425
N   N41       1.0  0.52440  0.31300  0.99166  1.0000 -0.2413460483
N   N42       1.0  0.47560  0.68700  0.49166  1.0000 -0.2413460483
N   N43       1.0  0.18700  0.02440  0.74166  1.0000 -0.2413460483
N   N44       1.0  0.81300  0.97560  0.24166  1.0000 -0.2413460483
N   N45       1.0  0.97560  0.81300  0.75834  1.0000 -0.2413460483
N   N46       1.0  0.02440  0.18700  0.25834  1.0000 -0.2413460483
N   N47       1.0  0.31300  0.52440  0.00834  1.0000 -0.2413460483
N   N48       1.0  0.68700  0.47560  0.50834  1.0000 -0.2413460483
