# DDEC6 charges by PACMAN v1.1 (https://github.com/mtap-research/PACMAN-charge/)
data_2010[Ag][pts]3[FSR]1
_chemical_formula_sum              "Ag2 H16 C12 N12"
_cell_length_a       11.2996
_cell_length_b       11.2996
_cell_length_c       8.2868
_cell_angle_alpha    90
_cell_angle_beta     90
_cell_angle_gamma    134.71

_symmetry_space_group_name_H-M    "P 1"
_symmetry_Int_Tables_number       1

loop_
  _symmetry_equiv_pos_as_xyz
  'x, y, z'

loop_
  _atom_site_type_symbol
  _atom_site_label
  _atom_site_symmetry_multiplicity
  _atom_site_fract_x
  _atom_site_fract_y
  _atom_site_fract_z
  _atom_site_occupancy
  _atom_site_charge
Ag  Ag1       1.0  0.50000  0.50000  0.75000  1.0000 0.261155841
Ag  Ag2       1.0  0.50000  0.50000  0.25000  1.0000 0.261155841
H   H1        1.0  0.83750  0.55970  0.76430  1.0000 0.1091283225
H   H2        1.0  0.16250  0.44030  0.76430  1.0000 0.1091283225
H   H3        1.0  0.55970  0.83750  0.73570  1.0000 0.1091283225
H   H4        1.0  0.44030  0.16250  0.73570  1.0000 0.1091283225
H   H5        1.0  0.16250  0.44030  0.23570  1.0000 0.1091283225
H   H6        1.0  0.83750  0.55970  0.23570  1.0000 0.1091283225
H   H7        1.0  0.44030  0.16250  0.26430  1.0000 0.1091283225
H   H8        1.0  0.55970  0.83750  0.26430  1.0000 0.1091283225
H   H9        1.0  0.10310  0.64590  0.09590  1.0000 0.100569238
H   H10       1.0  0.89690  0.35410  0.09590  1.0000 0.100569238
H   H11       1.0  0.64590  0.10310  0.40410  1.0000 0.100569238
H   H12       1.0  0.35410  0.89690  0.40410  1.0000 0.100569238
H   H13       1.0  0.89690  0.35410  0.90410  1.0000 0.100569238
H   H14       1.0  0.10310  0.64590  0.90410  1.0000 0.100569238
H   H15       1.0  0.35410  0.89690  0.59590  1.0000 0.100569238
H   H16       1.0  0.64590  0.10310  0.59590  1.0000 0.100569238
C   C1        1.0  0.81110  0.55850  0.87230  1.0000 -0.0035318561
C   C2        1.0  0.18890  0.44150  0.87230  1.0000 -0.0035318561
C   C3        1.0  0.55850  0.81110  0.62770  1.0000 -0.0035318561
C   C4        1.0  0.44150  0.18890  0.62770  1.0000 -0.0035318561
C   C5        1.0  0.18890  0.44150  0.12770  1.0000 -0.0035318561
C   C6        1.0  0.81110  0.55850  0.12770  1.0000 -0.0035318561
C   C7        1.0  0.44150  0.18890  0.37230  1.0000 -0.0035318561
C   C8        1.0  0.55850  0.81110  0.37230  1.0000 -0.0035318561
C   C9        1.0  0.03390  0.58470  0.00000  1.0000 -0.1719905016
C   C10       1.0  0.96610  0.41530  0.00000  1.0000 -0.1719905016
C   C11       1.0  0.58470  0.03390  0.50000  1.0000 -0.1719905016
C   C12       1.0  0.41530  0.96610  0.50000  1.0000 -0.1719905016
N   N1        1.0  0.69210  0.54650  0.91770  1.0000 -0.1862131235
N   N2        1.0  0.30790  0.45350  0.91770  1.0000 -0.1862131235
N   N3        1.0  0.54650  0.69210  0.58230  1.0000 -0.1862131235
N   N4        1.0  0.45350  0.30790  0.58230  1.0000 -0.1845959452
N   N5        1.0  0.30790  0.45350  0.08230  1.0000 -0.1862131235
N   N6        1.0  0.69210  0.54650  0.08230  1.0000 -0.1862131235
N   N7        1.0  0.45350  0.30790  0.41770  1.0000 -0.1862131235
N   N8        1.0  0.54650  0.69210  0.41770  1.0000 -0.1862131235
N   N9        1.0  0.89040  0.56860  0.00000  1.0000 0.0011031247
N   N10       1.0  0.10960  0.43140  0.00000  1.0000 0.0011031247
N   N11       1.0  0.56860  0.89040  0.50000  1.0000 0.0011031247
N   N12       1.0  0.43140  0.10960  0.50000  1.0000 0.0011031247
