# DDEC6 charges by PACMAN v1.1 (https://github.com/mtap-research/PACMAN-charge/)
data_2010[Ce][pcu]3[FSR]1
_chemical_formula_sum              "Ce12 H240 C336 N48 O96"
_cell_length_a       34.5146
_cell_length_b       34.5146
_cell_length_c       34.5146
_cell_angle_alpha    109.471
_cell_angle_beta     109.471
_cell_angle_gamma    109.471

_symmetry_space_group_name_H-M    "P 1"
_symmetry_Int_Tables_number       1

loop_
  _symmetry_equiv_pos_as_xyz
  'x, y, z'

loop_
  _atom_site_type_symbol
  _atom_site_label
  _atom_site_symmetry_multiplicity
  _atom_site_fract_x
  _atom_site_fract_y
  _atom_site_fract_z
  _atom_site_occupancy
  _atom_site_charge
Ce  Ce1       1.0  0.50000  0.50000  0.00000  1.0000 1.5997947664
Ce  Ce2       1.0  0.00000  0.50000  0.50000  1.0000 1.5928968401
Ce  Ce3       1.0  0.50000  0.00000  0.50000  1.0000 1.5928968401
Ce  Ce4       1.0  0.00000  0.00000  0.00000  1.0000 1.5997947664
Ce  Ce5       1.0  0.38288  0.50000  0.00000  1.0000 2.0004995973
Ce  Ce6       1.0  1.00000  0.38288  0.50000  1.0000 2.0004995973
Ce  Ce7       1.0  0.50000  0.00000  0.38288  1.0000 2.0004995973
Ce  Ce8       1.0  0.11712  0.11712  0.11712  1.0000 2.0004995973
Ce  Ce9       1.0  0.61712  0.50000  0.00000  1.0000 2.0004995973
Ce  Ce10      1.0  0.00000  0.61712  0.50000  1.0000 2.0004995973
Ce  Ce11      1.0  0.50000  0.00000  0.61712  1.0000 2.0004995973
Ce  Ce12      1.0  0.88288  0.88288  0.88288  1.0000 2.0004995973
H   H1        1.0  0.23570  0.26800  0.13990  1.0000 0.1288918547
H   H2        1.0  0.62810  0.09580  0.36010  1.0000 0.1288918547
H   H3        1.0  0.87190  0.23200  0.46770  1.0000 0.1288918547
H   H4        1.0  0.26430  0.40420  0.03230  1.0000 0.1288918547
H   H5        1.0  0.13990  0.23570  0.26800  1.0000 0.1288918547
H   H6        1.0  0.36010  0.62810  0.09580  1.0000 0.1288918547
H   H7        1.0  0.46770  0.87190  0.23200  1.0000 0.1288918547
H   H8        1.0  0.03230  0.26430  0.40420  1.0000 0.1288918547
H   H9        1.0  0.26800  0.13990  0.23570  1.0000 0.1288918547
H   H10       1.0  0.09580  0.36010  0.62810  1.0000 0.1288918547
H   H11       1.0  0.23200  0.46770  0.87190  1.0000 0.1288918547
H   H12       1.0  0.40420  0.03230  0.26430  1.0000 0.1288918547
H   H13       1.0  0.76430  0.73200  0.86010  1.0000 0.1288918547
H   H14       1.0  0.37190  0.90420  0.63990  1.0000 0.1288918547
H   H15       1.0  0.12810  0.76800  0.53230  1.0000 0.1288918547
H   H16       1.0  0.73570  0.59580  0.96770  1.0000 0.1288918547
H   H17       1.0  0.86010  0.76430  0.73200  1.0000 0.1288918547
H   H18       1.0  0.63990  0.37190  0.90420  1.0000 0.1288918547
H   H19       1.0  0.53230  0.12810  0.76800  1.0000 0.1288918547
H   H20       1.0  0.96770  0.73570  0.59580  1.0000 0.1288918547
H   H21       1.0  0.73200  0.86010  0.76430  1.0000 0.1288918547
H   H22       1.0  0.90420  0.63990  0.37190  1.0000 0.1288918547
H   H23       1.0  0.76800  0.53230  0.12810  1.0000 0.1288918547
H   H24       1.0  0.59580  0.96770  0.73570  1.0000 0.1288918547
H   H25       1.0  0.28500  0.31200  0.12460  1.0000 0.1288918547
H   H26       1.0  0.68740  0.16040  0.37540  1.0000 0.1288918547
H   H27       1.0  0.81260  0.18800  0.47300  1.0000 0.1288918547
H   H28       1.0  0.21500  0.33960  0.02700  1.0000 0.1288918547
H   H29       1.0  0.12460  0.28500  0.31200  1.0000 0.1288918547
H   H30       1.0  0.37540  0.68740  0.16040  1.0000 0.1288918547
H   H31       1.0  0.47300  0.81260  0.18800  1.0000 0.1288918547
H   H32       1.0  0.02700  0.21500  0.33960  1.0000 0.1288918547
H   H33       1.0  0.31200  0.12460  0.28500  1.0000 0.1288918547
H   H34       1.0  0.16040  0.37540  0.68740  1.0000 0.1288918547
H   H35       1.0  0.18800  0.47300  0.81260  1.0000 0.1288918547
H   H36       1.0  0.33960  0.02700  0.21500  1.0000 0.1288918547
H   H37       1.0  0.71500  0.68800  0.87540  1.0000 0.1288918547
H   H38       1.0  0.31260  0.83960  0.62460  1.0000 0.1288918547
H   H39       1.0  0.18740  0.81200  0.52700  1.0000 0.1288918547
H   H40       1.0  0.78500  0.66040  0.97300  1.0000 0.1288918547
H   H41       1.0  0.87540  0.71500  0.68800  1.0000 0.1288918547
H   H42       1.0  0.62460  0.31260  0.83960  1.0000 0.1288918547
H   H43       1.0  0.52700  0.18740  0.81200  1.0000 0.1288918547
H   H44       1.0  0.97300  0.78500  0.66040  1.0000 0.1288918547
H   H45       1.0  0.68800  0.87540  0.71500  1.0000 0.1288918547
H   H46       1.0  0.83960  0.62460  0.31260  1.0000 0.1288918547
H   H47       1.0  0.81200  0.52700  0.18740  1.0000 0.1288918547
H   H48       1.0  0.66040  0.97300  0.78500  1.0000 0.1288918547
H   H49       1.0  0.26840  0.19470  0.02550  1.0000 0.1288918547
H   H50       1.0  0.66920  0.24290  0.47450  1.0000 0.1288918547
H   H51       1.0  0.83080  0.30530  0.57370  1.0000 0.1288918547
H   H52       1.0  0.23160  0.25710  0.92630  1.0000 0.1288918547
H   H53       1.0  0.02550  0.26840  0.19470  1.0000 0.1288918547
H   H54       1.0  0.47450  0.66920  0.24290  1.0000 0.1288918547
H   H55       1.0  0.57370  0.83080  0.30530  1.0000 0.1288918547
H   H56       1.0  0.92630  0.23160  0.25710  1.0000 0.1288918547
H   H57       1.0  0.19470  0.02550  0.26840  1.0000 0.1288918547
H   H58       1.0  0.24290  0.47450  0.66920  1.0000 0.1288918547
H   H59       1.0  0.30530  0.57370  0.83080  1.0000 0.1288918547
H   H60       1.0  0.25710  0.92630  0.23160  1.0000 0.1288918547
H   H61       1.0  0.73160  0.80530  0.97450  1.0000 0.1288918547
H   H62       1.0  0.33080  0.75710  0.52550  1.0000 0.1288918547
H   H63       1.0  0.16920  0.69470  0.42630  1.0000 0.1288918547
H   H64       1.0  0.76840  0.74290  0.07370  1.0000 0.1288918547
H   H65       1.0  0.97450  0.73160  0.80530  1.0000 0.1288918547
H   H66       1.0  0.52550  0.33080  0.75710  1.0000 0.1288918547
H   H67       1.0  0.42630  0.16920  0.69470  1.0000 0.1288918547
H   H68       1.0  0.07370  0.76840  0.74290  1.0000 0.1288918547
H   H69       1.0  0.80530  0.97450  0.73160  1.0000 0.1288918547
H   H70       1.0  0.75710  0.52550  0.33080  1.0000 0.1288918547
H   H71       1.0  0.69470  0.42630  0.16920  1.0000 0.1288918547
H   H72       1.0  0.74290  0.07370  0.76840  1.0000 0.1288918547
H   H73       1.0  0.21660  0.14900  0.04180  1.0000 0.1288918547
H   H74       1.0  0.60720  0.17480  0.45820  1.0000 0.1288918547
H   H75       1.0  0.89280  0.35100  0.56760  1.0000 0.1288918547
H   H76       1.0  0.28340  0.32520  0.93240  1.0000 0.1288918547
H   H77       1.0  0.04180  0.21660  0.14900  1.0000 0.1288918547
H   H78       1.0  0.45820  0.60720  0.17480  1.0000 0.1288918547
H   H79       1.0  0.56760  0.89280  0.35100  1.0000 0.1288918547
H   H80       1.0  0.93240  0.28340  0.32520  1.0000 0.1288918547
H   H81       1.0  0.14900  0.04180  0.21660  1.0000 0.1288918547
H   H82       1.0  0.17480  0.45820  0.60720  1.0000 0.1288918547
H   H83       1.0  0.35100  0.56760  0.89280  1.0000 0.1288918547
H   H84       1.0  0.32520  0.93240  0.28340  1.0000 0.1288918547
H   H85       1.0  0.78340  0.85100  0.95820  1.0000 0.1288918547
H   H86       1.0  0.39280  0.82520  0.54180  1.0000 0.1288918547
H   H87       1.0  0.10720  0.64900  0.43240  1.0000 0.1288918547
H   H88       1.0  0.71660  0.67480  0.06760  1.0000 0.1288918547
H   H89       1.0  0.95820  0.78340  0.85100  1.0000 0.1288918547
H   H90       1.0  0.54180  0.39280  0.82520  1.0000 0.1288918547
H   H91       1.0  0.43240  0.10720  0.64900  1.0000 0.1288918547
H   H92       1.0  0.06760  0.71660  0.67480  1.0000 0.1288918547
H   H93       1.0  0.85100  0.95820  0.78340  1.0000 0.1288918547
H   H94       1.0  0.82520  0.54180  0.39280  1.0000 0.1288918547
H   H95       1.0  0.64900  0.43240  0.10720  1.0000 0.1288918547
H   H96       1.0  0.67480  0.06760  0.71660  1.0000 0.1288918547
H   H97       1.0  0.40480  0.34360  0.99400  1.0000 0.1288918547
H   H98       1.0  0.84960  0.41080  0.50600  1.0000 0.1288918547
H   H99       1.0  0.65040  0.15640  0.56120  1.0000 0.1288918547
H   H100      1.0  0.09520  0.08920  0.93880  1.0000 0.1288918547
H   H101      1.0  0.99400  0.40480  0.34360  1.0000 0.1288918547
H   H102      1.0  0.50600  0.84960  0.41080  1.0000 0.1288918547
H   H103      1.0  0.56120  0.65040  0.15640  1.0000 0.1288918547
H   H104      1.0  0.93880  0.09520  0.08920  1.0000 0.1288918547
H   H105      1.0  0.34360  0.99400  0.40480  1.0000 0.1288918547
H   H106      1.0  0.41080  0.50600  0.84960  1.0000 0.1288918547
H   H107      1.0  0.15640  0.56120  0.65040  1.0000 0.1288918547
H   H108      1.0  0.08920  0.93880  0.09520  1.0000 0.1288918547
H   H109      1.0  0.59520  0.65640  0.00600  1.0000 0.1288918547
H   H110      1.0  0.15040  0.58920  0.49400  1.0000 0.1288918547
H   H111      1.0  0.34960  0.84360  0.43880  1.0000 0.1288918547
H   H112      1.0  0.90480  0.91080  0.06120  1.0000 0.1288918547
H   H113      1.0  0.00600  0.59520  0.65640  1.0000 0.1288918547
H   H114      1.0  0.49400  0.15040  0.58920  1.0000 0.1288918547
H   H115      1.0  0.43880  0.34960  0.84360  1.0000 0.1288918547
H   H116      1.0  0.06120  0.90480  0.91080  1.0000 0.1288918547
H   H117      1.0  0.65640  0.00600  0.59520  1.0000 0.1288918547
H   H118      1.0  0.58920  0.49400  0.15040  1.0000 0.1288918547
H   H119      1.0  0.84360  0.43880  0.34960  1.0000 0.1288918547
H   H120      1.0  0.91080  0.06120  0.90480  1.0000 0.1288918547
H   H121      1.0  0.36010  0.29310  0.01220  1.0000 0.1288918547
H   H122      1.0  0.78090  0.34790  0.48780  1.0000 0.1288918547
H   H123      1.0  0.71910  0.20690  0.56700  1.0000 0.1288918547
H   H124      1.0  0.13990  0.15210  0.93300  1.0000 0.1288918547
H   H125      1.0  0.01220  0.36010  0.29310  1.0000 0.1288918547
H   H126      1.0  0.48780  0.78090  0.34790  1.0000 0.1288918547
H   H127      1.0  0.56700  0.71910  0.20690  1.0000 0.1288918547
H   H128      1.0  0.93300  0.13990  0.15210  1.0000 0.1288918547
H   H129      1.0  0.29310  0.01220  0.36010  1.0000 0.1288918547
H   H130      1.0  0.34790  0.48780  0.78090  1.0000 0.1288918547
H   H131      1.0  0.20690  0.56700  0.71910  1.0000 0.1288918547
H   H132      1.0  0.15210  0.93300  0.13990  1.0000 0.1288918547
H   H133      1.0  0.63990  0.70690  0.98780  1.0000 0.1288918547
H   H134      1.0  0.21910  0.65210  0.51220  1.0000 0.1288918547
H   H135      1.0  0.28090  0.79310  0.43300  1.0000 0.1288918547
H   H136      1.0  0.86010  0.84790  0.06700  1.0000 0.1288918547
H   H137      1.0  0.98780  0.63990  0.70690  1.0000 0.1288918547
H   H138      1.0  0.51220  0.21910  0.65210  1.0000 0.1288918547
H   H139      1.0  0.43300  0.28090  0.79310  1.0000 0.1288918547
H   H140      1.0  0.06700  0.86010  0.84790  1.0000 0.1288918547
H   H141      1.0  0.70690  0.98780  0.63990  1.0000 0.1288918547
H   H142      1.0  0.65210  0.51220  0.21910  1.0000 0.1288918547
H   H143      1.0  0.79310  0.43300  0.28090  1.0000 0.1288918547
H   H144      1.0  0.84790  0.06700  0.86010  1.0000 0.1288918547
H   H145      1.0  0.36470  0.40520  0.10570  1.0000 0.1395345219
H   H146      1.0  0.79950  0.25900  0.39430  1.0000 0.1395345219
H   H147      1.0  0.70050  0.09480  0.45950  1.0000 0.1395345219
H   H148      1.0  0.13530  0.24100  0.04050  1.0000 0.1395345219
H   H149      1.0  0.10570  0.36470  0.40520  1.0000 0.1395345219
H   H150      1.0  0.39430  0.79950  0.25900  1.0000 0.1395345219
H   H151      1.0  0.45950  0.70050  0.09480  1.0000 0.1395345219
H   H152      1.0  0.04050  0.13530  0.24100  1.0000 0.1395345219
H   H153      1.0  0.40520  0.10570  0.36470  1.0000 0.1395345219
H   H154      1.0  0.25900  0.39430  0.79950  1.0000 0.1395345219
H   H155      1.0  0.09480  0.45950  0.70050  1.0000 0.1395345219
H   H156      1.0  0.24100  0.04050  0.13530  1.0000 0.1395345219
H   H157      1.0  0.63530  0.59480  0.89430  1.0000 0.1395345219
H   H158      1.0  0.20050  0.74100  0.60570  1.0000 0.1395345219
H   H159      1.0  0.29950  0.90520  0.54050  1.0000 0.1395345219
H   H160      1.0  0.86470  0.75900  0.95950  1.0000 0.1395345219
H   H161      1.0  0.89430  0.63530  0.59480  1.0000 0.1395345219
H   H162      1.0  0.60570  0.20050  0.74100  1.0000 0.1395345219
H   H163      1.0  0.54050  0.29950  0.90520  1.0000 0.1395345219
H   H164      1.0  0.95950  0.86470  0.75900  1.0000 0.1395345219
H   H165      1.0  0.59480  0.89430  0.63530  1.0000 0.1395345219
H   H166      1.0  0.74100  0.60570  0.20050  1.0000 0.1395345219
H   H167      1.0  0.90520  0.54050  0.29950  1.0000 0.1395345219
H   H168      1.0  0.75900  0.95950  0.86470  1.0000 0.1395345219
H   H169      1.0  0.40580  0.45350  0.08170  1.0000 0.1395345219
H   H170      1.0  0.87180  0.32410  0.41830  1.0000 0.1395345219
H   H171      1.0  0.62820  0.04650  0.45230  1.0000 0.1395345219
H   H172      1.0  0.09420  0.17590  0.04770  1.0000 0.1395345219
H   H173      1.0  0.08170  0.40580  0.45350  1.0000 0.1395345219
H   H174      1.0  0.41830  0.87180  0.32410  1.0000 0.1395345219
H   H175      1.0  0.45230  0.62820  0.04650  1.0000 0.1395345219
H   H176      1.0  0.04770  0.09420  0.17590  1.0000 0.1395345219
H   H177      1.0  0.45350  0.08170  0.40580  1.0000 0.1395345219
H   H178      1.0  0.32410  0.41830  0.87180  1.0000 0.1395345219
H   H179      1.0  0.04650  0.45230  0.62820  1.0000 0.1395345219
H   H180      1.0  0.17590  0.04770  0.09420  1.0000 0.1395345219
H   H181      1.0  0.59420  0.54650  0.91830  1.0000 0.1395345219
H   H182      1.0  0.12820  0.67590  0.58170  1.0000 0.1395345219
H   H183      1.0  0.37180  0.95350  0.54770  1.0000 0.1395345219
H   H184      1.0  0.90580  0.82410  0.95230  1.0000 0.1395345219
H   H185      1.0  0.91830  0.59420  0.54650  1.0000 0.1395345219
H   H186      1.0  0.58170  0.12820  0.67590  1.0000 0.1395345219
H   H187      1.0  0.54770  0.37180  0.95350  1.0000 0.1395345219
H   H188      1.0  0.95230  0.90580  0.82410  1.0000 0.1395345219
H   H189      1.0  0.54650  0.91830  0.59420  1.0000 0.1395345219
H   H190      1.0  0.67590  0.58170  0.12820  1.0000 0.1395345219
H   H191      1.0  0.95350  0.54770  0.37180  1.0000 0.1395345219
H   H192      1.0  0.82410  0.95230  0.90580  1.0000 0.1395345219
H   H193      1.0  0.31300  0.25890  0.03350  1.0000 0.250851983
H   H194      1.0  0.72540  0.27950  0.46650  1.0000 0.250851983
H   H195      1.0  0.77460  0.24110  0.55410  1.0000 0.250851983
H   H196      1.0  0.18700  0.22050  0.94590  1.0000 0.250851983
H   H197      1.0  0.03350  0.31300  0.25890  1.0000 0.250851983
H   H198      1.0  0.46650  0.72540  0.27950  1.0000 0.250851983
H   H199      1.0  0.55410  0.77460  0.24110  1.0000 0.250851983
H   H200      1.0  0.94590  0.18700  0.22050  1.0000 0.250851983
H   H201      1.0  0.25890  0.03350  0.31300  1.0000 0.250851983
H   H202      1.0  0.27950  0.46650  0.72540  1.0000 0.250851983
H   H203      1.0  0.24110  0.55410  0.77460  1.0000 0.250851983
H   H204      1.0  0.22050  0.94590  0.18700  1.0000 0.250851983
H   H205      1.0  0.68700  0.74110  0.96650  1.0000 0.250851983
H   H206      1.0  0.27460  0.72050  0.53350  1.0000 0.250851983
H   H207      1.0  0.22540  0.75890  0.44590  1.0000 0.250851983
H   H208      1.0  0.81300  0.77950  0.05410  1.0000 0.250851983
H   H209      1.0  0.96650  0.68700  0.74110  1.0000 0.250851983
H   H210      1.0  0.53350  0.27460  0.72050  1.0000 0.250851983
H   H211      1.0  0.44590  0.22540  0.75890  1.0000 0.250851983
H   H212      1.0  0.05410  0.81300  0.77950  1.0000 0.250851983
H   H213      1.0  0.74110  0.96650  0.68700  1.0000 0.250851983
H   H214      1.0  0.72050  0.53350  0.27460  1.0000 0.250851983
H   H215      1.0  0.75890  0.44590  0.22540  1.0000 0.250851983
H   H216      1.0  0.77950  0.05410  0.81300  1.0000 0.250851983
H   H217      1.0  0.32960  0.33810  0.09790  1.0000 0.250851983
H   H218      1.0  0.74020  0.23170  0.40210  1.0000 0.250851983
H   H219      1.0  0.75980  0.16190  0.49150  1.0000 0.250851983
H   H220      1.0  0.17040  0.26830  0.00850  1.0000 0.250851983
H   H221      1.0  0.09790  0.32960  0.33810  1.0000 0.250851983
H   H222      1.0  0.40210  0.74020  0.23170  1.0000 0.250851983
H   H223      1.0  0.49150  0.75980  0.16190  1.0000 0.250851983
H   H224      1.0  0.00850  0.17040  0.26830  1.0000 0.250851983
H   H225      1.0  0.33810  0.09790  0.32960  1.0000 0.250851983
H   H226      1.0  0.23170  0.40210  0.74020  1.0000 0.250851983
H   H227      1.0  0.16190  0.49150  0.75980  1.0000 0.250851983
H   H228      1.0  0.26830  0.00850  0.17040  1.0000 0.250851983
H   H229      1.0  0.67040  0.66190  0.90210  1.0000 0.250851983
H   H230      1.0  0.25980  0.76830  0.59790  1.0000 0.250851983
H   H231      1.0  0.24020  0.83810  0.50850  1.0000 0.250851983
H   H232      1.0  0.82960  0.73170  0.99150  1.0000 0.250851983
H   H233      1.0  0.90210  0.67040  0.66190  1.0000 0.250851983
H   H234      1.0  0.59790  0.25980  0.76830  1.0000 0.250851983
H   H235      1.0  0.50850  0.24020  0.83810  1.0000 0.250851983
H   H236      1.0  0.99150  0.82960  0.73170  1.0000 0.250851983
H   H237      1.0  0.66190  0.90210  0.67040  1.0000 0.250851983
H   H238      1.0  0.76830  0.59790  0.25980  1.0000 0.250851983
H   H239      1.0  0.83810  0.50850  0.24020  1.0000 0.250851983
H   H240      1.0  0.73170  0.99150  0.82960  1.0000 0.250851983
C   C1        1.0  0.18873  0.17499  0.10334  1.0000 0.5411255197
C   C2        1.0  0.57165  0.08539  0.39666  1.0000 0.5411255197
C   C3        1.0  0.92835  0.32501  0.51374  1.0000 0.5411255197
C   C4        1.0  0.31127  0.41461  0.98626  1.0000 0.5411255197
C   C5        1.0  0.10334  0.18873  0.17499  1.0000 0.5411255197
C   C6        1.0  0.39666  0.57165  0.08539  1.0000 0.5411255197
C   C7        1.0  0.51374  0.92835  0.32501  1.0000 0.5411255197
C   C8        1.0  0.98626  0.31127  0.41461  1.0000 0.5411255197
C   C9        1.0  0.17499  0.10334  0.18873  1.0000 0.5411255197
C   C10       1.0  0.08539  0.39666  0.57165  1.0000 0.5411255197
C   C11       1.0  0.32501  0.51374  0.92835  1.0000 0.5411255197
C   C12       1.0  0.41461  0.98626  0.31127  1.0000 0.5411255197
C   C13       1.0  0.81127  0.82501  0.89666  1.0000 0.5411255197
C   C14       1.0  0.42835  0.91461  0.60334  1.0000 0.5411255197
C   C15       1.0  0.07165  0.67499  0.48626  1.0000 0.5411255197
C   C16       1.0  0.68873  0.58539  0.01374  1.0000 0.5411255197
C   C17       1.0  0.89666  0.81127  0.82501  1.0000 0.5411255197
C   C18       1.0  0.60334  0.42835  0.91461  1.0000 0.5411255197
C   C19       1.0  0.48626  0.07165  0.67499  1.0000 0.5411255197
C   C20       1.0  0.01374  0.68873  0.58539  1.0000 0.5411255197
C   C21       1.0  0.82501  0.89666  0.81127  1.0000 0.5411255197
C   C22       1.0  0.91461  0.60334  0.42835  1.0000 0.5411255197
C   C23       1.0  0.67499  0.48626  0.07165  1.0000 0.5411255197
C   C24       1.0  0.58539  0.01374  0.68873  1.0000 0.5411255197
C   C25       1.0  0.22115  0.20387  0.09260  1.0000 -0.0503617288
C   C26       1.0  0.61127  0.12855  0.40740  1.0000 -0.0503617288
C   C27       1.0  0.88873  0.29613  0.51728  1.0000 -0.0503617288
C   C28       1.0  0.27885  0.37145  0.98272  1.0000 -0.0503617288
C   C29       1.0  0.09260  0.22115  0.20387  1.0000 -0.0503617288
C   C30       1.0  0.40740  0.61127  0.12855  1.0000 -0.0503617288
C   C31       1.0  0.51728  0.88873  0.29613  1.0000 -0.0503617288
C   C32       1.0  0.98272  0.27885  0.37145  1.0000 -0.0503617288
C   C33       1.0  0.20387  0.09260  0.22115  1.0000 -0.0503617288
C   C34       1.0  0.12855  0.40740  0.61127  1.0000 -0.0503617288
C   C35       1.0  0.29613  0.51728  0.88873  1.0000 -0.0503617288
C   C36       1.0  0.37145  0.98272  0.27885  1.0000 -0.0503617288
C   C37       1.0  0.77885  0.79613  0.90740  1.0000 -0.0503617288
C   C38       1.0  0.38873  0.87145  0.59260  1.0000 -0.0503617288
C   C39       1.0  0.11127  0.70387  0.48272  1.0000 -0.0503617288
C   C40       1.0  0.72115  0.62855  0.01728  1.0000 -0.0503617288
C   C41       1.0  0.90740  0.77885  0.79613  1.0000 -0.0503617288
C   C42       1.0  0.59260  0.38873  0.87145  1.0000 -0.0503617288
C   C43       1.0  0.48272  0.11127  0.70387  1.0000 -0.0503617288
C   C44       1.0  0.01728  0.72115  0.62855  1.0000 -0.0503617288
C   C45       1.0  0.79613  0.90740  0.77885  1.0000 -0.0503617288
C   C46       1.0  0.87145  0.59260  0.38873  1.0000 -0.0503617288
C   C47       1.0  0.70387  0.48272  0.11127  1.0000 -0.0503617288
C   C48       1.0  0.62855  0.01728  0.72115  1.0000 -0.0503617288
C   C49       1.0  0.24229  0.25334  0.11695  1.0000 -0.0695623912
C   C50       1.0  0.63639  0.12534  0.38305  1.0000 -0.0695623912
C   C51       1.0  0.86361  0.24666  0.48895  1.0000 -0.0695623912
C   C52       1.0  0.25771  0.37466  0.01105  1.0000 -0.0695623912
C   C53       1.0  0.11695  0.24229  0.25334  1.0000 -0.0695623912
C   C54       1.0  0.38305  0.63639  0.12534  1.0000 -0.0695623912
C   C55       1.0  0.48895  0.86361  0.24666  1.0000 -0.0695623912
C   C56       1.0  0.01105  0.25771  0.37466  1.0000 -0.0695623912
C   C57       1.0  0.25334  0.11695  0.24229  1.0000 -0.0695623912
C   C58       1.0  0.12534  0.38305  0.63639  1.0000 -0.0695623912
C   C59       1.0  0.24666  0.48895  0.86361  1.0000 -0.0695623912
C   C60       1.0  0.37466  0.01105  0.25771  1.0000 -0.0695623912
C   C61       1.0  0.75771  0.74666  0.88305  1.0000 -0.0695623912
C   C62       1.0  0.36361  0.87466  0.61695  1.0000 -0.0695623912
C   C63       1.0  0.13639  0.75334  0.51105  1.0000 -0.0695623912
C   C64       1.0  0.74229  0.62534  0.98895  1.0000 -0.0695623912
C   C65       1.0  0.88305  0.75771  0.74666  1.0000 -0.0695623912
C   C66       1.0  0.61695  0.36361  0.87466  1.0000 -0.0695623912
C   C67       1.0  0.51105  0.13639  0.75334  1.0000 -0.0695623912
C   C68       1.0  0.98895  0.74229  0.62534  1.0000 -0.0695623912
C   C69       1.0  0.74666  0.88305  0.75771  1.0000 -0.0695623912
C   C70       1.0  0.87466  0.61695  0.36361  1.0000 -0.0695623912
C   C71       1.0  0.75334  0.51105  0.13639  1.0000 -0.0695623912
C   C72       1.0  0.62534  0.98895  0.74229  1.0000 -0.0695623912
C   C73       1.0  0.27120  0.27915  0.10763  1.0000 -0.1923681846
C   C74       1.0  0.67152  0.16357  0.39237  1.0000 -0.1923681846
C   C75       1.0  0.82848  0.22085  0.49205  1.0000 -0.1923681846
C   C76       1.0  0.22880  0.33643  0.00795  1.0000 -0.1923681846
C   C77       1.0  0.10763  0.27120  0.27915  1.0000 -0.1923681846
C   C78       1.0  0.39237  0.67152  0.16357  1.0000 -0.1923681846
C   C79       1.0  0.49205  0.82848  0.22085  1.0000 -0.1923681846
C   C80       1.0  0.00795  0.22880  0.33643  1.0000 -0.1923681846
C   C81       1.0  0.27915  0.10763  0.27120  1.0000 -0.1923681846
C   C82       1.0  0.16357  0.39237  0.67152  1.0000 -0.1923681846
C   C83       1.0  0.22085  0.49205  0.82848  1.0000 -0.1923681846
C   C84       1.0  0.33643  0.00795  0.22880  1.0000 -0.1923681846
C   C85       1.0  0.72880  0.72085  0.89237  1.0000 -0.1923681846
C   C86       1.0  0.32848  0.83643  0.60763  1.0000 -0.1923681846
C   C87       1.0  0.17152  0.77915  0.50795  1.0000 -0.1923681846
C   C88       1.0  0.77120  0.66357  0.99205  1.0000 -0.1923681846
C   C89       1.0  0.89237  0.72880  0.72085  1.0000 -0.1923681846
C   C90       1.0  0.60763  0.32848  0.83643  1.0000 -0.1923681846
C   C91       1.0  0.50795  0.17152  0.77915  1.0000 -0.1923681846
C   C92       1.0  0.99205  0.77120  0.66357  1.0000 -0.1923681846
C   C93       1.0  0.72085  0.89237  0.72880  1.0000 -0.1923681846
C   C94       1.0  0.83643  0.60763  0.32848  1.0000 -0.1923681846
C   C95       1.0  0.77915  0.50795  0.17152  1.0000 -0.1923681846
C   C96       1.0  0.66357  0.99205  0.77120  1.0000 -0.1923681846
C   C97       1.0  0.28257  0.25895  0.07242  1.0000 0.1070648362
C   C98       1.0  0.68653  0.21015  0.42758  1.0000 0.1070648362
C   C99       1.0  0.81347  0.24105  0.52362  1.0000 0.1070648362
C   C100      1.0  0.21743  0.28985  0.97638  1.0000 0.1070648362
C   C101      1.0  0.07242  0.28257  0.25895  1.0000 0.1070648362
C   C102      1.0  0.42758  0.68653  0.21015  1.0000 0.1070648362
C   C103      1.0  0.52362  0.81347  0.24105  1.0000 0.1035153591
C   C104      1.0  0.97638  0.21743  0.28985  1.0000 0.1035153591
C   C105      1.0  0.25895  0.07242  0.28257  1.0000 0.1070648362
C   C106      1.0  0.21015  0.42758  0.68653  1.0000 0.1070648362
C   C107      1.0  0.24105  0.52362  0.81347  1.0000 0.1070648362
C   C108      1.0  0.28985  0.97638  0.21743  1.0000 0.1070648362
C   C109      1.0  0.71743  0.74105  0.92758  1.0000 0.1070648362
C   C110      1.0  0.31347  0.78985  0.57242  1.0000 0.1070648362
C   C111      1.0  0.18653  0.75895  0.47638  1.0000 0.1070648362
C   C112      1.0  0.78257  0.71015  0.02362  1.0000 0.1035153591
C   C113      1.0  0.92758  0.71743  0.74105  1.0000 0.1035153591
C   C114      1.0  0.57242  0.31347  0.78985  1.0000 0.1070648362
C   C115      1.0  0.47638  0.18653  0.75895  1.0000 0.1070648362
C   C116      1.0  0.02362  0.78257  0.71015  1.0000 0.1070648362
C   C117      1.0  0.74105  0.92758  0.71743  1.0000 0.1070648362
C   C118      1.0  0.78985  0.57242  0.31347  1.0000 0.1070648362
C   C119      1.0  0.75895  0.47638  0.18653  1.0000 0.1070648362
C   C120      1.0  0.71015  0.02362  0.78257  1.0000 0.1070648362
C   C121      1.0  0.26159  0.20933  0.04830  1.0000 -0.2455583245
C   C122      1.0  0.66103  0.21329  0.45170  1.0000 -0.2455583245
C   C123      1.0  0.83897  0.29067  0.55226  1.0000 -0.2455583245
C   C124      1.0  0.23841  0.28671  0.94774  1.0000 -0.2455583245
C   C125      1.0  0.04830  0.26159  0.20933  1.0000 -0.2455583245
C   C126      1.0  0.45170  0.66103  0.21329  1.0000 -0.2455583245
C   C127      1.0  0.55226  0.83897  0.29067  1.0000 -0.2455583245
C   C128      1.0  0.94774  0.23841  0.28671  1.0000 -0.2455583245
C   C129      1.0  0.20933  0.04830  0.26159  1.0000 -0.2455583245
C   C130      1.0  0.21329  0.45170  0.66103  1.0000 -0.2455583245
C   C131      1.0  0.29067  0.55226  0.83897  1.0000 -0.2455583245
C   C132      1.0  0.28671  0.94774  0.23841  1.0000 -0.2455583245
C   C133      1.0  0.73841  0.79067  0.95170  1.0000 -0.2455583245
C   C134      1.0  0.33897  0.78671  0.54830  1.0000 -0.2455583245
C   C135      1.0  0.16103  0.70933  0.44774  1.0000 -0.2455583245
C   C136      1.0  0.76159  0.71329  0.05226  1.0000 -0.2397839441
C   C137      1.0  0.95170  0.73841  0.79067  1.0000 -0.2455583245
C   C138      1.0  0.54830  0.33897  0.78671  1.0000 -0.2455583245
C   C139      1.0  0.44774  0.16103  0.70933  1.0000 -0.2455583245
C   C140      1.0  0.05226  0.76159  0.71329  1.0000 -0.2455583245
C   C141      1.0  0.79067  0.95170  0.73841  1.0000 -0.2455583245
C   C142      1.0  0.78671  0.54830  0.33897  1.0000 -0.2455583245
C   C143      1.0  0.70933  0.44774  0.16103  1.0000 -0.2455583245
C   C144      1.0  0.71329  0.05226  0.76159  1.0000 -0.2455583245
C   C145      1.0  0.23078  0.18190  0.05816  1.0000 -0.0695623912
C   C146      1.0  0.62374  0.17262  0.44184  1.0000 -0.0695623912
C   C147      1.0  0.87626  0.31810  0.54888  1.0000 -0.0695623912
C   C148      1.0  0.26922  0.32738  0.95112  1.0000 -0.0695623912
C   C149      1.0  0.05816  0.23078  0.18190  1.0000 -0.0695623912
C   C150      1.0  0.44184  0.62374  0.17262  1.0000 -0.0695623912
C   C151      1.0  0.54888  0.87626  0.31810  1.0000 -0.0695623912
C   C152      1.0  0.95112  0.26922  0.32738  1.0000 -0.0695623912
C   C153      1.0  0.18190  0.05816  0.23078  1.0000 -0.0695623912
C   C154      1.0  0.17262  0.44184  0.62374  1.0000 -0.0695623912
C   C155      1.0  0.31810  0.54888  0.87626  1.0000 -0.0695623912
C   C156      1.0  0.32738  0.95112  0.26922  1.0000 -0.0695623912
C   C157      1.0  0.76922  0.81810  0.94184  1.0000 -0.0695623912
C   C158      1.0  0.37626  0.82738  0.55816  1.0000 -0.0695623912
C   C159      1.0  0.12374  0.68190  0.45112  1.0000 -0.0695623912
C   C160      1.0  0.73078  0.67262  0.04888  1.0000 -0.0695623912
C   C161      1.0  0.94184  0.76922  0.81810  1.0000 -0.0695623912
C   C162      1.0  0.55816  0.37626  0.82738  1.0000 -0.0695623912
C   C163      1.0  0.45112  0.12374  0.68190  1.0000 -0.0695623912
C   C164      1.0  0.04888  0.73078  0.67262  1.0000 -0.0695623912
C   C165      1.0  0.81810  0.94184  0.76922  1.0000 -0.0695623912
C   C166      1.0  0.82738  0.55816  0.37626  1.0000 -0.0695623912
C   C167      1.0  0.68190  0.45112  0.12374  1.0000 -0.0695623912
C   C168      1.0  0.67262  0.04888  0.73078  1.0000 -0.0695623912
C   C169      1.0  0.43511  0.43340  0.02147  1.0000 0.5952581377
C   C170      1.0  0.91193  0.41364  0.47853  1.0000 0.5947786698
C   C171      1.0  0.58807  0.06660  0.50171  1.0000 0.5947786698
C   C172      1.0  0.06489  0.08636  0.99829  1.0000 0.5947786698
C   C173      1.0  0.02147  0.43511  0.43340  1.0000 0.5947786698
C   C174      1.0  0.47853  0.91193  0.41364  1.0000 0.5947786698
C   C175      1.0  0.50171  0.58807  0.06660  1.0000 0.5947786698
C   C176      1.0  0.99829  0.06489  0.08636  1.0000 0.5947786698
C   C177      1.0  0.43340  0.02147  0.43511  1.0000 0.5947786698
C   C178      1.0  0.41364  0.47853  0.91193  1.0000 0.5947786698
C   C179      1.0  0.06660  0.50171  0.58807  1.0000 0.5947786698
C   C180      1.0  0.08636  0.99829  0.06489  1.0000 0.5952581377
C   C181      1.0  0.56489  0.56660  0.97853  1.0000 0.5947786698
C   C182      1.0  0.08807  0.58636  0.52147  1.0000 0.5947786698
C   C183      1.0  0.41193  0.93340  0.49829  1.0000 0.5947786698
C   C184      1.0  0.93511  0.91364  0.00171  1.0000 0.5947786698
C   C185      1.0  0.97853  0.56489  0.56660  1.0000 0.5947786698
C   C186      1.0  0.52147  0.08807  0.58636  1.0000 0.5947786698
C   C187      1.0  0.49829  0.41193  0.93340  1.0000 0.5947786698
C   C188      1.0  0.00171  0.93511  0.91364  1.0000 0.5947786698
C   C189      1.0  0.56660  0.97853  0.56489  1.0000 0.5947786698
C   C190      1.0  0.58636  0.52147  0.08807  1.0000 0.5947786698
C   C191      1.0  0.93340  0.49829  0.41193  1.0000 0.5947786698
C   C192      1.0  0.91364  0.00171  0.93511  1.0000 0.5947786698
C   C193      1.0  0.41082  0.40366  0.03740  1.0000 -0.0426286896
C   C194      1.0  0.86626  0.37342  0.46260  1.0000 -0.0426286896
C   C195      1.0  0.63374  0.09634  0.50716  1.0000 -0.0426286896
C   C196      1.0  0.08918  0.12658  0.99284  1.0000 -0.0426286896
C   C197      1.0  0.03740  0.41082  0.40366  1.0000 -0.0426286896
C   C198      1.0  0.46260  0.86626  0.37342  1.0000 -0.0426286896
C   C199      1.0  0.50716  0.63374  0.09634  1.0000 -0.0426286896
C   C200      1.0  0.99284  0.08918  0.12658  1.0000 -0.0426286896
C   C201      1.0  0.40366  0.03740  0.41082  1.0000 -0.0426286896
C   C202      1.0  0.37342  0.46260  0.86626  1.0000 -0.0426286896
C   C203      1.0  0.09634  0.50716  0.63374  1.0000 -0.0426286896
C   C204      1.0  0.12658  0.99284  0.08918  1.0000 -0.0426286896
C   C205      1.0  0.58918  0.59634  0.96260  1.0000 -0.0426286896
C   C206      1.0  0.13374  0.62658  0.53740  1.0000 -0.0426286896
C   C207      1.0  0.36626  0.90366  0.49284  1.0000 -0.0426286896
C   C208      1.0  0.91082  0.87342  0.00716  1.0000 -0.0426286896
C   C209      1.0  0.96260  0.58918  0.59634  1.0000 -0.0426286896
C   C210      1.0  0.53740  0.13374  0.62658  1.0000 -0.0426286896
C   C211      1.0  0.49284  0.36626  0.90366  1.0000 -0.0426286896
C   C212      1.0  0.00716  0.91082  0.87342  1.0000 -0.0426286896
C   C213      1.0  0.59634  0.96260  0.58918  1.0000 -0.0426286896
C   C214      1.0  0.62658  0.53740  0.13374  1.0000 -0.0426286896
C   C215      1.0  0.90366  0.49284  0.36626  1.0000 -0.0426286896
C   C216      1.0  0.87342  0.00716  0.91082  1.0000 -0.0426286896
C   C217      1.0  0.39641  0.35574  0.01623  1.0000 -0.0503617288
C   C218      1.0  0.83951  0.38018  0.48377  1.0000 -0.0503617288
C   C219      1.0  0.66049  0.14426  0.54067  1.0000 -0.0552390293
C   C220      1.0  0.10359  0.11982  0.95933  1.0000 -0.0552390293
C   C221      1.0  0.01623  0.39641  0.35574  1.0000 -0.0503617288
C   C222      1.0  0.48377  0.83951  0.38018  1.0000 -0.0552390293
C   C223      1.0  0.54067  0.66049  0.14426  1.0000 -0.0503617288
C   C224      1.0  0.95933  0.10359  0.11982  1.0000 -0.0552390293
C   C225      1.0  0.35574  0.01623  0.39641  1.0000 -0.0552390293
C   C226      1.0  0.38018  0.48377  0.83951  1.0000 -0.0503617288
C   C227      1.0  0.14426  0.54067  0.66049  1.0000 -0.0503617288
C   C228      1.0  0.11982  0.95933  0.10359  1.0000 -0.0552390293
C   C229      1.0  0.60359  0.64426  0.98377  1.0000 -0.0552390293
C   C230      1.0  0.16049  0.61982  0.51623  1.0000 -0.0503617288
C   C231      1.0  0.33951  0.85574  0.45933  1.0000 -0.0552390293
C   C232      1.0  0.89641  0.88018  0.04067  1.0000 -0.0552390293
C   C233      1.0  0.98377  0.60359  0.64426  1.0000 -0.0503617288
C   C234      1.0  0.51623  0.16049  0.61982  1.0000 -0.0552390293
C   C235      1.0  0.45933  0.33951  0.85574  1.0000 -0.0503617288
C   C236      1.0  0.04067  0.89641  0.88018  1.0000 -0.0503617288
C   C237      1.0  0.64426  0.98377  0.60359  1.0000 -0.0552390293
C   C238      1.0  0.61982  0.51623  0.16049  1.0000 -0.0552390293
C   C239      1.0  0.85574  0.45933  0.33951  1.0000 -0.0552390293
C   C240      1.0  0.88018  0.04067  0.89641  1.0000 -0.0552390293
C   C241      1.0  0.37007  0.32541  0.02678  1.0000 -0.2010861823
C   C242      1.0  0.79863  0.34329  0.47322  1.0000 -0.2010861823
C   C243      1.0  0.70137  0.17459  0.54466  1.0000 -0.2010861823
C   C244      1.0  0.12993  0.15671  0.95534  1.0000 -0.2010861823
C   C245      1.0  0.02678  0.37007  0.32541  1.0000 -0.2010861823
C   C246      1.0  0.47322  0.79863  0.34329  1.0000 -0.2010861823
C   C247      1.0  0.54466  0.70137  0.17459  1.0000 -0.2010861823
C   C248      1.0  0.95534  0.12993  0.15671  1.0000 -0.2010861823
C   C249      1.0  0.32541  0.02678  0.37007  1.0000 -0.2010861823
C   C250      1.0  0.34329  0.47322  0.79863  1.0000 -0.2010861823
C   C251      1.0  0.17459  0.54466  0.70137  1.0000 -0.2010861823
C   C252      1.0  0.15671  0.95534  0.12993  1.0000 -0.2010861823
C   C253      1.0  0.62993  0.67459  0.97322  1.0000 -0.2010861823
C   C254      1.0  0.20137  0.65671  0.52678  1.0000 -0.2010861823
C   C255      1.0  0.29863  0.82541  0.45534  1.0000 -0.2010861823
C   C256      1.0  0.87007  0.84329  0.04466  1.0000 -0.2010861823
C   C257      1.0  0.97322  0.62993  0.67459  1.0000 -0.2010861823
C   C258      1.0  0.52678  0.20137  0.65671  1.0000 -0.2010861823
C   C259      1.0  0.45534  0.29863  0.82541  1.0000 -0.2010861823
C   C260      1.0  0.04466  0.87007  0.84329  1.0000 -0.2010861823
C   C261      1.0  0.67459  0.97322  0.62993  1.0000 -0.2010861823
C   C262      1.0  0.65671  0.52678  0.20137  1.0000 -0.2010861823
C   C263      1.0  0.82541  0.45534  0.29863  1.0000 -0.2010861823
C   C264      1.0  0.84329  0.04466  0.87007  1.0000 -0.2010861823
C   C265      1.0  0.35954  0.34609  0.06039  1.0000 0.1395345219
C   C266      1.0  0.78570  0.29915  0.43961  1.0000 0.1395345219
C   C267      1.0  0.71430  0.15391  0.51345  1.0000 0.1395345219
C   C268      1.0  0.14046  0.20085  0.98655  1.0000 0.1395345219
C   C269      1.0  0.06039  0.35954  0.34609  1.0000 0.1395345219
C   C270      1.0  0.43961  0.78570  0.29915  1.0000 0.1395345219
C   C271      1.0  0.51345  0.71430  0.15391  1.0000 0.1395345219
C   C272      1.0  0.98655  0.14046  0.20085  1.0000 0.1395345219
C   C273      1.0  0.34609  0.06039  0.35954  1.0000 0.1395345219
C   C274      1.0  0.29915  0.43961  0.78570  1.0000 0.1395345219
C   C275      1.0  0.15391  0.51345  0.71430  1.0000 0.1395345219
C   C276      1.0  0.20085  0.98655  0.14046  1.0000 0.1395345219
C   C277      1.0  0.64046  0.65391  0.93961  1.0000 0.1395345219
C   C278      1.0  0.21430  0.70085  0.56039  1.0000 0.1395345219
C   C279      1.0  0.28570  0.84609  0.48655  1.0000 0.1395345219
C   C280      1.0  0.85954  0.79915  0.01345  1.0000 0.1395345219
C   C281      1.0  0.93961  0.64046  0.65391  1.0000 0.1395345219
C   C282      1.0  0.56039  0.21430  0.70085  1.0000 0.1395345219
C   C283      1.0  0.48655  0.28570  0.84609  1.0000 0.1395345219
C   C284      1.0  0.01345  0.85954  0.79915  1.0000 0.1395345219
C   C285      1.0  0.65391  0.93961  0.64046  1.0000 0.1395345219
C   C286      1.0  0.70085  0.56039  0.21430  1.0000 0.1395345219
C   C287      1.0  0.84609  0.48655  0.28570  1.0000 0.1395345219
C   C288      1.0  0.79915  0.01345  0.85954  1.0000 0.1395345219
C   C289      1.0  0.37235  0.39300  0.08279  1.0000 -0.2338590322
C   C290      1.0  0.81021  0.28956  0.41721  1.0000 -0.2338590322
C   C291      1.0  0.68979  0.10700  0.47935  1.0000 -0.2338590322
C   C292      1.0  0.12765  0.21044  0.02065  1.0000 -0.2338590322
C   C293      1.0  0.08279  0.37235  0.39300  1.0000 -0.2338590322
C   C294      1.0  0.41721  0.81021  0.28956  1.0000 -0.2338590322
C   C295      1.0  0.47935  0.68979  0.10700  1.0000 -0.2338590322
C   C296      1.0  0.02065  0.12765  0.21044  1.0000 -0.2338590322
C   C297      1.0  0.39300  0.08279  0.37235  1.0000 -0.2338590322
C   C298      1.0  0.28956  0.41721  0.81021  1.0000 -0.2338590322
C   C299      1.0  0.10700  0.47935  0.68979  1.0000 -0.2338590322
C   C300      1.0  0.21044  0.02065  0.12765  1.0000 -0.2338590322
C   C301      1.0  0.62765  0.60700  0.91721  1.0000 -0.2338590322
C   C302      1.0  0.18979  0.71044  0.58279  1.0000 -0.2338590322
C   C303      1.0  0.31021  0.89300  0.52065  1.0000 -0.2338590322
C   C304      1.0  0.87235  0.78956  0.97935  1.0000 -0.2397839441
C   C305      1.0  0.91721  0.62765  0.60700  1.0000 -0.2338590322
C   C306      1.0  0.58279  0.18979  0.71044  1.0000 -0.2338590322
C   C307      1.0  0.52065  0.31021  0.89300  1.0000 -0.2338590322
C   C308      1.0  0.97935  0.87235  0.78956  1.0000 -0.2338590322
C   C309      1.0  0.60700  0.91721  0.62765  1.0000 -0.2338590322
C   C310      1.0  0.71044  0.58279  0.18979  1.0000 -0.2338590322
C   C311      1.0  0.89300  0.52065  0.31021  1.0000 -0.2338590322
C   C312      1.0  0.78956  0.97935  0.87235  1.0000 -0.2338590322
C   C313      1.0  0.39785  0.42178  0.06899  1.0000 -0.0503617288
C   C314      1.0  0.85279  0.32886  0.43101  1.0000 -0.0503617288
C   C315      1.0  0.64721  0.07822  0.47607  1.0000 -0.0503617288
C   C316      1.0  0.10215  0.17114  0.02393  1.0000 -0.0503617288
C   C317      1.0  0.06899  0.39785  0.42178  1.0000 -0.0503617288
C   C318      1.0  0.43101  0.85279  0.32886  1.0000 -0.0503617288
C   C319      1.0  0.47607  0.64721  0.07822  1.0000 -0.0503617288
C   C320      1.0  0.02393  0.10215  0.17114  1.0000 -0.0503617288
C   C321      1.0  0.42178  0.06899  0.39785  1.0000 -0.0503617288
C   C322      1.0  0.32886  0.43101  0.85279  1.0000 -0.0503617288
C   C323      1.0  0.07822  0.47607  0.64721  1.0000 -0.0503617288
C   C324      1.0  0.17114  0.02393  0.10215  1.0000 -0.0503617288
C   C325      1.0  0.60215  0.57822  0.93101  1.0000 -0.0503617288
C   C326      1.0  0.14721  0.67114  0.56899  1.0000 -0.0503617288
C   C327      1.0  0.35279  0.92178  0.52393  1.0000 -0.0503617288
C   C328      1.0  0.89785  0.82886  0.97607  1.0000 -0.0503617288
C   C329      1.0  0.93101  0.60215  0.57822  1.0000 -0.0503617288
C   C330      1.0  0.56899  0.14721  0.67114  1.0000 -0.0503617288
C   C331      1.0  0.52393  0.35279  0.92178  1.0000 -0.0503617288
C   C332      1.0  0.97607  0.89785  0.82886  1.0000 -0.0503617288
C   C333      1.0  0.57822  0.93101  0.60215  1.0000 -0.0503617288
C   C334      1.0  0.67114  0.56899  0.14721  1.0000 -0.0503617288
C   C335      1.0  0.92178  0.52393  0.35279  1.0000 -0.0503617288
C   C336      1.0  0.82886  0.97607  0.89785  1.0000 -0.0503617288
N   N1        1.0  0.31034  0.27682  0.05560  1.0000 -0.1809192512
N   N2        1.0  0.72122  0.25474  0.44440  1.0000 -0.1809192512
N   N3        1.0  0.77878  0.22318  0.53352  1.0000 -0.1809192512
N   N4        1.0  0.18966  0.24526  0.96648  1.0000 -0.1809192512
N   N5        1.0  0.05560  0.31034  0.27682  1.0000 -0.1809192512
N   N6        1.0  0.44440  0.72122  0.25474  1.0000 -0.1809192512
N   N7        1.0  0.53352  0.77878  0.22318  1.0000 -0.1809192512
N   N8        1.0  0.96648  0.18966  0.24526  1.0000 -0.1809192512
N   N9        1.0  0.27682  0.05560  0.31034  1.0000 -0.1809192512
N   N10       1.0  0.25474  0.44440  0.72122  1.0000 -0.1809192512
N   N11       1.0  0.22318  0.53352  0.77878  1.0000 -0.1809192512
N   N12       1.0  0.24526  0.96648  0.18966  1.0000 -0.1809192512
N   N13       1.0  0.68966  0.72318  0.94440  1.0000 -0.1809192512
N   N14       1.0  0.27878  0.74526  0.55560  1.0000 -0.1809192512
N   N15       1.0  0.22122  0.77682  0.46648  1.0000 -0.1809192512
N   N16       1.0  0.81034  0.75474  0.03352  1.0000 -0.1809192512
N   N17       1.0  0.94440  0.68966  0.72318  1.0000 -0.1809192512
N   N18       1.0  0.55560  0.27878  0.74526  1.0000 -0.1809192512
N   N19       1.0  0.46648  0.22122  0.77682  1.0000 -0.1809192512
N   N20       1.0  0.03352  0.81034  0.75474  1.0000 -0.1809192512
N   N21       1.0  0.72318  0.94440  0.68966  1.0000 -0.1809192512
N   N22       1.0  0.74526  0.55560  0.27878  1.0000 -0.1809192512
N   N23       1.0  0.77682  0.46648  0.22122  1.0000 -0.1809192512
N   N24       1.0  0.75474  0.03352  0.81034  1.0000 -0.1809192512
N   N25       1.0  0.33218  0.32193  0.07477  1.0000 -0.136609876
N   N26       1.0  0.74716  0.25741  0.42523  1.0000 -0.136609876
N   N27       1.0  0.75284  0.17807  0.51025  1.0000 -0.1343729568
N   N28       1.0  0.16782  0.24259  0.98975  1.0000 -0.1343729568
N   N29       1.0  0.07477  0.33218  0.32193  1.0000 -0.1343729568
N   N30       1.0  0.42523  0.74716  0.25741  1.0000 -0.1343729568
N   N31       1.0  0.51025  0.75284  0.17807  1.0000 -0.1343729568
N   N32       1.0  0.98975  0.16782  0.24259  1.0000 -0.136609876
N   N33       1.0  0.32193  0.07477  0.33218  1.0000 -0.136609876
N   N34       1.0  0.25741  0.42523  0.74716  1.0000 -0.136609876
N   N35       1.0  0.17807  0.51025  0.75284  1.0000 -0.136609876
N   N36       1.0  0.24259  0.98975  0.16782  1.0000 -0.136609876
N   N37       1.0  0.66782  0.67807  0.92523  1.0000 -0.136609876
N   N38       1.0  0.25284  0.74259  0.57477  1.0000 -0.1343729568
N   N39       1.0  0.24716  0.82193  0.48975  1.0000 -0.136609876
N   N40       1.0  0.83218  0.75741  0.01025  1.0000 -0.1343729568
N   N41       1.0  0.92523  0.66782  0.67807  1.0000 -0.136609876
N   N42       1.0  0.57477  0.25284  0.74259  1.0000 -0.136609876
N   N43       1.0  0.48975  0.24716  0.82193  1.0000 -0.136609876
N   N44       1.0  0.01025  0.83218  0.75741  1.0000 -0.136609876
N   N45       1.0  0.67807  0.92523  0.66782  1.0000 -0.136609876
N   N46       1.0  0.74259  0.57477  0.25284  1.0000 -0.1343729568
N   N47       1.0  0.82193  0.48975  0.24716  1.0000 -0.1343729568
N   N48       1.0  0.75741  0.01025  0.83218  1.0000 -0.136609876
O   O1        1.0  0.45207  0.41841  0.99622  1.0000 -0.5430928557
O   O2        1.0  0.92219  0.45585  0.50378  1.0000 -0.5430928557
O   O3        1.0  0.57781  0.08159  0.53366  1.0000 -0.5430928557
O   O4        1.0  0.04793  0.04415  0.96634  1.0000 -0.5430928557
O   O5        1.0  0.99622  0.45207  0.41841  1.0000 -0.5430928557
O   O6        1.0  0.50378  0.92219  0.45585  1.0000 -0.5430928557
O   O7        1.0  0.53366  0.57781  0.08159  1.0000 -0.5430928557
O   O8        1.0  0.96634  0.04793  0.04415  1.0000 -0.5430928557
O   O9        1.0  0.41841  0.99622  0.45207  1.0000 -0.5430928557
O   O10       1.0  0.45585  0.50378  0.92219  1.0000 -0.5430928557
O   O11       1.0  0.08159  0.53366  0.57781  1.0000 -0.5430928557
O   O12       1.0  0.04415  0.96634  0.04793  1.0000 -0.5430928557
O   O13       1.0  0.54793  0.58159  0.00378  1.0000 -0.5430928557
O   O14       1.0  0.07781  0.54415  0.49622  1.0000 -0.5430928557
O   O15       1.0  0.42219  0.91841  0.46634  1.0000 -0.5430928557
O   O16       1.0  0.95207  0.95585  0.03366  1.0000 -0.5430928557
O   O17       1.0  0.00378  0.54793  0.58159  1.0000 -0.5430928557
O   O18       1.0  0.49622  0.07781  0.54415  1.0000 -0.5430928557
O   O19       1.0  0.46634  0.42219  0.91841  1.0000 -0.5430928557
O   O20       1.0  0.03366  0.95207  0.95585  1.0000 -0.5430928557
O   O21       1.0  0.58159  0.00378  0.54793  1.0000 -0.5430928557
O   O22       1.0  0.54415  0.49622  0.07781  1.0000 -0.5430928557
O   O23       1.0  0.91841  0.46634  0.42219  1.0000 -0.5430928557
O   O24       1.0  0.95585  0.03366  0.95207  1.0000 -0.5430928557
O   O25       1.0  0.43921  0.47404  0.03383  1.0000 -0.6472973167
O   O26       1.0  0.94021  0.40538  0.46617  1.0000 -0.6472973167
O   O27       1.0  0.55979  0.02596  0.46517  1.0000 -0.6472973167
O   O28       1.0  0.06079  0.09462  0.03483  1.0000 -0.6472973167
O   O29       1.0  0.03383  0.43921  0.47404  1.0000 -0.6472973167
O   O30       1.0  0.46617  0.94021  0.40538  1.0000 -0.6472973167
O   O31       1.0  0.46517  0.55979  0.02596  1.0000 -0.6472973167
O   O32       1.0  0.03483  0.06079  0.09462  1.0000 -0.6472973167
O   O33       1.0  0.47404  0.03383  0.43921  1.0000 -0.6472973167
O   O34       1.0  0.40538  0.46617  0.94021  1.0000 -0.6472973167
O   O35       1.0  0.02596  0.46517  0.55979  1.0000 -0.6472973167
O   O36       1.0  0.09462  0.03483  0.06079  1.0000 -0.6472973167
O   O37       1.0  0.56079  0.52596  0.96617  1.0000 -0.6472973167
O   O38       1.0  0.05979  0.59462  0.53383  1.0000 -0.6472973167
O   O39       1.0  0.44021  0.97404  0.53483  1.0000 -0.6472973167
O   O40       1.0  0.93921  0.90538  0.96517  1.0000 -0.6472973167
O   O41       1.0  0.96617  0.56079  0.52596  1.0000 -0.6472973167
O   O42       1.0  0.53383  0.05979  0.59462  1.0000 -0.6472973167
O   O43       1.0  0.53483  0.44021  0.97404  1.0000 -0.6472973167
O   O44       1.0  0.96517  0.93921  0.90538  1.0000 -0.6472973167
O   O45       1.0  0.52596  0.96617  0.56079  1.0000 -0.6472973167
O   O46       1.0  0.59462  0.53383  0.05979  1.0000 -0.6472973167
O   O47       1.0  0.97404  0.53483  0.44021  1.0000 -0.6472973167
O   O48       1.0  0.90538  0.96517  0.93921  1.0000 -0.6472973167
O   O49       1.0  0.16958  0.12912  0.07996  1.0000 -0.6072655235
O   O50       1.0  0.54916  0.08962  0.42004  1.0000 -0.6072655235
O   O51       1.0  0.95084  0.37088  0.54046  1.0000 -0.6072655235
O   O52       1.0  0.33042  0.41038  0.95954  1.0000 -0.6072655235
O   O53       1.0  0.07996  0.16958  0.12912  1.0000 -0.6072655235
O   O54       1.0  0.42004  0.54916  0.08962  1.0000 -0.6072655235
O   O55       1.0  0.54046  0.95084  0.37088  1.0000 -0.6072655235
O   O56       1.0  0.95954  0.33042  0.41038  1.0000 -0.6072655235
O   O57       1.0  0.12912  0.07996  0.16958  1.0000 -0.6072655235
O   O58       1.0  0.08962  0.42004  0.54916  1.0000 -0.6072655235
O   O59       1.0  0.37088  0.54046  0.95084  1.0000 -0.6072655235
O   O60       1.0  0.41038  0.95954  0.33042  1.0000 -0.6072655235
O   O61       1.0  0.83042  0.87088  0.92004  1.0000 -0.6072655235
O   O62       1.0  0.45084  0.91038  0.57996  1.0000 -0.6072655235
O   O63       1.0  0.04916  0.62912  0.45954  1.0000 -0.6072655235
O   O64       1.0  0.66958  0.58962  0.04046  1.0000 -0.6072655235
O   O65       1.0  0.92004  0.83042  0.87088  1.0000 -0.6072655235
O   O66       1.0  0.57996  0.45084  0.91038  1.0000 -0.6072655235
O   O67       1.0  0.45954  0.04916  0.62912  1.0000 -0.6072655235
O   O68       1.0  0.04046  0.66958  0.58962  1.0000 -0.6072655235
O   O69       1.0  0.87088  0.92004  0.83042  1.0000 -0.6072655235
O   O70       1.0  0.91038  0.57996  0.45084  1.0000 -0.6072655235
O   O71       1.0  0.62912  0.45954  0.04916  1.0000 -0.6072655235
O   O72       1.0  0.58962  0.04046  0.66958  1.0000 -0.6072655235
O   O73       1.0  0.17719  0.19446  0.13079  1.0000 -0.5460591703
O   O74       1.0  0.56367  0.04640  0.36921  1.0000 -0.5460591703
O   O75       1.0  0.93633  0.30554  0.48273  1.0000 -0.5460591703
O   O76       1.0  0.32281  0.45360  0.01727  1.0000 -0.5460591703
O   O77       1.0  0.13079  0.17719  0.19446  1.0000 -0.5460591703
O   O78       1.0  0.36921  0.56367  0.04640  1.0000 -0.5460591703
O   O79       1.0  0.48273  0.93633  0.30554  1.0000 -0.5460591703
O   O80       1.0  0.01727  0.32281  0.45360  1.0000 -0.5460591703
O   O81       1.0  0.19446  0.13079  0.17719  1.0000 -0.5460591703
O   O82       1.0  0.04640  0.36921  0.56367  1.0000 -0.5460591703
O   O83       1.0  0.30554  0.48273  0.93633  1.0000 -0.5460591703
O   O84       1.0  0.45360  0.01727  0.32281  1.0000 -0.5460591703
O   O85       1.0  0.82281  0.80554  0.86921  1.0000 -0.5460591703
O   O86       1.0  0.43633  0.95360  0.63079  1.0000 -0.5460591703
O   O87       1.0  0.06367  0.69446  0.51727  1.0000 -0.5460591703
O   O88       1.0  0.67719  0.54640  0.98273  1.0000 -0.5460591703
O   O89       1.0  0.86921  0.82281  0.80554  1.0000 -0.5460591703
O   O90       1.0  0.63079  0.43633  0.95360  1.0000 -0.5460591703
O   O91       1.0  0.51727  0.06367  0.69446  1.0000 -0.5460591703
O   O92       1.0  0.98273  0.67719  0.54640  1.0000 -0.5460591703
O   O93       1.0  0.80554  0.86921  0.82281  1.0000 -0.5460591703
O   O94       1.0  0.95360  0.63079  0.43633  1.0000 -0.5460591703
O   O95       1.0  0.69446  0.51727  0.06367  1.0000 -0.5460591703
O   O96       1.0  0.54640  0.98273  0.67719  1.0000 -0.5460591703
