# DDEC6 charges by PACMAN v1.1 (https://github.com/mtap-research/PACMAN-charge/)
data_2010[Fe][fsc]3[FSR]1
_chemical_formula_sum              "Fe8 H96 C176 N48"
_cell_length_a       17.2926
_cell_length_b       17.2926
_cell_length_c       22.8962
_cell_angle_alpha    90
_cell_angle_beta     90
_cell_angle_gamma    90

_symmetry_space_group_name_H-M    "P 1"
_symmetry_Int_Tables_number       1

loop_
  _symmetry_equiv_pos_as_xyz
  'x, y, z'

loop_
  _atom_site_type_symbol
  _atom_site_label
  _atom_site_symmetry_multiplicity
  _atom_site_fract_x
  _atom_site_fract_y
  _atom_site_fract_z
  _atom_site_occupancy
  _atom_site_charge
Fe  Fe1       1.0  0.00000  0.00000  0.00000  1.0000 0.7510136298
Fe  Fe2       1.0  0.50000  0.50000  0.50000  1.0000 0.7510136298
Fe  Fe3       1.0  0.50000  0.00000  0.94844  1.0000 0.7810008607
Fe  Fe4       1.0  0.00000  0.50000  0.05156  1.0000 0.7810008607
Fe  Fe5       1.0  0.00000  0.50000  0.55156  1.0000 0.7810008607
Fe  Fe6       1.0  0.50000  0.00000  0.44844  1.0000 0.7810008607
Fe  Fe7       1.0  0.50000  0.50000  0.00000  1.0000 0.7727303139
Fe  Fe8       1.0  0.00000  0.00000  0.50000  1.0000 0.7727303139
H   H1        1.0  0.14010  0.17840  0.02180  1.0000 0.1089462097
H   H2        1.0  0.17840  0.85990  0.97820  1.0000 0.1089462097
H   H3        1.0  0.85990  0.82160  0.02180  1.0000 0.1089462097
H   H4        1.0  0.82160  0.14010  0.97820  1.0000 0.1089462097
H   H5        1.0  0.35990  0.67840  0.47820  1.0000 0.1089462097
H   H6        1.0  0.32160  0.35990  0.52180  1.0000 0.1089462097
H   H7        1.0  0.64010  0.32160  0.47820  1.0000 0.1089462097
H   H8        1.0  0.67840  0.64010  0.52180  1.0000 0.1089462097
H   H9        1.0  0.14020  0.31090  0.03860  1.0000 0.1193838604
H   H10       1.0  0.31090  0.85980  0.96140  1.0000 0.1193838604
H   H11       1.0  0.85980  0.68910  0.03860  1.0000 0.1193838604
H   H12       1.0  0.68910  0.14020  0.96140  1.0000 0.1193838604
H   H13       1.0  0.35980  0.81090  0.46140  1.0000 0.1193838604
H   H14       1.0  0.18910  0.35980  0.53860  1.0000 0.1193838604
H   H15       1.0  0.64020  0.18910  0.46140  1.0000 0.1193838604
H   H16       1.0  0.81090  0.64020  0.53860  1.0000 0.1193838604
H   H17       1.0  0.36060  0.32360  0.98180  1.0000 0.1193838604
H   H18       1.0  0.32360  0.63940  0.01820  1.0000 0.1193838604
H   H19       1.0  0.63940  0.67640  0.98180  1.0000 0.1193838604
H   H20       1.0  0.67640  0.36060  0.01820  1.0000 0.1193838604
H   H21       1.0  0.13940  0.82360  0.51820  1.0000 0.1193838604
H   H22       1.0  0.17640  0.13940  0.48180  1.0000 0.1193838604
H   H23       1.0  0.86060  0.17640  0.51820  1.0000 0.1193838604
H   H24       1.0  0.82360  0.86060  0.48180  1.0000 0.1193838604
H   H25       1.0  0.36310  0.19150  0.96800  1.0000 0.1089462097
H   H26       1.0  0.19150  0.63690  0.03200  1.0000 0.1089462097
H   H27       1.0  0.63690  0.80850  0.96800  1.0000 0.1089462097
H   H28       1.0  0.80850  0.36310  0.03200  1.0000 0.1089462097
H   H29       1.0  0.13690  0.69150  0.53200  1.0000 0.1089462097
H   H30       1.0  0.30850  0.13690  0.46800  1.0000 0.1089462097
H   H31       1.0  0.86310  0.30850  0.53200  1.0000 0.1089462097
H   H32       1.0  0.69150  0.86310  0.46800  1.0000 0.1089462097
H   H33       1.0  0.89790  0.04900  0.10420  1.0000 0.1089462097
H   H34       1.0  0.04900  0.10210  0.89580  1.0000 0.1089462097
H   H35       1.0  0.10210  0.95100  0.10420  1.0000 0.1089462097
H   H36       1.0  0.95100  0.89790  0.89580  1.0000 0.1089462097
H   H37       1.0  0.60210  0.54900  0.39580  1.0000 0.1089462097
H   H38       1.0  0.45100  0.60210  0.60420  1.0000 0.1089462097
H   H39       1.0  0.39790  0.45100  0.39580  1.0000 0.1089462097
H   H40       1.0  0.54900  0.39790  0.60420  1.0000 0.1089462097
H   H41       1.0  0.89610  0.05370  0.20560  1.0000 0.1282861512
H   H42       1.0  0.05370  0.10390  0.79440  1.0000 0.1282861512
H   H43       1.0  0.10390  0.94630  0.20560  1.0000 0.1282861512
H   H44       1.0  0.94630  0.89610  0.79440  1.0000 0.1282861512
H   H45       1.0  0.60390  0.55370  0.29440  1.0000 0.1282861512
H   H46       1.0  0.44630  0.60390  0.70560  1.0000 0.1282861512
H   H47       1.0  0.39610  0.44630  0.29440  1.0000 0.1282861512
H   H48       1.0  0.55370  0.39610  0.70560  1.0000 0.1282861512
H   H49       1.0  0.93180  0.09560  0.29500  1.0000 0.1282861512
H   H50       1.0  0.09560  0.06820  0.70500  1.0000 0.1282861512
H   H51       1.0  0.06820  0.90440  0.29500  1.0000 0.1282861512
H   H52       1.0  0.90440  0.93180  0.70500  1.0000 0.1282861512
H   H53       1.0  0.56820  0.59560  0.20500  1.0000 0.1282861512
H   H54       1.0  0.40440  0.56820  0.79500  1.0000 0.1282861512
H   H55       1.0  0.43180  0.40440  0.20500  1.0000 0.1282861512
H   H56       1.0  0.59560  0.43180  0.79500  1.0000 0.1282861512
H   H57       1.0  0.93250  0.09130  0.39470  1.0000 0.1012837916
H   H58       1.0  0.09130  0.06750  0.60530  1.0000 0.1012837916
H   H59       1.0  0.06750  0.90870  0.39470  1.0000 0.1012837916
H   H60       1.0  0.90870  0.93250  0.60530  1.0000 0.1012837916
H   H61       1.0  0.56750  0.59130  0.10530  1.0000 0.1012837916
H   H62       1.0  0.40870  0.56750  0.89470  1.0000 0.1012837916
H   H63       1.0  0.43250  0.40870  0.10530  1.0000 0.1012837916
H   H64       1.0  0.59130  0.43250  0.89470  1.0000 0.1012837916
H   H65       1.0  0.44040  0.09590  0.05360  1.0000 0.1012837916
H   H66       1.0  0.09590  0.55960  0.94640  1.0000 0.1012837916
H   H67       1.0  0.55960  0.90410  0.05360  1.0000 0.1012837916
H   H68       1.0  0.90410  0.44040  0.94640  1.0000 0.1012837916
H   H69       1.0  0.05960  0.59590  0.44640  1.0000 0.1012837916
H   H70       1.0  0.40410  0.05960  0.55360  1.0000 0.1012837916
H   H71       1.0  0.94040  0.40410  0.44640  1.0000 0.1012837916
H   H72       1.0  0.59590  0.94040  0.55360  1.0000 0.1012837916
H   H73       1.0  0.43820  0.09990  0.15450  1.0000 0.1282861512
H   H74       1.0  0.09990  0.56180  0.84550  1.0000 0.1282861512
H   H75       1.0  0.56180  0.90010  0.15450  1.0000 0.1282861512
H   H76       1.0  0.90010  0.43820  0.84550  1.0000 0.1282861512
H   H77       1.0  0.06180  0.59990  0.34550  1.0000 0.1282861512
H   H78       1.0  0.40010  0.06180  0.65450  1.0000 0.1282861512
H   H79       1.0  0.93820  0.40010  0.34550  1.0000 0.1282861512
H   H80       1.0  0.59990  0.93820  0.65450  1.0000 0.1282861512
H   H81       1.0  0.39760  0.05650  0.24340  1.0000 0.1193838604
H   H82       1.0  0.05650  0.60240  0.75660  1.0000 0.1193838604
H   H83       1.0  0.60240  0.94350  0.24340  1.0000 0.1193838604
H   H84       1.0  0.94350  0.39760  0.75660  1.0000 0.1193838604
H   H85       1.0  0.10240  0.55650  0.25660  1.0000 0.1193838604
H   H86       1.0  0.44350  0.10240  0.74340  1.0000 0.1193838604
H   H87       1.0  0.89760  0.44350  0.25660  1.0000 0.1193838604
H   H88       1.0  0.55650  0.89760  0.74340  1.0000 0.1193838604
H   H89       1.0  0.40070  0.05520  0.34410  1.0000 0.1089462097
H   H90       1.0  0.05520  0.59930  0.65590  1.0000 0.1089462097
H   H91       1.0  0.59930  0.94480  0.34410  1.0000 0.1089462097
H   H92       1.0  0.94480  0.40070  0.65590  1.0000 0.1089462097
H   H93       1.0  0.09930  0.55520  0.15590  1.0000 0.1089462097
H   H94       1.0  0.44480  0.09930  0.84410  1.0000 0.1089462097
H   H95       1.0  0.90070  0.44480  0.15590  1.0000 0.1089462097
H   H96       1.0  0.55520  0.90070  0.84410  1.0000 0.1089462097
C   C1        1.0  0.18285  0.04317  0.99105  1.0000 0.2920039396
C   C2        1.0  0.04317  0.81715  0.00895  1.0000 0.2920039396
C   C3        1.0  0.81715  0.95683  0.99105  1.0000 0.2920039396
C   C4        1.0  0.95683  0.18285  0.00895  1.0000 0.2920039396
C   C5        1.0  0.31715  0.54317  0.50895  1.0000 0.2920039396
C   C6        1.0  0.45683  0.31715  0.49105  1.0000 0.2920039396
C   C7        1.0  0.68285  0.45683  0.50895  1.0000 0.2920039396
C   C8        1.0  0.54317  0.68285  0.49105  1.0000 0.2920039396
C   C9        1.0  0.25135  0.08525  0.98309  1.0000 -0.1971674717
C   C10       1.0  0.08525  0.74865  0.01691  1.0000 -0.1971674717
C   C11       1.0  0.74865  0.91475  0.98309  1.0000 -0.1971674717
C   C12       1.0  0.91475  0.25135  0.01691  1.0000 -0.1971674717
C   C13       1.0  0.24865  0.58525  0.51691  1.0000 -0.1971674717
C   C14       1.0  0.41475  0.24865  0.48309  1.0000 -0.1971674717
C   C15       1.0  0.75135  0.41475  0.51691  1.0000 -0.1971674717
C   C16       1.0  0.58525  0.75135  0.48309  1.0000 -0.1971674717
C   C17       1.0  0.31903  0.04827  0.96483  1.0000 0.2920039396
C   C18       1.0  0.04827  0.68097  0.03517  1.0000 0.2920039396
C   C19       1.0  0.68097  0.95173  0.96483  1.0000 0.2920039396
C   C20       1.0  0.95173  0.31903  0.03517  1.0000 0.2920039396
C   C21       1.0  0.18097  0.54827  0.53517  1.0000 0.2920039396
C   C22       1.0  0.45173  0.18097  0.46483  1.0000 0.2920039396
C   C23       1.0  0.81903  0.45173  0.53517  1.0000 0.2920039396
C   C24       1.0  0.54827  0.81903  0.46483  1.0000 0.2920039396
C   C25       1.0  0.25080  0.16801  0.99330  1.0000 0.0909510875
C   C26       1.0  0.16801  0.74920  0.00670  1.0000 0.0909510875
C   C27       1.0  0.74920  0.83199  0.99330  1.0000 0.0909510875
C   C28       1.0  0.83199  0.25080  0.00670  1.0000 0.0909510875
C   C29       1.0  0.24920  0.66801  0.50670  1.0000 0.0909510875
C   C30       1.0  0.33199  0.24920  0.49330  1.0000 0.0909510875
C   C31       1.0  0.75080  0.33199  0.50670  1.0000 0.0909510875
C   C32       1.0  0.66801  0.75080  0.49330  1.0000 0.0909510875
C   C33       1.0  0.18588  0.20705  0.01415  1.0000 -0.1602436894
C   C34       1.0  0.20705  0.81412  0.98585  1.0000 -0.1602436894
C   C35       1.0  0.81412  0.79295  0.01415  1.0000 -0.1602436894
C   C36       1.0  0.79295  0.18588  0.98585  1.0000 -0.1602436894
C   C37       1.0  0.31412  0.70705  0.48585  1.0000 -0.1602436894
C   C38       1.0  0.29295  0.31412  0.51415  1.0000 -0.1602436894
C   C39       1.0  0.68588  0.29295  0.48585  1.0000 -0.1602436894
C   C40       1.0  0.70705  0.68588  0.51415  1.0000 -0.1602436894
C   C41       1.0  0.18561  0.28645  0.02422  1.0000 -0.1602436894
C   C42       1.0  0.28645  0.81439  0.97578  1.0000 -0.1602436894
C   C43       1.0  0.81439  0.71355  0.02422  1.0000 -0.1602436894
C   C44       1.0  0.71355  0.18561  0.97578  1.0000 -0.1602436894
C   C45       1.0  0.31439  0.78645  0.47578  1.0000 -0.1602436894
C   C46       1.0  0.21355  0.31439  0.52422  1.0000 -0.1602436894
C   C47       1.0  0.68561  0.21355  0.47578  1.0000 -0.1602436894
C   C48       1.0  0.78645  0.68561  0.52422  1.0000 -0.1602436894
C   C49       1.0  0.25054  0.32985  0.01283  1.0000 0.1012837916
C   C50       1.0  0.32985  0.74946  0.98717  1.0000 0.1012837916
C   C51       1.0  0.74946  0.67015  0.01283  1.0000 0.1012837916
C   C52       1.0  0.67015  0.25054  0.98717  1.0000 0.1012837916
C   C53       1.0  0.24946  0.82985  0.48717  1.0000 0.1012837916
C   C54       1.0  0.17015  0.24946  0.51283  1.0000 0.1012837916
C   C55       1.0  0.75054  0.17015  0.48717  1.0000 0.1012837916
C   C56       1.0  0.82985  0.75054  0.51283  1.0000 0.1012837916
C   C57       1.0  0.31615  0.29374  0.99096  1.0000 -0.1602436894
C   C58       1.0  0.29374  0.68385  0.00904  1.0000 -0.1602436894
C   C59       1.0  0.68385  0.70626  0.99096  1.0000 -0.1602436894
C   C60       1.0  0.70626  0.31615  0.00904  1.0000 -0.1602436894
C   C61       1.0  0.18385  0.79374  0.50904  1.0000 -0.1602436894
C   C62       1.0  0.20626  0.18385  0.49096  1.0000 -0.1602436894
C   C63       1.0  0.81615  0.20626  0.50904  1.0000 -0.1602436894
C   C64       1.0  0.79374  0.81615  0.49096  1.0000 -0.1602436894
C   C65       1.0  0.31707  0.21521  0.98195  1.0000 -0.1602436894
C   C66       1.0  0.21521  0.68293  0.01805  1.0000 -0.1602436894
C   C67       1.0  0.68293  0.78479  0.98195  1.0000 -0.1602436894
C   C68       1.0  0.78479  0.31707  0.01805  1.0000 -0.1602436894
C   C69       1.0  0.18293  0.71521  0.51805  1.0000 -0.1602436894
C   C70       1.0  0.28479  0.18293  0.48195  1.0000 -0.1602436894
C   C71       1.0  0.81707  0.28479  0.51805  1.0000 -0.1602436894
C   C72       1.0  0.71521  0.81707  0.48195  1.0000 -0.1602436894
C   C73       1.0  0.25068  0.41625  0.02211  1.0000 -0.1971674717
C   C74       1.0  0.41625  0.74932  0.97789  1.0000 -0.1971674717
C   C75       1.0  0.74932  0.58375  0.02211  1.0000 -0.1971674717
C   C76       1.0  0.58375  0.25068  0.97789  1.0000 -0.1971674717
C   C77       1.0  0.24932  0.91625  0.47789  1.0000 -0.1971674717
C   C78       1.0  0.08375  0.24932  0.52211  1.0000 -0.1971674717
C   C79       1.0  0.75068  0.08375  0.47789  1.0000 -0.1971674717
C   C80       1.0  0.91625  0.75068  0.52211  1.0000 -0.1971674717
C   C81       1.0  0.31687  0.45767  0.01084  1.0000 0.280910284
C   C82       1.0  0.45767  0.68313  0.98916  1.0000 0.280910284
C   C83       1.0  0.68313  0.54233  0.01084  1.0000 0.280910284
C   C84       1.0  0.54233  0.31687  0.98916  1.0000 0.280910284
C   C85       1.0  0.18313  0.95767  0.48916  1.0000 0.280910284
C   C86       1.0  0.04233  0.18313  0.51084  1.0000 0.280910284
C   C87       1.0  0.81687  0.04233  0.48916  1.0000 0.280910284
C   C88       1.0  0.95767  0.81687  0.51084  1.0000 0.280910284
C   C89       1.0  0.18162  0.45320  0.03749  1.0000 0.2965688935
C   C90       1.0  0.45320  0.81838  0.96251  1.0000 0.2965688935
C   C91       1.0  0.81838  0.54680  0.03749  1.0000 0.2965688935
C   C92       1.0  0.54680  0.18162  0.96251  1.0000 0.2965688935
C   C93       1.0  0.31838  0.95320  0.46251  1.0000 0.2965688935
C   C94       1.0  0.04680  0.31838  0.53749  1.0000 0.2965688935
C   C95       1.0  0.68162  0.04680  0.46251  1.0000 0.2965688935
C   C96       1.0  0.95320  0.68162  0.53749  1.0000 0.2965688935
C   C97       1.0  0.94071  0.02891  0.12536  1.0000 0.0909510875
C   C98       1.0  0.02891  0.05929  0.87464  1.0000 0.0909510875
C   C99       1.0  0.05929  0.97109  0.12536  1.0000 0.0909510875
C   C100      1.0  0.97109  0.94071  0.87464  1.0000 0.0909510875
C   C101      1.0  0.55929  0.52891  0.37464  1.0000 0.0909510875
C   C102      1.0  0.47109  0.55929  0.62536  1.0000 0.0909510875
C   C103      1.0  0.44071  0.47109  0.37464  1.0000 0.0909510875
C   C104      1.0  0.52891  0.44071  0.62536  1.0000 0.0909510875
C   C105      1.0  0.93893  0.03107  0.18604  1.0000 -0.1971674717
C   C106      1.0  0.03107  0.06107  0.81396  1.0000 -0.1971674717
C   C107      1.0  0.06107  0.96893  0.18604  1.0000 -0.1971674717
C   C108      1.0  0.96893  0.93893  0.81396  1.0000 -0.1971674717
C   C109      1.0  0.56107  0.53107  0.31396  1.0000 -0.1971674717
C   C110      1.0  0.46893  0.56107  0.68604  1.0000 -0.1971674717
C   C111      1.0  0.43893  0.46893  0.31396  1.0000 -0.1971674717
C   C112      1.0  0.53107  0.43893  0.68604  1.0000 -0.1971674717
C   C113      1.0  0.00000  0.00000  0.21762  1.0000 0.0909510875
C   C114      1.0  0.00000  0.00000  0.78238  1.0000 0.0909510875
C   C115      1.0  0.50000  0.50000  0.28238  1.0000 0.1012837916
C   C116      1.0  0.50000  0.50000  0.71762  1.0000 0.0909510875
C   C117      1.0  0.00000  0.00000  0.28213  1.0000 0.1012837916
C   C118      1.0  0.00000  0.00000  0.71787  1.0000 0.1012837916
C   C119      1.0  0.50000  0.50000  0.21787  1.0000 0.1012837916
C   C120      1.0  0.50000  0.50000  0.78213  1.0000 0.1012837916
C   C121      1.0  0.95978  0.05604  0.31456  1.0000 -0.1971674717
C   C122      1.0  0.05604  0.04022  0.68544  1.0000 -0.1971674717
C   C123      1.0  0.04022  0.94396  0.31456  1.0000 -0.1971674717
C   C124      1.0  0.94396  0.95978  0.68544  1.0000 -0.1971674717
C   C125      1.0  0.54022  0.55604  0.18544  1.0000 -0.1971674717
C   C126      1.0  0.44396  0.54022  0.81456  1.0000 -0.1971674717
C   C127      1.0  0.45978  0.44396  0.18544  1.0000 -0.1971674717
C   C128      1.0  0.55604  0.45978  0.81456  1.0000 -0.1971674717
C   C129      1.0  0.96101  0.05333  0.37384  1.0000 0.0909510875
C   C130      1.0  0.05333  0.03899  0.62616  1.0000 0.0841893113
C   C131      1.0  0.03899  0.94667  0.37384  1.0000 0.0909510875
C   C132      1.0  0.94667  0.96101  0.62616  1.0000 0.0841893113
C   C133      1.0  0.53899  0.55333  0.12616  1.0000 0.0841893113
C   C134      1.0  0.44667  0.53899  0.87384  1.0000 0.0841893113
C   C135      1.0  0.46101  0.44667  0.12616  1.0000 0.0841893113
C   C136      1.0  0.55333  0.46101  0.87384  1.0000 0.0841893113
C   C137      1.0  0.46538  0.05568  0.07461  1.0000 0.0909510875
C   C138      1.0  0.05568  0.53462  0.92539  1.0000 0.0909510875
C   C139      1.0  0.53462  0.94432  0.07461  1.0000 0.0841893113
C   C140      1.0  0.94432  0.46538  0.92539  1.0000 0.0909510875
C   C141      1.0  0.03462  0.55568  0.42539  1.0000 0.0909510875
C   C142      1.0  0.44432  0.03462  0.57461  1.0000 0.0841893113
C   C143      1.0  0.96538  0.44432  0.42539  1.0000 0.0909510875
C   C144      1.0  0.55568  0.96538  0.57461  1.0000 0.0841893113
C   C145      1.0  0.46374  0.05860  0.13498  1.0000 -0.1971674717
C   C146      1.0  0.05860  0.53626  0.86502  1.0000 -0.1971674717
C   C147      1.0  0.53626  0.94140  0.13498  1.0000 -0.1971674717
C   C148      1.0  0.94140  0.46374  0.86502  1.0000 -0.1971674717
C   C149      1.0  0.03626  0.55860  0.36502  1.0000 -0.1971674717
C   C150      1.0  0.44140  0.03626  0.63498  1.0000 -0.1971674717
C   C151      1.0  0.96374  0.44140  0.36502  1.0000 -0.1971674717
C   C152      1.0  0.55860  0.96374  0.63498  1.0000 -0.1971674717
C   C153      1.0  0.50000  0.00000  0.16692  1.0000 0.1012837916
C   C154      1.0  0.00000  0.50000  0.83308  1.0000 0.1012837916
C   C155      1.0  0.00000  0.50000  0.33308  1.0000 0.1012837916
C   C156      1.0  0.50000  0.00000  0.66692  1.0000 0.1012837916
C   C157      1.0  0.50000  0.00000  0.23099  1.0000 0.0909510875
C   C158      1.0  0.00000  0.50000  0.76901  1.0000 0.0909510875
C   C159      1.0  0.00000  0.50000  0.26901  1.0000 0.0909510875
C   C160      1.0  0.50000  0.00000  0.73099  1.0000 0.0909510875
C   C161      1.0  0.43997  0.03299  0.26293  1.0000 -0.1971674717
C   C162      1.0  0.03299  0.56003  0.73707  1.0000 -0.1971674717
C   C163      1.0  0.56003  0.96701  0.26293  1.0000 -0.1971674717
C   C164      1.0  0.96701  0.43997  0.73707  1.0000 -0.1971674717
C   C165      1.0  0.06003  0.53299  0.23707  1.0000 -0.1971674717
C   C166      1.0  0.46701  0.06003  0.76293  1.0000 -0.1971674717
C   C167      1.0  0.93997  0.46701  0.23707  1.0000 -0.1971674717
C   C168      1.0  0.53299  0.93997  0.76293  1.0000 -0.1971674717
C   C169      1.0  0.44210  0.03230  0.32302  1.0000 0.0909510875
C   C170      1.0  0.03230  0.55790  0.67698  1.0000 0.0909510875
C   C171      1.0  0.55790  0.96770  0.32302  1.0000 0.0909510875
C   C172      1.0  0.96770  0.44210  0.67698  1.0000 0.0909510875
C   C173      1.0  0.05790  0.53230  0.17698  1.0000 0.0909510875
C   C174      1.0  0.46770  0.05790  0.82302  1.0000 0.0909510875
C   C175      1.0  0.94210  0.46770  0.17698  1.0000 0.0909510875
C   C176      1.0  0.53230  0.94210  0.82302  1.0000 0.0909510875
N   N1        1.0  0.12315  0.01536  0.99877  1.0000 -0.4426946095
N   N2        1.0  0.01536  0.87685  0.00123  1.0000 -0.4426946095
N   N3        1.0  0.87685  0.98464  0.99877  1.0000 -0.4426946095
N   N4        1.0  0.98464  0.12315  0.00123  1.0000 -0.4426946095
N   N5        1.0  0.37685  0.51536  0.50123  1.0000 -0.4426946095
N   N6        1.0  0.48464  0.37685  0.49877  1.0000 -0.4426946095
N   N7        1.0  0.62315  0.48464  0.50123  1.0000 -0.4426946095
N   N8        1.0  0.51536  0.62315  0.49877  1.0000 -0.4426946095
N   N9        1.0  0.37786  0.02357  0.95011  1.0000 -0.4426946095
N   N10       1.0  0.02357  0.62214  0.04989  1.0000 -0.4426946095
N   N11       1.0  0.62214  0.97643  0.95011  1.0000 -0.4426946095
N   N12       1.0  0.97643  0.37786  0.04989  1.0000 -0.4426946095
N   N13       1.0  0.12214  0.52357  0.54989  1.0000 -0.4426946095
N   N14       1.0  0.47643  0.12214  0.45011  1.0000 -0.4426946095
N   N15       1.0  0.87786  0.47643  0.54989  1.0000 -0.4426946095
N   N16       1.0  0.52357  0.87786  0.45011  1.0000 -0.4426946095
N   N17       1.0  0.12167  0.47852  0.05070  1.0000 -0.449383059
N   N18       1.0  0.47852  0.87833  0.94930  1.0000 -0.449383059
N   N19       1.0  0.87833  0.52148  0.05070  1.0000 -0.449383059
N   N20       1.0  0.52148  0.12167  0.94930  1.0000 -0.449383059
N   N21       1.0  0.37833  0.97852  0.44930  1.0000 -0.449383059
N   N22       1.0  0.02148  0.37833  0.55070  1.0000 -0.449383059
N   N23       1.0  0.62167  0.02148  0.44930  1.0000 -0.449383059
N   N24       1.0  0.97852  0.62167  0.55070  1.0000 -0.449383059
N   N25       1.0  0.37685  0.48569  0.00071  1.0000 -0.449383059
N   N26       1.0  0.48569  0.62315  0.99929  1.0000 -0.449383059
N   N27       1.0  0.62315  0.51431  0.00071  1.0000 -0.449383059
N   N28       1.0  0.51431  0.37685  0.99929  1.0000 -0.449383059
N   N29       1.0  0.12315  0.98569  0.49929  1.0000 -0.449383059
N   N30       1.0  0.01431  0.12315  0.50071  1.0000 -0.4426946095
N   N31       1.0  0.87685  0.01431  0.49929  1.0000 -0.449383059
N   N32       1.0  0.98569  0.87685  0.50071  1.0000 -0.449383059
N   N33       1.0  0.00000  0.00000  0.09527  1.0000 -0.22092078
N   N34       1.0  0.00000  0.00000  0.90473  1.0000 -0.22092078
N   N35       1.0  0.50000  0.50000  0.40473  1.0000 -0.22092078
N   N36       1.0  0.50000  0.50000  0.59527  1.0000 -0.22092078
N   N37       1.0  0.00000  0.00000  0.40400  1.0000 -0.22092078
N   N38       1.0  0.00000  0.00000  0.59600  1.0000 -0.22092078
N   N39       1.0  0.50000  0.50000  0.09600  1.0000 -0.22092078
N   N40       1.0  0.50000  0.50000  0.90400  1.0000 -0.22092078
N   N41       1.0  0.50000  0.00000  0.04405  1.0000 -0.2280249794
N   N42       1.0  0.00000  0.50000  0.95595  1.0000 -0.2280249794
N   N43       1.0  0.00000  0.50000  0.45595  1.0000 -0.2280249794
N   N44       1.0  0.50000  0.00000  0.54405  1.0000 -0.2280249794
N   N45       1.0  0.50000  0.00000  0.35368  1.0000 -0.2280249794
N   N46       1.0  0.00000  0.50000  0.64632  1.0000 -0.2280249794
N   N47       1.0  0.00000  0.50000  0.14632  1.0000 -0.2280249794
N   N48       1.0  0.50000  0.00000  0.85368  1.0000 -0.2280249794
