# DDEC6 charges by PACMAN v1.1 (https://github.com/mtap-research/PACMAN-charge/)
data_2011[LaCo][nan]3[FSR]1
_chemical_formula_sum              "La4 Co4 H72 C144 N24 O48"
_cell_length_a       23.0002
_cell_length_b       21.6853
_cell_length_c       18.3139
_cell_angle_alpha    69.6173
_cell_angle_beta     62.1038
_cell_angle_gamma    48.279

_symmetry_space_group_name_H-M    "P 1"
_symmetry_Int_Tables_number       1

loop_
  _symmetry_equiv_pos_as_xyz
  'x, y, z'

loop_
  _atom_site_type_symbol
  _atom_site_label
  _atom_site_symmetry_multiplicity
  _atom_site_fract_x
  _atom_site_fract_y
  _atom_site_fract_z
  _atom_site_occupancy
  _atom_site_charge
La  La1       1.0  0.47831  0.02169  0.02169  1.0000 1.7727080912
La  La2       1.0  0.02169  0.47831  0.47831  1.0000 1.7727080912
La  La3       1.0  0.77169  0.22831  0.22831  1.0000 1.7727080912
La  La4       1.0  0.22831  0.77169  0.77169  1.0000 1.7727080912
Co  Co1       1.0  0.98362  0.51638  0.98362  1.0000 0.4722117291
Co  Co2       1.0  0.51638  0.98362  0.51638  1.0000 0.4722117291
Co  Co3       1.0  0.26638  0.73362  0.26638  1.0000 0.4722117291
Co  Co4       1.0  0.73362  0.26638  0.73362  1.0000 0.4722117291
H   H1        1.0  0.80410  0.58330  0.03590  1.0000 0.1172589393
H   H2        1.0  0.58330  0.80410  0.57670  1.0000 0.1172589393
H   H3        1.0  0.57670  0.03590  0.58330  1.0000 0.1172589393
H   H4        1.0  0.03590  0.57670  0.80410  1.0000 0.1172589393
H   H5        1.0  0.44590  0.66667  0.21410  1.0000 0.1172589393
H   H6        1.0  0.66667  0.44590  0.67330  1.0000 0.1172589393
H   H7        1.0  0.67330  0.21410  0.66667  1.0000 0.1172589393
H   H8        1.0  0.21410  0.67330  0.44590  1.0000 0.1172589393
H   H9        1.0  0.68050  0.71250  0.03570  1.0000 0.1584685761
H   H10       1.0  0.71250  0.68050  0.57130  1.0000 0.1584685761
H   H11       1.0  0.57130  0.03570  0.71250  1.0000 0.1584685761
H   H12       1.0  0.03570  0.57130  0.68050  1.0000 0.1584685761
H   H13       1.0  0.56950  0.53750  0.21430  1.0000 0.1584685761
H   H14       1.0  0.53750  0.56950  0.67870  1.0000 0.1584685761
H   H15       1.0  0.67870  0.21430  0.53750  1.0000 0.1584685761
H   H16       1.0  0.21430  0.67870  0.56950  1.0000 0.1584685761
H   H17       1.0  0.79800  0.81400  0.95000  1.0000 0.1584685761
H   H18       1.0  0.81400  0.79800  0.43800  1.0000 0.1584685761
H   H19       1.0  0.43800  0.95000  0.81400  1.0000 0.1584685761
H   H20       1.0  0.95000  0.43800  0.79800  1.0000 0.1584685761
H   H21       1.0  0.45200  0.43600  0.30000  1.0000 0.1584685761
H   H22       1.0  0.43600  0.45200  0.81200  1.0000 0.1584685761
H   H23       1.0  0.81200  0.30000  0.43600  1.0000 0.1584685761
H   H24       1.0  0.30000  0.81200  0.45200  1.0000 0.1584685761
H   H25       1.0  0.91770  0.78730  0.92670  1.0000 0.1479824447
H   H26       1.0  0.78730  0.91770  0.36830  1.0000 0.1479824447
H   H27       1.0  0.36830  0.92670  0.78730  1.0000 0.1479824447
H   H28       1.0  0.92670  0.36830  0.91770  1.0000 0.1479824447
H   H29       1.0  0.33230  0.46270  0.32330  1.0000 0.1479824447
H   H30       1.0  0.46270  0.33230  0.88170  1.0000 0.1479824447
H   H31       1.0  0.88170  0.32330  0.46270  1.0000 0.1479824447
H   H32       1.0  0.32330  0.88170  0.33230  1.0000 0.1479824447
H   H33       1.0  0.16210  0.60310  0.88890  1.0000 0.1652474584
H   H34       1.0  0.60310  0.16210  0.34590  1.0000 0.1652474584
H   H35       1.0  0.34590  0.88890  0.60310  1.0000 0.1652474584
H   H36       1.0  0.88890  0.34590  0.16210  1.0000 0.1652474584
H   H37       1.0  0.08790  0.64690  0.36110  1.0000 0.1652474584
H   H38       1.0  0.64690  0.08790  0.90410  1.0000 0.1652474584
H   H39       1.0  0.90410  0.36110  0.64690  1.0000 0.1652474584
H   H40       1.0  0.36110  0.90410  0.08790  1.0000 0.1652474584
H   H41       1.0  0.13630  0.50730  0.92810  1.0000 0.1136498492
H   H42       1.0  0.50730  0.13630  0.42830  1.0000 0.1136498492
H   H43       1.0  0.42830  0.92810  0.50730  1.0000 0.1136498492
H   H44       1.0  0.92810  0.42830  0.13630  1.0000 0.1136498492
H   H45       1.0  0.11370  0.74270  0.32190  1.0000 0.1136498492
H   H46       1.0  0.74270  0.11370  0.82170  1.0000 0.1136498492
H   H47       1.0  0.82170  0.32190  0.74270  1.0000 0.1136498492
H   H48       1.0  0.32190  0.82170  0.11370  1.0000 0.1136498492
H   H49       1.0  0.61620  0.86060  0.38440  1.0000 0.1136498492
H   H50       1.0  0.86060  0.61620  0.13880  1.0000 0.1136498492
H   H51       1.0  0.13880  0.38440  0.86060  1.0000 0.1136498492
H   H52       1.0  0.38440  0.13880  0.61620  1.0000 0.1136498492
H   H53       1.0  0.63380  0.38940  0.86560  1.0000 0.1136498492
H   H54       1.0  0.38940  0.63380  0.11120  1.0000 0.1136498492
H   H55       1.0  0.11120  0.86560  0.38940  1.0000 0.1136498492
H   H56       1.0  0.86560  0.11120  0.63380  1.0000 0.1136498492
H   H57       1.0  0.60680  0.86960  0.26000  1.0000 0.1479824447
H   H58       1.0  0.86960  0.60680  0.26360  1.0000 0.1479824447
H   H59       1.0  0.26360  0.26000  0.86960  1.0000 0.1479824447
H   H60       1.0  0.26000  0.26360  0.60680  1.0000 0.1479824447
H   H61       1.0  0.64320  0.38040  0.99000  1.0000 0.1479824447
H   H62       1.0  0.38040  0.64320  0.98640  1.0000 0.1479824447
H   H63       1.0  0.98640  0.99000  0.38040  1.0000 0.1479824447
H   H64       1.0  0.99000  0.98640  0.64320  1.0000 0.1479824447
H   H65       1.0  0.39580  0.10380  0.30260  1.0000 0.1652474584
H   H66       1.0  0.10380  0.39580  0.19780  1.0000 0.1652474584
H   H67       1.0  0.19780  0.30260  0.10380  1.0000 0.1652474584
H   H68       1.0  0.30260  0.19780  0.39580  1.0000 0.1652474584
H   H69       1.0  0.85420  0.14620  0.94740  1.0000 0.1652474584
H   H70       1.0  0.14620  0.85420  0.05220  1.0000 0.1652474584
H   H71       1.0  0.05220  0.94740  0.14620  1.0000 0.1652474584
H   H72       1.0  0.94740  0.05220  0.85420  1.0000 0.1652474584
C   C1        1.0  0.80320  0.63060  0.01780  1.0000 0.0330488634
C   C2        1.0  0.63060  0.80320  0.54840  1.0000 0.0330488634
C   C3        1.0  0.54840  0.01780  0.63060  1.0000 0.0330488634
C   C4        1.0  0.01780  0.54840  0.80320  1.0000 0.0330488634
C   C5        1.0  0.44680  0.61940  0.23220  1.0000 0.0330488634
C   C6        1.0  0.61940  0.44680  0.70160  1.0000 0.0330488634
C   C7        1.0  0.70160  0.23220  0.61940  1.0000 0.0330488634
C   C8        1.0  0.23220  0.70160  0.44680  1.0000 0.0330488634
C   C9        1.0  0.72930  0.70750  0.01790  1.0000 -0.1312197974
C   C10       1.0  0.70750  0.72930  0.54530  1.0000 -0.1312197974
C   C11       1.0  0.54530  0.01790  0.70750  1.0000 -0.1312197974
C   C12       1.0  0.01790  0.54530  0.72930  1.0000 -0.1312197974
C   C13       1.0  0.52070  0.54250  0.23210  1.0000 -0.1312197974
C   C14       1.0  0.54250  0.52070  0.70470  1.0000 -0.1312197974
C   C15       1.0  0.70470  0.23210  0.54250  1.0000 -0.1312197974
C   C16       1.0  0.23210  0.70470  0.52070  1.0000 -0.1312197974
C   C17       1.0  0.72640  0.77480  0.99300  1.0000 0.0608512609
C   C18       1.0  0.77480  0.72640  0.50580  1.0000 0.0608512609
C   C19       1.0  0.50580  0.99300  0.77480  1.0000 0.0608512609
C   C20       1.0  0.99300  0.50580  0.72640  1.0000 0.0608512609
C   C21       1.0  0.52360  0.47520  0.25700  1.0000 0.0608512609
C   C22       1.0  0.47520  0.52360  0.74420  1.0000 0.0608512609
C   C23       1.0  0.74420  0.25700  0.47520  1.0000 0.0608512609
C   C24       1.0  0.25700  0.74420  0.52360  1.0000 0.0608512609
C   C25       1.0  0.79880  0.76680  0.96760  1.0000 -0.1706003832
C   C26       1.0  0.76680  0.79880  0.46680  1.0000 -0.1706003832
C   C27       1.0  0.46680  0.96760  0.76680  1.0000 -0.1706003832
C   C28       1.0  0.96760  0.46680  0.79880  1.0000 -0.1706003832
C   C29       1.0  0.45120  0.48320  0.28240  1.0000 -0.1706003832
C   C30       1.0  0.48320  0.45120  0.78320  1.0000 -0.1706003832
C   C31       1.0  0.78320  0.28240  0.48320  1.0000 -0.1706003832
C   C32       1.0  0.28240  0.78320  0.45120  1.0000 -0.1706003832
C   C33       1.0  0.87216  0.68756  0.96864  1.0000 0.1584685761
C   C34       1.0  0.68756  0.87216  0.47164  1.0000 0.1584685761
C   C35       1.0  0.47164  0.96864  0.68756  1.0000 0.1584685761
C   C36       1.0  0.96864  0.47164  0.87216  1.0000 0.1584685761
C   C37       1.0  0.37784  0.56244  0.28136  1.0000 0.1584685761
C   C38       1.0  0.56244  0.37784  0.77836  1.0000 0.1584685761
C   C39       1.0  0.77836  0.28136  0.56244  1.0000 0.1584685761
C   C40       1.0  0.28136  0.77836  0.37784  1.0000 0.1584685761
C   C41       1.0  0.95180  0.66980  0.94580  1.0000 0.1405819872
C   C42       1.0  0.66980  0.95180  0.43260  1.0000 0.1405819872
C   C43       1.0  0.43260  0.94580  0.66980  1.0000 0.1405819872
C   C44       1.0  0.94580  0.43260  0.95180  1.0000 0.1405819872
C   C45       1.0  0.29820  0.58020  0.30420  1.0000 0.1405819872
C   C46       1.0  0.58020  0.29820  0.81740  1.0000 0.1405819872
C   C47       1.0  0.81740  0.30420  0.58020  1.0000 0.1405819872
C   C48       1.0  0.30420  0.81740  0.29820  1.0000 0.1405819872
C   C49       1.0  0.96320  0.73020  0.92560  1.0000 -0.1782489928
C   C50       1.0  0.73020  0.96320  0.38100  1.0000 -0.1782489928
C   C51       1.0  0.38100  0.92560  0.73020  1.0000 -0.1782489928
C   C52       1.0  0.92560  0.38100  0.96320  1.0000 -0.1782489928
C   C53       1.0  0.28680  0.51980  0.32440  1.0000 -0.1782489928
C   C54       1.0  0.51980  0.28680  0.86900  1.0000 -0.1782489928
C   C55       1.0  0.86900  0.32440  0.51980  1.0000 -0.1782489928
C   C56       1.0  0.32440  0.86900  0.28680  1.0000 -0.1782489928
C   C57       1.0  0.04308  0.70488  0.90372  1.0000 0.0530416212
C   C58       1.0  0.70488  0.04308  0.34832  1.0000 0.0530416212
C   C59       1.0  0.34832  0.90372  0.70488  1.0000 0.0530416212
C   C60       1.0  0.90372  0.34832  0.04308  1.0000 0.0530416212
C   C61       1.0  0.20692  0.54512  0.34628  1.0000 0.0530416212
C   C62       1.0  0.54512  0.20692  0.90168  1.0000 0.0530416212
C   C63       1.0  0.90168  0.34628  0.54512  1.0000 0.0530416212
C   C64       1.0  0.34628  0.90168  0.20692  1.0000 0.0530416212
C   C65       1.0  0.10740  0.62140  0.90420  1.0000 -0.1398252013
C   C66       1.0  0.62140  0.10740  0.36700  1.0000 -0.1398252013
C   C67       1.0  0.36700  0.90420  0.62140  1.0000 -0.1398252013
C   C68       1.0  0.90420  0.36700  0.10740  1.0000 -0.1398252013
C   C69       1.0  0.14260  0.62860  0.34580  1.0000 -0.1398252013
C   C70       1.0  0.62860  0.14260  0.88300  1.0000 -0.1398252013
C   C71       1.0  0.88300  0.34580  0.62860  1.0000 -0.1398252013
C   C72       1.0  0.34580  0.88300  0.14260  1.0000 -0.1398252013
C   C73       1.0  0.09180  0.56460  0.92680  1.0000 0.0530416212
C   C74       1.0  0.56460  0.09180  0.41680  1.0000 0.0530416212
C   C75       1.0  0.41680  0.92680  0.56460  1.0000 0.0530416212
C   C76       1.0  0.92680  0.41680  0.09180  1.0000 0.0530416212
C   C77       1.0  0.15820  0.68540  0.32320  1.0000 0.0530416212
C   C78       1.0  0.68540  0.15820  0.83320  1.0000 0.0530416212
C   C79       1.0  0.83320  0.32320  0.68540  1.0000 0.0530416212
C   C80       1.0  0.32320  0.83320  0.15820  1.0000 0.0530416212
C   C81       1.0  0.64576  0.86056  0.99144  1.0000 0.546818483
C   C82       1.0  0.86056  0.64576  0.50224  1.0000 0.546818483
C   C83       1.0  0.50224  0.99144  0.86056  1.0000 0.546818483
C   C84       1.0  0.99144  0.50224  0.64576  1.0000 0.546818483
C   C85       1.0  0.60424  0.38944  0.25856  1.0000 0.546818483
C   C86       1.0  0.38944  0.60424  0.74776  1.0000 0.546818483
C   C87       1.0  0.74776  0.25856  0.38944  1.0000 0.546818483
C   C88       1.0  0.25856  0.74776  0.60424  1.0000 0.546818483
C   C89       1.0  0.05610  0.76910  0.88550  1.0000 0.5724485249
C   C90       1.0  0.76910  0.05610  0.28930  1.0000 0.5724485249
C   C91       1.0  0.28930  0.88550  0.76910  1.0000 0.5724485249
C   C92       1.0  0.88550  0.28930  0.05610  1.0000 0.5724485249
C   C93       1.0  0.19390  0.48090  0.36450  1.0000 0.5724485249
C   C94       1.0  0.48090  0.19390  0.96070  1.0000 0.5724485249
C   C95       1.0  0.96070  0.36450  0.48090  1.0000 0.5724485249
C   C96       1.0  0.36450  0.96070  0.19390  1.0000 0.5724485249
C   C97       1.0  0.57200  0.91080  0.36720  1.0000 0.0441170082
C   C98       1.0  0.91080  0.57200  0.15000  1.0000 0.0441170082
C   C99       1.0  0.15000  0.36720  0.91080  1.0000 0.0441170082
C   C100      1.0  0.36720  0.15000  0.57200  1.0000 0.0441170082
C   C101      1.0  0.67800  0.33920  0.88280  1.0000 0.0441170082
C   C102      1.0  0.33920  0.67800  0.10000  1.0000 0.0441170082
C   C103      1.0  0.10000  0.88280  0.33920  1.0000 0.0441170082
C   C104      1.0  0.88280  0.10000  0.67800  1.0000 0.0441170082
C   C105      1.0  0.56620  0.91600  0.29340  1.0000 -0.1398252013
C   C106      1.0  0.91600  0.56620  0.22440  1.0000 -0.1398252013
C   C107      1.0  0.22440  0.29340  0.91600  1.0000 -0.1398252013
C   C108      1.0  0.29340  0.22440  0.56620  1.0000 -0.1398252013
C   C109      1.0  0.68380  0.33400  0.95660  1.0000 -0.1398252013
C   C110      1.0  0.33400  0.68380  0.02560  1.0000 -0.1398252013
C   C111      1.0  0.02560  0.95660  0.33400  1.0000 -0.1398252013
C   C112      1.0  0.95660  0.02560  0.68380  1.0000 -0.1398252013
C   C113      1.0  0.50160  0.98880  0.26720  1.0000 0.0813194405
C   C114      1.0  0.98880  0.50160  0.24240  1.0000 0.0813194405
C   C115      1.0  0.24240  0.26720  0.98880  1.0000 0.0813194405
C   C116      1.0  0.26720  0.24240  0.50160  1.0000 0.0813194405
C   C117      1.0  0.74840  0.26120  0.98280  1.0000 0.0813194405
C   C118      1.0  0.26120  0.74840  0.00760  1.0000 0.0813194405
C   C119      1.0  0.00760  0.98280  0.26120  1.0000 0.0813194405
C   C120      1.0  0.98280  0.00760  0.74840  1.0000 0.0813194405
C   C121      1.0  0.44180  0.05440  0.31760  1.0000 -0.1572392105
C   C122      1.0  0.05440  0.44180  0.18620  1.0000 -0.1572392105
C   C123      1.0  0.18620  0.31760  0.05440  1.0000 -0.1572392105
C   C124      1.0  0.31760  0.18620  0.44180  1.0000 -0.1572392105
C   C125      1.0  0.80820  0.19560  0.93240  1.0000 -0.1572392105
C   C126      1.0  0.19560  0.80820  0.06380  1.0000 -0.1572392105
C   C127      1.0  0.06380  0.93240  0.19560  1.0000 -0.1572392105
C   C128      1.0  0.93240  0.06380  0.80820  1.0000 -0.1572392105
C   C129      1.0  0.45070  0.04610  0.39170  1.0000 0.1479824447
C   C130      1.0  0.04610  0.45070  0.11150  1.0000 0.1479824447
C   C131      1.0  0.11150  0.39170  0.04610  1.0000 0.1479824447
C   C132      1.0  0.39170  0.11150  0.45070  1.0000 0.1479824447
C   C133      1.0  0.79930  0.20390  0.85830  1.0000 0.1479824447
C   C134      1.0  0.20390  0.79930  0.13850  1.0000 0.1479824447
C   C135      1.0  0.13850  0.85830  0.20390  1.0000 0.1479824447
C   C136      1.0  0.85830  0.13850  0.79930  1.0000 0.1479824447
C   C137      1.0  0.49580  0.99740  0.18380  1.0000 0.5319327818
C   C138      1.0  0.99740  0.49580  0.32300  1.0000 0.5319327818
C   C139      1.0  0.32300  0.18380  0.99740  1.0000 0.5319327818
C   C140      1.0  0.18380  0.32300  0.49580  1.0000 0.5319327818
C   C141      1.0  0.75420  0.25260  0.06620  1.0000 0.5319327818
C   C142      1.0  0.25260  0.75420  0.92700  1.0000 0.5319327818
C   C143      1.0  0.92700  0.06620  0.25260  1.0000 0.5319327818
C   C144      1.0  0.06620  0.92700  0.75420  1.0000 0.5319327818
N   N1        1.0  0.87387  0.62067  0.99293  1.0000 -0.1962152032
N   N2        1.0  0.62067  0.87387  0.51253  1.0000 -0.1962152032
N   N3        1.0  0.51253  0.99293  0.62067  1.0000 -0.1936886329
N   N4        1.0  0.99293  0.51253  0.87387  1.0000 -0.1962152032
N   N5        1.0  0.37613  0.62933  0.25707  1.0000 -0.1962152032
N   N6        1.0  0.62933  0.37613  0.73747  1.0000 -0.1936886329
N   N7        1.0  0.73747  0.25707  0.62933  1.0000 -0.1962152032
N   N8        1.0  0.25707  0.73747  0.37613  1.0000 -0.1936886329
N   N9        1.0  0.01600  0.58760  0.94680  1.0000 -0.2089439897
N   N10       1.0  0.58760  0.01600  0.44960  1.0000 -0.2089439897
N   N11       1.0  0.44960  0.94680  0.58760  1.0000 -0.2089439897
N   N12       1.0  0.94680  0.44960  0.01600  1.0000 -0.2089439897
N   N13       1.0  0.23400  0.66240  0.30320  1.0000 -0.2089439897
N   N14       1.0  0.66240  0.23400  0.80040  1.0000 -0.2089439897
N   N15       1.0  0.80040  0.30320  0.66240  1.0000 -0.2089439897
N   N16       1.0  0.30320  0.80040  0.23400  1.0000 -0.2089439897
N   N17       1.0  0.51571  0.97571  0.41529  1.0000 -0.2089439897
N   N18       1.0  0.97571  0.51571  0.09329  1.0000 -0.2089439897
N   N19       1.0  0.09329  0.41529  0.97571  1.0000 -0.2089439897
N   N20       1.0  0.41529  0.09329  0.51571  1.0000 -0.2089439897
N   N21       1.0  0.73429  0.27429  0.83471  1.0000 -0.2089439897
N   N22       1.0  0.27429  0.73429  0.15671  1.0000 -0.2089439897
N   N23       1.0  0.15671  0.83471  0.27429  1.0000 -0.2089439897
N   N24       1.0  0.83471  0.15671  0.73429  1.0000 -0.2089439897
O   O1        1.0  0.58711  0.86411  0.00069  1.0000 -0.5266958543
O   O2        1.0  0.86411  0.58711  0.54809  1.0000 -0.5266958543
O   O3        1.0  0.54809  0.00069  0.86411  1.0000 -0.5266958543
O   O4        1.0  0.00069  0.54809  0.58711  1.0000 -0.5248598723
O   O5        1.0  0.66289  0.38589  0.24931  1.0000 -0.5266958543
O   O6        1.0  0.38589  0.66289  0.70191  1.0000 -0.5266958543
O   O7        1.0  0.70191  0.24931  0.38589  1.0000 -0.5266958543
O   O8        1.0  0.24931  0.70191  0.66289  1.0000 -0.5248598723
O   O9        1.0  0.64117  0.92397  0.98323  1.0000 -0.5665792419
O   O10       1.0  0.92397  0.64117  0.45163  1.0000 -0.5665792419
O   O11       1.0  0.45163  0.98323  0.92397  1.0000 -0.5665792419
O   O12       1.0  0.98323  0.45163  0.64117  1.0000 -0.5665792419
O   O13       1.0  0.60883  0.32603  0.26677  1.0000 -0.5665792419
O   O14       1.0  0.32603  0.60883  0.79837  1.0000 -0.5665792419
O   O15       1.0  0.79837  0.26677  0.32603  1.0000 -0.5665792419
O   O16       1.0  0.26677  0.79837  0.60883  1.0000 -0.5665792419
O   O17       1.0  0.99328  0.84368  0.90072  1.0000 -0.5490449562
O   O18       1.0  0.84368  0.99328  0.26232  1.0000 -0.5490449562
O   O19       1.0  0.26232  0.90072  0.84368  1.0000 -0.5490449562
O   O20       1.0  0.90072  0.26232  0.99328  1.0000 -0.5490449562
O   O21       1.0  0.25672  0.40632  0.34928  1.0000 -0.5490449562
O   O22       1.0  0.40632  0.25672  0.98768  1.0000 -0.5490449562
O   O23       1.0  0.98768  0.34928  0.40632  1.0000 -0.5490449562
O   O24       1.0  0.34928  0.98768  0.25672  1.0000 -0.5490449562
O   O25       1.0  0.12981  0.74241  0.85699  1.0000 -0.578662288
O   O26       1.0  0.74241  0.12981  0.27079  1.0000 -0.578662288
O   O27       1.0  0.27079  0.85699  0.74241  1.0000 -0.578662288
O   O28       1.0  0.85699  0.27079  0.12981  1.0000 -0.578662288
O   O29       1.0  0.12019  0.50759  0.39301  1.0000 -0.578662288
O   O30       1.0  0.50759  0.12019  0.97921  1.0000 -0.578662288
O   O31       1.0  0.97921  0.39301  0.50759  1.0000 -0.578662288
O   O32       1.0  0.39301  0.97921  0.12019  1.0000 -0.578662288
O   O33       1.0  0.53500  0.93100  0.15040  1.0000 -0.5860634787
O   O34       1.0  0.93100  0.53500  0.38360  1.0000 -0.5860634787
O   O35       1.0  0.38360  0.15040  0.93100  1.0000 -0.5860634787
O   O36       1.0  0.15040  0.38360  0.53500  1.0000 -0.5860634787
O   O37       1.0  0.71500  0.31900  0.09960  1.0000 -0.5860634787
O   O38       1.0  0.31900  0.71500  0.86640  1.0000 -0.5860634787
O   O39       1.0  0.86640  0.09960  0.31900  1.0000 -0.5860634787
O   O40       1.0  0.09960  0.86640  0.71500  1.0000 -0.5860634787
O   O41       1.0  0.45249  0.06669  0.15551  1.0000 -0.4973667903
O   O42       1.0  0.06669  0.45249  0.32531  1.0000 -0.4973667903
O   O43       1.0  0.32531  0.15551  0.06669  1.0000 -0.4973667903
O   O44       1.0  0.15551  0.32531  0.45249  1.0000 -0.4973667903
O   O45       1.0  0.79751  0.18331  0.09449  1.0000 -0.4973667903
O   O46       1.0  0.18331  0.79751  0.92469  1.0000 -0.4973667903
O   O47       1.0  0.92469  0.09449  0.18331  1.0000 -0.4973667903
O   O48       1.0  0.09449  0.92469  0.79751  1.0000 -0.4973667903
