# DDEC6 charges by PACMAN v1.1 (https://github.com/mtap-research/PACMAN-charge/)
data_2011[In][dia]3[FSR]2
_chemical_formula_sum              "In80 H80 C112 S128 N32"
_cell_length_a       21.2772
_cell_length_b       21.418
_cell_length_c       36.01
_cell_angle_alpha    90
_cell_angle_beta     90
_cell_angle_gamma    90

_symmetry_space_group_name_H-M    "P 1"
_symmetry_Int_Tables_number       1

loop_
  _symmetry_equiv_pos_as_xyz
  'x, y, z'

loop_
  _atom_site_type_symbol
  _atom_site_label
  _atom_site_symmetry_multiplicity
  _atom_site_fract_x
  _atom_site_fract_y
  _atom_site_fract_z
  _atom_site_occupancy
  _atom_site_charge
In  In1       1.0  0.07272  0.83738  0.05048  1.0000 0.9484747854
In  In2       1.0  0.42728  0.16262  0.55048  1.0000 0.9418249872
In  In3       1.0  0.92728  0.33738  0.44952  1.0000 0.9418249872
In  In4       1.0  0.57272  0.66262  0.94952  1.0000 0.9418249872
In  In5       1.0  0.08748  0.68969  0.10546  1.0000 0.9285052982
In  In6       1.0  0.41252  0.31031  0.60546  1.0000 0.9238911238
In  In7       1.0  0.91252  0.18969  0.39454  1.0000 0.9238911238
In  In8       1.0  0.58748  0.81031  0.89454  1.0000 0.9238911238
In  In9       1.0  0.92350  0.74481  0.05273  1.0000 0.9100438562
In  In10      1.0  0.57650  0.25519  0.55273  1.0000 0.9040864474
In  In11      1.0  0.07650  0.24481  0.44727  1.0000 0.9040864474
In  In12      1.0  0.42350  0.75519  0.94727  1.0000 0.9040864474
In  In13      1.0  0.98959  0.84376  0.14101  1.0000 0.8643885818
In  In14      1.0  0.51041  0.15624  0.64101  1.0000 0.8643885818
In  In15      1.0  0.01041  0.34376  0.35899  1.0000 0.8643885818
In  In16      1.0  0.48959  0.65624  0.85899  1.0000 0.8643885818
In  In17      1.0  0.07936  0.54804  0.16271  1.0000 0.8896659792
In  In18      1.0  0.42064  0.45196  0.66271  1.0000 0.8896659792
In  In19      1.0  0.92064  0.04804  0.33729  1.0000 0.8896659792
In  In20      1.0  0.57936  0.95196  0.83729  1.0000 0.8896659792
In  In21      1.0  0.92912  0.58353  0.11342  1.0000 0.9891888466
In  In22      1.0  0.57088  0.41647  0.61342  1.0000 0.9816825272
In  In23      1.0  0.07088  0.08353  0.38658  1.0000 0.9816825272
In  In24      1.0  0.42912  0.91647  0.88658  1.0000 0.9816825272
In  In25      1.0  0.99057  0.68347  0.20300  1.0000 0.9484747854
In  In26      1.0  0.50943  0.31653  0.70300  1.0000 0.9484747854
In  In27      1.0  0.00943  0.18347  0.29700  1.0000 0.9484747854
In  In28      1.0  0.49057  0.81653  0.79700  1.0000 0.9484747854
In  In29      1.0  0.78290  0.64229  0.06845  1.0000 0.8896659792
In  In30      1.0  0.71710  0.35771  0.56845  1.0000 0.8896659792
In  In31      1.0  0.21710  0.14229  0.43155  1.0000 0.8896659792
In  In32      1.0  0.28290  0.85771  0.93155  1.0000 0.8896659792
In  In33      1.0  0.82839  0.73661  0.15038  1.0000 0.9607925779
In  In34      1.0  0.67161  0.26339  0.65038  1.0000 0.972536044
In  In35      1.0  0.17161  0.23661  0.34962  1.0000 0.9607925779
In  In36      1.0  0.32839  0.76339  0.84962  1.0000 0.9607925779
In  In37      1.0  0.89719  0.82493  0.22940  1.0000 0.8896659792
In  In38      1.0  0.60281  0.17507  0.72940  1.0000 0.8896659792
In  In39      1.0  0.10281  0.32493  0.27060  1.0000 0.8896659792
In  In40      1.0  0.39719  0.67507  0.77060  1.0000 0.8896659792
In  In41      1.0  0.90422  0.43969  0.82318  1.0000 0.8775400287
In  In42      1.0  0.59578  0.56031  0.32318  1.0000 0.8775400287
In  In43      1.0  0.09578  0.93969  0.67682  1.0000 0.8775400287
In  In44      1.0  0.40422  0.06031  0.17682  1.0000 0.8775400287
In  In45      1.0  0.89403  0.30634  0.88892  1.0000 0.8896659792
In  In46      1.0  0.60597  0.69366  0.38892  1.0000 0.8775400287
In  In47      1.0  0.10597  0.80634  0.61108  1.0000 0.8775400287
In  In48      1.0  0.39403  0.19366  0.11108  1.0000 0.8775400287
In  In49      1.0  0.04847  0.42049  0.88354  1.0000 0.9816825272
In  In50      1.0  0.45153  0.57951  0.38354  1.0000 0.9816825272
In  In51      1.0  0.95153  0.92049  0.61646  1.0000 0.9816825272
In  In52      1.0  0.54847  0.07951  0.11646  1.0000 0.9816825272
In  In53      1.0  0.00585  0.30576  0.79535  1.0000 0.972536044
In  In54      1.0  0.49415  0.69424  0.29535  1.0000 0.972536044
In  In55      1.0  0.99415  0.80576  0.70465  1.0000 0.972536044
In  In56      1.0  0.50585  0.19424  0.20465  1.0000 0.972536044
In  In57      1.0  0.90435  0.16689  0.94985  1.0000 0.9418249872
In  In58      1.0  0.59565  0.83311  0.44985  1.0000 0.9418249872
In  In59      1.0  0.09565  0.66689  0.55015  1.0000 0.9418249872
In  In60      1.0  0.40435  0.33311  0.05015  1.0000 0.9418249872
In  In61      1.0  0.04725  0.26817  0.95298  1.0000 0.9100438562
In  In62      1.0  0.45275  0.73183  0.45298  1.0000 0.9100438562
In  In63      1.0  0.95275  0.76817  0.54702  1.0000 0.9100438562
In  In64      1.0  0.54725  0.23183  0.04702  1.0000 0.9100438562
In  In65      1.0  0.00502  0.15434  0.86565  1.0000 0.8643885818
In  In66      1.0  0.49498  0.84566  0.36565  1.0000 0.8643885818
In  In67      1.0  0.99498  0.65434  0.63435  1.0000 0.8643885818
In  In68      1.0  0.50502  0.34566  0.13435  1.0000 0.8643885818
In  In69      1.0  0.18308  0.37657  0.94148  1.0000 0.8722206321
In  In70      1.0  0.31692  0.62343  0.44148  1.0000 0.8722206321
In  In71      1.0  0.81692  0.87657  0.55852  1.0000 0.8775400287
In  In72      1.0  0.68308  0.12343  0.05852  1.0000 0.8775400287
In  In73      1.0  0.15837  0.27003  0.85975  1.0000 0.9418249872
In  In74      1.0  0.34163  0.72997  0.35975  1.0000 0.9418249872
In  In75      1.0  0.84163  0.77003  0.64025  1.0000 0.972536044
In  In76      1.0  0.65837  0.22997  0.14025  1.0000 0.9418249872
In  In77      1.0  0.11051  0.16593  0.78272  1.0000 0.8775400287
In  In78      1.0  0.38949  0.83407  0.28272  1.0000 0.8896659792
In  In79      1.0  0.88949  0.66593  0.71728  1.0000 0.8775400287
In  In80      1.0  0.61051  0.33407  0.21728  1.0000 0.8775400287
H   H1        1.0  0.19470  0.81880  0.99950  1.0000 0.0910125267
H   H2        1.0  0.30530  0.18120  0.49950  1.0000 0.0910125267
H   H3        1.0  0.80530  0.31880  0.50050  1.0000 0.0910125267
H   H4        1.0  0.69470  0.68120  0.00050  1.0000 0.0910125267
H   H5        1.0  0.04680  0.98720  0.01290  1.0000 0.1387809607
H   H6        1.0  0.45320  0.01280  0.51290  1.0000 0.1387809607
H   H7        1.0  0.95320  0.48720  0.48710  1.0000 0.1387809607
H   H8        1.0  0.54680  0.51280  0.98710  1.0000 0.1387809607
H   H9        1.0  0.05590  0.07620  0.97630  1.0000 0.1387809607
H   H10       1.0  0.44410  0.92380  0.47630  1.0000 0.1387809607
H   H11       1.0  0.94410  0.57620  0.52370  1.0000 0.1387809607
H   H12       1.0  0.55590  0.42380  0.02370  1.0000 0.1387809607
H   H13       1.0  0.12240  0.07480  0.92360  1.0000 0.1387809607
H   H14       1.0  0.37760  0.92520  0.42360  1.0000 0.1387809607
H   H15       1.0  0.87760  0.57480  0.57640  1.0000 0.1387809607
H   H16       1.0  0.62240  0.42520  0.07640  1.0000 0.1387809607
H   H17       1.0  0.19520  0.99280  0.91530  1.0000 0.1483352637
H   H18       1.0  0.30480  0.00720  0.41530  1.0000 0.1483352637
H   H19       1.0  0.80480  0.49280  0.58470  1.0000 0.1483352637
H   H20       1.0  0.69520  0.50720  0.08470  1.0000 0.1483352637
H   H21       1.0  0.07280  0.45660  0.23190  1.0000 0.0846729842
H   H22       1.0  0.42720  0.54340  0.73190  1.0000 0.0910125267
H   H23       1.0  0.92720  0.95660  0.26810  1.0000 0.0910125267
H   H24       1.0  0.57280  0.04340  0.76810  1.0000 0.0910125267
H   H25       1.0  0.21720  0.28580  0.20120  1.0000 0.1589571661
H   H26       1.0  0.28280  0.71420  0.70120  1.0000 0.1589571661
H   H27       1.0  0.78280  0.78580  0.29880  1.0000 0.1589571661
H   H28       1.0  0.71720  0.21420  0.79880  1.0000 0.1589571661
H   H29       1.0  0.27470  0.29550  0.14640  1.0000 0.1483352637
H   H30       1.0  0.22530  0.70450  0.64640  1.0000 0.1483352637
H   H31       1.0  0.72530  0.79550  0.35360  1.0000 0.1483352637
H   H32       1.0  0.77470  0.20450  0.85360  1.0000 0.1483352637
H   H33       1.0  0.28110  0.38720  0.11640  1.0000 0.1483352637
H   H34       1.0  0.21890  0.61280  0.61640  1.0000 0.1483352637
H   H35       1.0  0.71890  0.88720  0.38360  1.0000 0.1483352637
H   H36       1.0  0.78110  0.11280  0.88360  1.0000 0.1483352637
H   H37       1.0  0.20570  0.46510  0.12400  1.0000 0.1483352637
H   H38       1.0  0.29430  0.53490  0.62400  1.0000 0.1483352637
H   H39       1.0  0.79430  0.96510  0.37600  1.0000 0.1483352637
H   H40       1.0  0.70570  0.03490  0.87600  1.0000 0.1483352637
H   H41       1.0  0.92210  0.54340  0.76230  1.0000 0.1138177928
H   H42       1.0  0.57790  0.45660  0.26230  1.0000 0.1138177928
H   H43       1.0  0.07790  0.04340  0.73770  1.0000 0.1166920852
H   H44       1.0  0.42210  0.95660  0.23770  1.0000 0.1138177928
H   H45       1.0  0.75330  0.50070  0.84540  1.0000 0.1682099294
H   H46       1.0  0.74670  0.49930  0.34540  1.0000 0.1682099294
H   H47       1.0  0.24670  0.00070  0.65460  1.0000 0.1682099294
H   H48       1.0  0.25330  0.99930  0.15460  1.0000 0.1682099294
H   H49       1.0  0.66280  0.56800  0.84300  1.0000 0.1310876736
H   H50       1.0  0.83720  0.43200  0.34300  1.0000 0.1310876736
H   H51       1.0  0.33720  0.06800  0.65700  1.0000 0.1310876736
H   H52       1.0  0.16280  0.93200  0.15700  1.0000 0.1310876736
H   H53       1.0  0.66730  0.66450  0.81010  1.0000 0.1589571661
H   H54       1.0  0.83270  0.33550  0.31010  1.0000 0.1589571661
H   H55       1.0  0.33270  0.16450  0.68990  1.0000 0.1589571661
H   H56       1.0  0.16730  0.83550  0.18990  1.0000 0.1589571661
H   H57       1.0  0.74170  0.67020  0.76280  1.0000 0.1589571661
H   H58       1.0  0.75830  0.32980  0.26280  1.0000 0.1589571661
H   H59       1.0  0.25830  0.17020  0.73720  1.0000 0.1589571661
H   H60       1.0  0.24170  0.82980  0.23720  1.0000 0.1589571661
H   H61       1.0  0.76890  0.16800  0.99060  1.0000 0.1387809607
H   H62       1.0  0.73110  0.83200  0.49060  1.0000 0.1387809607
H   H63       1.0  0.23110  0.66800  0.50940  1.0000 0.1483352637
H   H64       1.0  0.26890  0.33200  0.00940  1.0000 0.1387809607
H   H65       1.0  0.94130  0.02790  0.98790  1.0000 0.1483352637
H   H66       1.0  0.55870  0.97210  0.48790  1.0000 0.1483352637
H   H67       1.0  0.05870  0.52790  0.51210  1.0000 0.1483352637
H   H68       1.0  0.44130  0.47210  0.01210  1.0000 0.1483352637
H   H69       1.0  0.94710  0.94670  0.03280  1.0000 0.1387809607
H   H70       1.0  0.55290  0.05330  0.53280  1.0000 0.1387809607
H   H71       1.0  0.05290  0.44670  0.46720  1.0000 0.1387809607
H   H72       1.0  0.44710  0.55330  0.96720  1.0000 0.1387809607
H   H73       1.0  0.86310  0.92860  0.07190  1.0000 0.1387809607
H   H74       1.0  0.63690  0.07140  0.57190  1.0000 0.1387809607
H   H75       1.0  0.13690  0.42860  0.42810  1.0000 0.1387809607
H   H76       1.0  0.36310  0.57140  0.92810  1.0000 0.1387809607
H   H77       1.0  0.77340  0.99000  0.07000  1.0000 0.1483352637
H   H78       1.0  0.72660  0.01000  0.57000  1.0000 0.1483352637
H   H79       1.0  0.22660  0.49000  0.43000  1.0000 0.1483352637
H   H80       1.0  0.27340  0.51000  0.93000  1.0000 0.1483352637
C   C1        1.0  0.17890  0.85840  0.99220  1.0000 0.2641163733
C   C2        1.0  0.32110  0.14160  0.49220  1.0000 0.2641163733
C   C3        1.0  0.82110  0.35840  0.50780  1.0000 0.2641163733
C   C4        1.0  0.67890  0.64160  0.00780  1.0000 0.2641163733
C   C5        1.0  0.12240  0.94310  0.98960  1.0000 0.1387809607
C   C6        1.0  0.37760  0.05690  0.48960  1.0000 0.1387809607
C   C7        1.0  0.87760  0.44310  0.51040  1.0000 0.1387809607
C   C8        1.0  0.62240  0.55690  0.01040  1.0000 0.1387809607
C   C9        1.0  0.07840  0.99020  0.99440  1.0000 -0.0900888513
C   C10       1.0  0.42160  0.00980  0.49440  1.0000 -0.0900888513
C   C11       1.0  0.92160  0.49020  0.50560  1.0000 -0.0900888513
C   C12       1.0  0.57840  0.50980  0.00560  1.0000 -0.0900888513
C   C13       1.0  0.08180  0.04090  0.97160  1.0000 -0.0131238025
C   C14       1.0  0.41820  0.95910  0.47160  1.0000 -0.0131238025
C   C15       1.0  0.91820  0.54090  0.52840  1.0000 -0.0131238025
C   C16       1.0  0.58180  0.45910  0.02840  1.0000 -0.0131238025
C   C17       1.0  0.12390  0.04140  0.94090  1.0000 0.0097746887
C   C18       1.0  0.37610  0.95860  0.44090  1.0000 0.0097746887
C   C19       1.0  0.87610  0.54140  0.55910  1.0000 0.0097746887
C   C20       1.0  0.62390  0.45860  0.05910  1.0000 0.0097746887
C   C21       1.0  0.16730  0.99310  0.93590  1.0000 -0.0716306079
C   C22       1.0  0.33270  0.00690  0.43590  1.0000 -0.0716306079
C   C23       1.0  0.83270  0.49310  0.56410  1.0000 -0.0716306079
C   C24       1.0  0.66730  0.50690  0.06410  1.0000 -0.0716306079
C   C25       1.0  0.16830  0.94500  0.96240  1.0000 0.1483352637
C   C26       1.0  0.33170  0.05500  0.46240  1.0000 0.1483352637
C   C27       1.0  0.83170  0.44500  0.53760  1.0000 0.1483352637
C   C28       1.0  0.66830  0.55500  0.03760  1.0000 0.1483352637
C   C29       1.0  0.10420  0.43840  0.21660  1.0000 0.2490086324
C   C30       1.0  0.39580  0.56160  0.71660  1.0000 0.2490086324
C   C31       1.0  0.89580  0.93840  0.28340  1.0000 0.2490086324
C   C32       1.0  0.60420  0.06160  0.78340  1.0000 0.2490086324
C   C33       1.0  0.17070  0.37360  0.19440  1.0000 0.1310876736
C   C34       1.0  0.32930  0.62640  0.69440  1.0000 0.1310876736
C   C35       1.0  0.82930  0.87360  0.30560  1.0000 0.1310876736
C   C36       1.0  0.67070  0.12640  0.80560  1.0000 0.1310876736
C   C37       1.0  0.21410  0.32180  0.18590  1.0000 -0.0511026472
C   C38       1.0  0.28590  0.67820  0.68590  1.0000 -0.0511026472
C   C39       1.0  0.78590  0.82180  0.31410  1.0000 -0.0511026472
C   C40       1.0  0.71410  0.17820  0.81410  1.0000 -0.0511026472
C   C41       1.0  0.24940  0.32930  0.15460  1.0000 -0.0179981259
C   C42       1.0  0.25060  0.67070  0.65460  1.0000 -0.0179981259
C   C43       1.0  0.75060  0.82930  0.34540  1.0000 -0.0179981259
C   C44       1.0  0.74940  0.17070  0.84540  1.0000 -0.0179981259
C   C45       1.0  0.25000  0.38200  0.13490  1.0000 0.0097746887
C   C46       1.0  0.25000  0.61800  0.63490  1.0000 0.0047445065
C   C47       1.0  0.75000  0.88200  0.36510  1.0000 0.0047445065
C   C48       1.0  0.75000  0.11800  0.86510  1.0000 0.0047445065
C   C49       1.0  0.20780  0.42980  0.14000  1.0000 -0.0808868227
C   C50       1.0  0.29220  0.57020  0.64000  1.0000 -0.0808868227
C   C51       1.0  0.79220  0.92980  0.36000  1.0000 -0.0808868227
C   C52       1.0  0.70780  0.07020  0.86000  1.0000 -0.0808868227
C   C53       1.0  0.16960  0.42240  0.16940  1.0000 0.1310876736
C   C54       1.0  0.33040  0.57760  0.66940  1.0000 0.1310876736
C   C55       1.0  0.83040  0.92240  0.33060  1.0000 0.1310876736
C   C56       1.0  0.66960  0.07760  0.83060  1.0000 0.1310876736
C   C57       1.0  0.88180  0.55360  0.77180  1.0000 0.2490086324
C   C58       1.0  0.61820  0.44640  0.27180  1.0000 0.2490086324
C   C59       1.0  0.11820  0.05360  0.72820  1.0000 0.2490086324
C   C60       1.0  0.38180  0.94640  0.22820  1.0000 0.2490086324
C   C61       1.0  0.79860  0.54870  0.80300  1.0000 0.1682099294
C   C62       1.0  0.70140  0.45130  0.30300  1.0000 0.1682099294
C   C63       1.0  0.20140  0.04870  0.69700  1.0000 0.1682099294
C   C64       1.0  0.29860  0.95130  0.19700  1.0000 0.1682099294
C   C65       1.0  0.75100  0.53520  0.82890  1.0000 -0.0808868227
C   C66       1.0  0.74900  0.46480  0.32890  1.0000 -0.0808868227
C   C67       1.0  0.24900  0.03520  0.67110  1.0000 -0.0808868227
C   C68       1.0  0.25100  0.96480  0.17110  1.0000 -0.0808868227
C   C69       1.0  0.69860  0.57750  0.82840  1.0000 0.0194712849
C   C70       1.0  0.80140  0.42250  0.32840  1.0000 0.0194712849
C   C71       1.0  0.30140  0.07750  0.67160  1.0000 0.0194712849
C   C72       1.0  0.19860  0.92250  0.17160  1.0000 0.0194712849
C   C73       1.0  0.69830  0.63300  0.80680  1.0000 0.0312254246
C   C74       1.0  0.80170  0.36700  0.30680  1.0000 0.0312254246
C   C75       1.0  0.30170  0.13300  0.69320  1.0000 0.0312254246
C   C76       1.0  0.19830  0.86700  0.19320  1.0000 0.0312254246
C   C77       1.0  0.74530  0.63850  0.78110  1.0000 -0.0900888513
C   C78       1.0  0.75470  0.36150  0.28110  1.0000 -0.0900888513
C   C79       1.0  0.25470  0.13850  0.71890  1.0000 -0.0900888513
C   C80       1.0  0.24530  0.86150  0.21890  1.0000 -0.0900888513
C   C81       1.0  0.79490  0.60240  0.78020  1.0000 0.1387809607
C   C82       1.0  0.70510  0.39760  0.28020  1.0000 0.1387809607
C   C83       1.0  0.20510  0.10240  0.71980  1.0000 0.1387809607
C   C84       1.0  0.29490  0.89760  0.21980  1.0000 0.1387809607
C   C85       1.0  0.78800  0.13010  0.99840  1.0000 0.2435404377
C   C86       1.0  0.71200  0.86990  0.49840  1.0000 0.2435404377
C   C87       1.0  0.21200  0.63010  0.50160  1.0000 0.2435404377
C   C88       1.0  0.28800  0.36990  0.00160  1.0000 0.2490086324
C   C89       1.0  0.85860  0.05970  0.00720  1.0000 0.1483352637
C   C90       1.0  0.64140  0.94030  0.50720  1.0000 0.1483352637
C   C91       1.0  0.14140  0.55970  0.49280  1.0000 0.1483352637
C   C92       1.0  0.35860  0.44030  0.99280  1.0000 0.1483352637
C   C93       1.0  0.90880  0.02180  0.00560  1.0000 -0.0900888513
C   C94       1.0  0.59120  0.97820  0.50560  1.0000 -0.0900888513
C   C95       1.0  0.09120  0.52180  0.49440  1.0000 -0.0900888513
C   C96       1.0  0.40880  0.47820  0.99440  1.0000 -0.0900888513
C   C97       1.0  0.91100  0.97270  0.03150  1.0000 -0.0025312869
C   C98       1.0  0.58900  0.02730  0.53150  1.0000 -0.0025312869
C   C99       1.0  0.08900  0.47270  0.46850  1.0000 -0.0025312869
C   C100      1.0  0.41100  0.52730  0.96850  1.0000 -0.0025312869
C   C101      1.0  0.86100  0.96220  0.05470  1.0000 0.0097746887
C   C102      1.0  0.63900  0.03780  0.55470  1.0000 0.0047445065
C   C103      1.0  0.13900  0.46220  0.44530  1.0000 0.0047445065
C   C104      1.0  0.36100  0.53780  0.94530  1.0000 0.0047445065
C   C105      1.0  0.80790  0.99870  0.05400  1.0000 -0.0716306079
C   C106      1.0  0.69210  0.00130  0.55400  1.0000 -0.0716306079
C   C107      1.0  0.19210  0.49870  0.44600  1.0000 -0.0716306079
C   C108      1.0  0.30790  0.50130  0.94600  1.0000 -0.0716306079
C   C109      1.0  0.80620  0.04780  0.02980  1.0000 0.1589571661
C   C110      1.0  0.69380  0.95220  0.52980  1.0000 0.1589571661
C   C111      1.0  0.19380  0.54780  0.47020  1.0000 0.1589571661
C   C112      1.0  0.30620  0.45220  0.97020  1.0000 0.1589571661
S   S1        1.0  0.14660  0.75370  0.06327  1.0000 -0.6203929529
S   S2        1.0  0.35340  0.24630  0.56327  1.0000 -0.6203929529
S   S3        1.0  0.85340  0.25370  0.43673  1.0000 -0.6203929529
S   S4        1.0  0.64660  0.74630  0.93673  1.0000 -0.6203929529
S   S5        1.0  0.98580  0.80660  0.01076  1.0000 -0.5998664267
S   S6        1.0  0.51420  0.19340  0.51076  1.0000 -0.5998664267
S   S7        1.0  0.01420  0.30660  0.48924  1.0000 -0.5998664267
S   S8        1.0  0.48580  0.69340  0.98924  1.0000 -0.5998664267
S   S9        1.0  0.04990  0.90970  0.10009  1.0000 -0.5998664267
S   S10       1.0  0.45010  0.09030  0.60009  1.0000 -0.5998664267
S   S11       1.0  0.95010  0.40970  0.39991  1.0000 -0.5998664267
S   S12       1.0  0.54990  0.59030  0.89991  1.0000 -0.5998664267
S   S13       1.0  0.15270  0.60280  0.12320  1.0000 -0.6111062292
S   S14       1.0  0.34730  0.39720  0.62320  1.0000 -0.6111062292
S   S15       1.0  0.84730  0.10280  0.37680  1.0000 -0.6111062292
S   S16       1.0  0.65270  0.89720  0.87680  1.0000 -0.6111062292
S   S17       1.0  0.99060  0.65370  0.07198  1.0000 -0.7460069988
S   S18       1.0  0.50940  0.34630  0.57198  1.0000 -0.7440913353
S   S19       1.0  0.00940  0.15370  0.42802  1.0000 -0.7460069988
S   S20       1.0  0.49060  0.84630  0.92802  1.0000 -0.7440913353
S   S21       1.0  0.05510  0.75190  0.16130  1.0000 -0.6973193544
S   S22       1.0  0.44490  0.24810  0.66130  1.0000 -0.6973193544
S   S23       1.0  0.94490  0.25190  0.33870  1.0000 -0.6973193544
S   S24       1.0  0.55510  0.74810  0.83870  1.0000 -0.6973193544
S   S25       1.0  0.83190  0.70670  0.02044  1.0000 -0.6111062292
S   S26       1.0  0.66810  0.29330  0.52044  1.0000 -0.6111062292
S   S27       1.0  0.16810  0.20670  0.47956  1.0000 -0.6111062292
S   S28       1.0  0.33190  0.79330  0.97956  1.0000 -0.6111062292
S   S29       1.0  0.89190  0.80570  0.10853  1.0000 -0.6973193544
S   S30       1.0  0.60810  0.19430  0.60853  1.0000 -0.6973193544
S   S31       1.0  0.10810  0.30570  0.39147  1.0000 -0.6973193544
S   S32       1.0  0.39190  0.69430  0.89147  1.0000 -0.6973193544
S   S33       1.0  0.95690  0.90190  0.19486  1.0000 -0.5736259703
S   S34       1.0  0.54310  0.09810  0.69486  1.0000 -0.5736259703
S   S35       1.0  0.04310  0.40190  0.30514  1.0000 -0.5736259703
S   S36       1.0  0.45690  0.59810  0.80514  1.0000 -0.5736259703
S   S37       1.0  0.99430  0.49640  0.13042  1.0000 -0.6387769464
S   S38       1.0  0.50570  0.50360  0.63042  1.0000 -0.6203929529
S   S39       1.0  0.00570  0.99640  0.36958  1.0000 -0.6203929529
S   S40       1.0  0.49430  0.00360  0.86958  1.0000 -0.6203929529
S   S41       1.0  0.05330  0.59590  0.22215  1.0000 -0.6111062292
S   S42       1.0  0.44670  0.40410  0.72215  1.0000 -0.6111062292
S   S43       1.0  0.94670  0.09590  0.27785  1.0000 -0.6111062292
S   S44       1.0  0.55330  0.90410  0.77785  1.0000 -0.6203929529
S   S45       1.0  0.83840  0.54490  0.08049  1.0000 -0.5998664267
S   S46       1.0  0.66160  0.45510  0.58049  1.0000 -0.5998664267
S   S47       1.0  0.16160  0.04490  0.41951  1.0000 -0.5998664267
S   S48       1.0  0.33840  0.95510  0.91951  1.0000 -0.5998664267
S   S49       1.0  0.89490  0.64570  0.16851  1.0000 -0.72921663
S   S50       1.0  0.60510  0.35430  0.66851  1.0000 -0.72921663
S   S51       1.0  0.10510  0.14570  0.33149  1.0000 -0.72921663
S   S52       1.0  0.39490  0.85430  0.83149  1.0000 -0.72921663
S   S53       1.0  0.95640  0.74010  0.25701  1.0000 -0.6203929529
S   S54       1.0  0.54360  0.25990  0.75701  1.0000 -0.6203929529
S   S55       1.0  0.04360  0.24010  0.24299  1.0000 -0.6203929529
S   S56       1.0  0.45640  0.75990  0.74299  1.0000 -0.6203929529
S   S57       1.0  0.73610  0.69490  0.12033  1.0000 -0.6308710807
S   S58       1.0  0.76390  0.30510  0.62033  1.0000 -0.6387769464
S   S59       1.0  0.26390  0.19490  0.37967  1.0000 -0.6308710807
S   S60       1.0  0.23610  0.80510  0.87967  1.0000 -0.6308710807
S   S61       1.0  0.79590  0.79430  0.20448  1.0000 -0.6111062292
S   S62       1.0  0.70410  0.20570  0.70448  1.0000 -0.6111062292
S   S63       1.0  0.20410  0.29430  0.29552  1.0000 -0.6203929529
S   S64       1.0  0.29590  0.70570  0.79552  1.0000 -0.6111062292
S   S65       1.0  0.82760  0.38560  0.86055  1.0000 -0.5809096876
S   S66       1.0  0.67240  0.61440  0.36055  1.0000 -0.5809096876
S   S67       1.0  0.17240  0.88560  0.63945  1.0000 -0.5809096876
S   S68       1.0  0.32760  0.11440  0.13945  1.0000 -0.5809096876
S   S69       1.0  0.98220  0.50020  0.85663  1.0000 -0.6203929529
S   S70       1.0  0.51780  0.49980  0.35663  1.0000 -0.6203929529
S   S71       1.0  0.01780  0.00020  0.64337  1.0000 -0.6203929529
S   S72       1.0  0.48220  0.99980  0.14337  1.0000 -0.6203929529
S   S73       1.0  0.94150  0.38630  0.76773  1.0000 -0.5998664267
S   S74       1.0  0.55850  0.61370  0.26773  1.0000 -0.6111062292
S   S75       1.0  0.05850  0.88630  0.73227  1.0000 -0.6111062292
S   S76       1.0  0.44150  0.11370  0.23227  1.0000 -0.5998664267
S   S77       1.0  0.83040  0.24670  0.93110  1.0000 -0.6111062292
S   S78       1.0  0.66960  0.75330  0.43110  1.0000 -0.6111062292
S   S79       1.0  0.16960  0.74670  0.56890  1.0000 -0.6111062292
S   S80       1.0  0.33040  0.25330  0.06890  1.0000 -0.6111062292
S   S81       1.0  0.98220  0.35430  0.92546  1.0000 -0.72921663
S   S82       1.0  0.51780  0.64570  0.42546  1.0000 -0.7211118016
S   S83       1.0  0.01780  0.85430  0.57454  1.0000 -0.7211118016
S   S84       1.0  0.48220  0.14570  0.07454  1.0000 -0.72921663
S   S85       1.0  0.93990  0.24090  0.83806  1.0000 -0.6880633864
S   S86       1.0  0.56010  0.75910  0.33806  1.0000 -0.681053296
S   S87       1.0  0.06010  0.74090  0.66194  1.0000 -0.681053296
S   S88       1.0  0.43990  0.25910  0.16194  1.0000 -0.681053296
S   S89       1.0  0.13260  0.46910  0.91755  1.0000 -0.6203929529
S   S90       1.0  0.36740  0.53090  0.41755  1.0000 -0.6203929529
S   S91       1.0  0.86740  0.96910  0.58245  1.0000 -0.6203929529
S   S92       1.0  0.63260  0.03090  0.08245  1.0000 -0.6203929529
S   S93       1.0  0.09240  0.35490  0.83181  1.0000 -0.7211118016
S   S94       1.0  0.40760  0.64510  0.33181  1.0000 -0.7211118016
S   S95       1.0  0.90760  0.85490  0.66819  1.0000 -0.72921663
S   S96       1.0  0.59240  0.14510  0.16819  1.0000 -0.7211118016
S   S97       1.0  0.04790  0.23970  0.74682  1.0000 -0.6308710807
S   S98       1.0  0.45210  0.76030  0.24682  1.0000 -0.6387769464
S   S99       1.0  0.95210  0.73970  0.75318  1.0000 -0.6308710807
S   S100      1.0  0.54790  0.26030  0.25318  1.0000 -0.6308710807
S   S101      1.0  0.98580  0.20100  0.99240  1.0000 -0.6203929529
S   S102      1.0  0.51420  0.79900  0.49240  1.0000 -0.6203929529
S   S103      1.0  0.01420  0.70100  0.50760  1.0000 -0.6203929529
S   S104      1.0  0.48580  0.29900  0.00760  1.0000 -0.6203929529
S   S105      1.0  0.93720  0.09190  0.90423  1.0000 -0.5872048173
S   S106      1.0  0.56280  0.90810  0.40423  1.0000 -0.5872048173
S   S107      1.0  0.06280  0.59190  0.59577  1.0000 -0.5872048173
S   S108      1.0  0.43720  0.40810  0.09577  1.0000 -0.5872048173
S   S109      1.0  0.12890  0.31710  0.98882  1.0000 -0.6387769464
S   S110      1.0  0.37110  0.68290  0.48882  1.0000 -0.6387769464
S   S111      1.0  0.87110  0.81710  0.51118  1.0000 -0.6387769464
S   S112      1.0  0.62890  0.18290  0.01118  1.0000 -0.6387769464
S   S113      1.0  0.09270  0.20360  0.90195  1.0000 -0.674961749
S   S114      1.0  0.40730  0.79640  0.40195  1.0000 -0.674961749
S   S115      1.0  0.90730  0.70360  0.59805  1.0000 -0.681053296
S   S116      1.0  0.59270  0.29640  0.09805  1.0000 -0.681053296
S   S117      1.0  0.05160  0.09040  0.81830  1.0000 -0.5590023581
S   S118      1.0  0.44840  0.90960  0.31830  1.0000 -0.5590023581
S   S119      1.0  0.94840  0.59040  0.68170  1.0000 -0.5590023581
S   S120      1.0  0.55160  0.40960  0.18170  1.0000 -0.5590023581
S   S121      1.0  0.24080  0.31690  0.89591  1.0000 -0.6308710807
S   S122      1.0  0.25920  0.68310  0.39591  1.0000 -0.6308710807
S   S123      1.0  0.75920  0.81690  0.60409  1.0000 -0.6387769464
S   S124      1.0  0.74080  0.18310  0.10409  1.0000 -0.6308710807
S   S125      1.0  0.20390  0.20830  0.81088  1.0000 -0.5998664267
S   S126      1.0  0.29610  0.79170  0.31088  1.0000 -0.5998664267
S   S127      1.0  0.79610  0.70830  0.68912  1.0000 -0.5998664267
S   S128      1.0  0.70390  0.29170  0.18912  1.0000 -0.5998664267
N   N1        1.0  0.13050  0.88720  0.01060  1.0000 -0.3278803412
N   N2        1.0  0.36950  0.11280  0.51060  1.0000 -0.3278803412
N   N3        1.0  0.86950  0.38720  0.48940  1.0000 -0.3278803412
N   N4        1.0  0.63050  0.61280  0.98940  1.0000 -0.3278803412
N   N5        1.0  0.20220  0.89010  0.96330  1.0000 -0.312343366
N   N6        1.0  0.29780  0.10990  0.46330  1.0000 -0.312343366
N   N7        1.0  0.79780  0.39010  0.53670  1.0000 -0.312343366
N   N8        1.0  0.70220  0.60990  0.03670  1.0000 -0.312343366
N   N9        1.0  0.12700  0.46630  0.18490  1.0000 -0.2917699549
N   N10       1.0  0.37300  0.53370  0.68490  1.0000 -0.3001169943
N   N11       1.0  0.87300  0.96630  0.31510  1.0000 -0.2917699549
N   N12       1.0  0.62700  0.03370  0.81510  1.0000 -0.2917699549
N   N13       1.0  0.13050  0.38360  0.22360  1.0000 -0.2917699549
N   N14       1.0  0.36950  0.61640  0.72360  1.0000 -0.3001169943
N   N15       1.0  0.86950  0.88360  0.27640  1.0000 -0.2917699549
N   N16       1.0  0.63050  0.11640  0.77640  1.0000 -0.2917699549
N   N17       1.0  0.85400  0.51760  0.79680  1.0000 -0.2917699549
N   N18       1.0  0.64600  0.48240  0.29680  1.0000 -0.2917699549
N   N19       1.0  0.14600  0.01760  0.70320  1.0000 -0.2917699549
N   N20       1.0  0.35400  0.98240  0.20320  1.0000 -0.2917699549
N   N21       1.0  0.85260  0.60300  0.76070  1.0000 -0.2726250026
N   N22       1.0  0.64740  0.39700  0.26070  1.0000 -0.2767709924
N   N23       1.0  0.14740  0.10300  0.73930  1.0000 -0.2767709924
N   N24       1.0  0.35260  0.89700  0.23930  1.0000 -0.2767709924
N   N25       1.0  0.84360  0.11090  0.98530  1.0000 -0.3001169943
N   N26       1.0  0.65640  0.88910  0.48530  1.0000 -0.3001169943
N   N27       1.0  0.15640  0.61090  0.51470  1.0000 -0.3001169943
N   N28       1.0  0.34360  0.38910  0.01470  1.0000 -0.3001169943
N   N29       1.0  0.76160  0.09250  0.02300  1.0000 -0.312343366
N   N30       1.0  0.73840  0.90750  0.52300  1.0000 -0.312343366
N   N31       1.0  0.23840  0.59250  0.47700  1.0000 -0.312343366
N   N32       1.0  0.26160  0.40750  0.97700  1.0000 -0.312343366
