# DDEC6 charges by PACMAN v1.1 (https://github.com/mtap-research/PACMAN-charge/)
data_2012[Ag][pts]3[FSR]1
_chemical_formula_sum              "Ag4 H72 C56 N24"
_cell_length_a       6.6737
_cell_length_b       18.8769
_cell_length_c       13.5525
_cell_angle_alpha    90
_cell_angle_beta     95.266
_cell_angle_gamma    90

_symmetry_space_group_name_H-M    "P 1"
_symmetry_Int_Tables_number       1

loop_
  _symmetry_equiv_pos_as_xyz
  'x, y, z'

loop_
  _atom_site_type_symbol
  _atom_site_label
  _atom_site_symmetry_multiplicity
  _atom_site_fract_x
  _atom_site_fract_y
  _atom_site_fract_z
  _atom_site_occupancy
  _atom_site_charge
Ag  Ag1       1.0  0.72906  0.99147  0.05406  1.0000 0.2519644063
Ag  Ag2       1.0  0.27094  0.49147  0.44594  1.0000 0.2519644063
Ag  Ag3       1.0  0.27094  0.00853  0.94594  1.0000 0.2519644063
Ag  Ag4       1.0  0.72906  0.50853  0.55406  1.0000 0.2519644063
H   H1        1.0  0.32690  0.98430  0.20540  1.0000 0.1177932209
H   H2        1.0  0.67310  0.48430  0.29460  1.0000 0.1177932209
H   H3        1.0  0.67310  0.01570  0.79460  1.0000 0.1177932209
H   H4        1.0  0.32690  0.51570  0.70540  1.0000 0.1177932209
H   H5        1.0  0.36240  0.78060  0.16050  1.0000 0.107046758
H   H6        1.0  0.63760  0.28060  0.33950  1.0000 0.107046758
H   H7        1.0  0.63760  0.21940  0.83950  1.0000 0.107046758
H   H8        1.0  0.36240  0.71940  0.66050  1.0000 0.107046758
H   H9        1.0  0.75190  0.68430  0.49000  1.0000 0.1177932209
H   H10       1.0  0.24810  0.18430  0.01000  1.0000 0.1177932209
H   H11       1.0  0.24810  0.31570  0.51000  1.0000 0.1177932209
H   H12       1.0  0.75190  0.81570  0.99000  1.0000 0.1177932209
H   H13       1.0  0.23930  0.65390  0.35530  1.0000 0.1177932209
H   H14       1.0  0.76070  0.15390  0.14470  1.0000 0.1177932209
H   H15       1.0  0.76070  0.34610  0.64470  1.0000 0.1177932209
H   H16       1.0  0.23930  0.84610  0.85530  1.0000 0.1177932209
H   H17       1.0  0.27730  0.76830  0.33120  1.0000 0.1013081062
H   H18       1.0  0.72270  0.26830  0.16880  1.0000 0.1013081062
H   H19       1.0  0.72270  0.23170  0.66880  1.0000 0.1013081062
H   H20       1.0  0.27730  0.73170  0.83120  1.0000 0.1013081062
H   H21       1.0  0.09210  0.76230  0.25110  1.0000 0.107046758
H   H22       1.0  0.90790  0.26230  0.24890  1.0000 0.107046758
H   H23       1.0  0.90790  0.23770  0.74890  1.0000 0.107046758
H   H24       1.0  0.09210  0.73770  0.75110  1.0000 0.107046758
H   H25       1.0  0.00000  0.80350  0.53900  1.0000 0.1013081062
H   H26       1.0  0.00000  0.30350  0.96100  1.0000 0.1013081062
H   H27       1.0  0.00000  0.19650  0.46100  1.0000 0.1013081062
H   H28       1.0  0.00000  0.69650  0.03900  1.0000 0.1013081062
H   H29       1.0  0.22020  0.79330  0.50890  1.0000 0.1013081062
H   H30       1.0  0.77980  0.29330  0.99110  1.0000 0.1013081062
H   H31       1.0  0.77980  0.20670  0.49110  1.0000 0.1013081062
H   H32       1.0  0.22020  0.70670  0.00890  1.0000 0.1013081062
H   H33       1.0  0.15470  0.91600  0.52750  1.0000 0.0706905883
H   H34       1.0  0.84530  0.41600  0.97250  1.0000 0.0706905883
H   H35       1.0  0.84530  0.08400  0.47250  1.0000 0.0706905883
H   H36       1.0  0.15470  0.58400  0.02750  1.0000 0.0706905883
H   H37       1.0  0.37680  0.88630  0.40610  1.0000 0.107046758
H   H38       1.0  0.62320  0.38630  0.09390  1.0000 0.107046758
H   H39       1.0  0.62320  0.11370  0.59390  1.0000 0.107046758
H   H40       1.0  0.37680  0.61370  0.90610  1.0000 0.107046758
H   H41       1.0  0.25510  0.95500  0.37290  1.0000 0.1013081062
H   H42       1.0  0.74490  0.45500  0.12710  1.0000 0.1013081062
H   H43       1.0  0.74490  0.04500  0.62710  1.0000 0.1013081062
H   H44       1.0  0.25510  0.54500  0.87290  1.0000 0.1013081062
H   H45       1.0  0.89290  0.87040  0.19660  1.0000 0.107046758
H   H46       1.0  0.10710  0.37040  0.30340  1.0000 0.107046758
H   H47       1.0  0.10710  0.12960  0.80340  1.0000 0.107046758
H   H48       1.0  0.89290  0.62960  0.69660  1.0000 0.107046758
H   H49       1.0  0.95280  0.94510  0.24170  1.0000 0.1013081062
H   H50       1.0  0.04720  0.44510  0.25830  1.0000 0.1013081062
H   H51       1.0  0.04720  0.05490  0.75830  1.0000 0.1013081062
H   H52       1.0  0.95280  0.55490  0.74170  1.0000 0.1013081062
H   H53       1.0  0.67520  0.90100  0.31880  1.0000 0.0600001445
H   H54       1.0  0.32480  0.40100  0.18120  1.0000 0.0600001445
H   H55       1.0  0.32480  0.09900  0.68120  1.0000 0.0600001445
H   H56       1.0  0.67520  0.59900  0.81880  1.0000 0.0600001445
H   H57       1.0  0.70410  0.79450  0.41160  1.0000 0.1013081062
H   H58       1.0  0.29590  0.29450  0.08840  1.0000 0.1013081062
H   H59       1.0  0.29590  0.20550  0.58840  1.0000 0.1013081062
H   H60       1.0  0.70410  0.70550  0.91160  1.0000 0.1013081062
H   H61       1.0  0.73800  0.77820  0.30040  1.0000 0.1013081062
H   H62       1.0  0.26200  0.27820  0.19960  1.0000 0.1013081062
H   H63       1.0  0.26200  0.22180  0.69960  1.0000 0.1013081062
H   H64       1.0  0.73800  0.72180  0.80040  1.0000 0.1013081062
H   H65       1.0  0.89900  0.97080  0.42110  1.0000 0.1013081062
H   H66       1.0  0.10100  0.47080  0.07890  1.0000 0.1013081062
H   H67       1.0  0.10100  0.02920  0.57890  1.0000 0.1013081062
H   H68       1.0  0.89900  0.52920  0.92110  1.0000 0.1013081062
H   H69       1.0  0.80300  0.91270  0.48520  1.0000 0.1013081062
H   H70       1.0  0.19700  0.41270  0.01480  1.0000 0.1013081062
H   H71       1.0  0.19700  0.08730  0.51480  1.0000 0.1013081062
H   H72       1.0  0.80300  0.58730  0.98520  1.0000 0.1013081062
C   C1        1.0  0.35950  0.94050  0.17990  1.0000 0.0309386168
C   C2        1.0  0.64050  0.44050  0.32010  1.0000 0.0309386168
C   C3        1.0  0.64050  0.05950  0.82010  1.0000 0.0309386168
C   C4        1.0  0.35950  0.55950  0.67990  1.0000 0.0309386168
C   C5        1.0  0.37970  0.82930  0.15480  1.0000 0.0309386168
C   C6        1.0  0.62030  0.32930  0.34520  1.0000 0.0309386168
C   C7        1.0  0.62030  0.17070  0.84520  1.0000 0.0309386168
C   C8        1.0  0.37970  0.67070  0.65480  1.0000 0.0309386168
C   C9        1.0  0.86200  0.66290  0.46490  1.0000 0.0600001445
C   C10       1.0  0.13800  0.16290  0.03510  1.0000 0.0600001445
C   C11       1.0  0.13800  0.33710  0.53510  1.0000 0.0600001445
C   C12       1.0  0.86200  0.83710  0.96490  1.0000 0.0537490707
C   C13       1.0  0.12850  0.64640  0.39090  1.0000 0.0309386168
C   C14       1.0  0.87150  0.14640  0.10910  1.0000 0.0309386168
C   C15       1.0  0.87150  0.35360  0.60910  1.0000 0.0309386168
C   C16       1.0  0.12850  0.85360  0.89090  1.0000 0.0309386168
C   C17       1.0  0.15690  0.86670  0.29080  1.0000 0.2573688786
C   C18       1.0  0.84310  0.36670  0.20920  1.0000 0.2573688786
C   C19       1.0  0.84310  0.13330  0.70920  1.0000 0.2573688786
C   C20       1.0  0.15690  0.63330  0.79080  1.0000 0.2573688786
C   C21       1.0  0.14430  0.78680  0.31090  1.0000 -0.3782491896
C   C22       1.0  0.85570  0.28680  0.18910  1.0000 -0.3782491896
C   C23       1.0  0.85570  0.21320  0.68910  1.0000 -0.3782491896
C   C24       1.0  0.14430  0.71320  0.81090  1.0000 -0.3782491896
C   C25       1.0  0.00550  0.77460  0.39270  1.0000 0.2433446061
C   C26       1.0  0.99450  0.27460  0.10730  1.0000 0.2433446061
C   C27       1.0  0.99450  0.22540  0.60730  1.0000 0.2433446061
C   C28       1.0  0.00550  0.72540  0.89270  1.0000 0.2433446061
C   C29       1.0  0.08790  0.81180  0.48710  1.0000 -0.3198990811
C   C30       1.0  0.91210  0.31180  0.01290  1.0000 -0.3198990811
C   C31       1.0  0.91210  0.18820  0.51290  1.0000 -0.3198990811
C   C32       1.0  0.08790  0.68820  0.98710  1.0000 -0.3198990811
C   C33       1.0  0.10190  0.89170  0.46670  1.0000 0.076966474
C   C34       1.0  0.89810  0.39170  0.03330  1.0000 0.076966474
C   C35       1.0  0.89810  0.10830  0.53330  1.0000 0.076966474
C   C36       1.0  0.10190  0.60830  0.96670  1.0000 0.076966474
C   C37       1.0  0.24380  0.90460  0.38520  1.0000 -0.3284198184
C   C38       1.0  0.75620  0.40460  0.11480  1.0000 -0.3284198184
C   C39       1.0  0.75620  0.09540  0.61480  1.0000 -0.3284198184
C   C40       1.0  0.24380  0.59540  0.88520  1.0000 -0.3284198184
C   C41       1.0  0.94610  0.89490  0.25630  1.0000 -0.3284198184
C   C42       1.0  0.05390  0.39490  0.24370  1.0000 -0.3284198184
C   C43       1.0  0.05390  0.10510  0.74370  1.0000 -0.3284198184
C   C44       1.0  0.94610  0.60510  0.75630  1.0000 -0.3284198184
C   C45       1.0  0.80960  0.88240  0.33960  1.0000 0.076966474
C   C46       1.0  0.19040  0.38240  0.16040  1.0000 0.076966474
C   C47       1.0  0.19040  0.11760  0.66040  1.0000 0.076966474
C   C48       1.0  0.80960  0.61760  0.83960  1.0000 0.076966474
C   C49       1.0  0.79280  0.80260  0.35990  1.0000 -0.3198990811
C   C50       1.0  0.20720  0.30260  0.14010  1.0000 -0.3198990811
C   C51       1.0  0.20720  0.19740  0.64010  1.0000 -0.3198990811
C   C52       1.0  0.79280  0.69740  0.85990  1.0000 -0.3198990811
C   C53       1.0  0.89180  0.92030  0.43340  1.0000 -0.2861221571
C   C54       1.0  0.10820  0.42030  0.06660  1.0000 -0.2861221571
C   C55       1.0  0.10820  0.07970  0.56660  1.0000 -0.2861221571
C   C56       1.0  0.89180  0.57970  0.93340  1.0000 -0.2861221571
N   N1        1.0  0.47780  0.93100  0.10890  1.0000 -0.1792157877
N   N2        1.0  0.52220  0.43100  0.39110  1.0000 -0.1792157877
N   N3        1.0  0.52220  0.06900  0.89110  1.0000 -0.1792157877
N   N4        1.0  0.47780  0.56900  0.60890  1.0000 -0.1792157877
N   N5        1.0  0.49130  0.85870  0.09220  1.0000 -0.2554327983
N   N6        1.0  0.50870  0.35870  0.40780  1.0000 -0.2554327983
N   N7        1.0  0.50870  0.14130  0.90780  1.0000 -0.2554327983
N   N8        1.0  0.49130  0.64130  0.59220  1.0000 -0.2554327983
N   N9        1.0  0.29190  0.87770  0.21050  1.0000 -0.073547756
N   N10       1.0  0.70810  0.37770  0.28950  1.0000 -0.073547756
N   N11       1.0  0.70810  0.12230  0.78950  1.0000 -0.073547756
N   N12       1.0  0.29190  0.62230  0.71050  1.0000 -0.073547756
N   N13       1.0  0.90840  0.59590  0.47580  1.0000 -0.1860574398
N   N14       1.0  0.09160  0.09590  0.02420  1.0000 -0.1860574398
N   N15       1.0  0.09160  0.40410  0.52420  1.0000 -0.1860574398
N   N16       1.0  0.90840  0.90410  0.97580  1.0000 -0.1860574398
N   N17       1.0  0.07830  0.58540  0.42800  1.0000 -0.1527187291
N   N18       1.0  0.92170  0.08540  0.07200  1.0000 -0.1527187291
N   N19       1.0  0.92170  0.41460  0.57200  1.0000 -0.1527187291
N   N20       1.0  0.07830  0.91460  0.92800  1.0000 -0.1527187291
N   N21       1.0  0.99480  0.69700  0.41230  1.0000 -0.073547756
N   N22       1.0  0.00520  0.19700  0.08770  1.0000 -0.0750078995
N   N23       1.0  0.00520  0.30300  0.58770  1.0000 -0.073547756
N   N24       1.0  0.99480  0.80300  0.91230  1.0000 -0.073547756
