# DDEC6 charges by PACMAN v1.1 (https://github.com/mtap-research/PACMAN-charge/)
data_2012[In][dia]3[FSR]2
_chemical_formula_sum              "In8 H128 C224 O64"
_cell_length_a       28.267
_cell_length_b       23.525
_cell_length_c       22.9753
_cell_angle_alpha    74.8635
_cell_angle_beta     53.4531
_cell_angle_gamma    51.6835

_symmetry_space_group_name_H-M    "P 1"
_symmetry_Int_Tables_number       1

loop_
  _symmetry_equiv_pos_as_xyz
  'x, y, z'

loop_
  _atom_site_type_symbol
  _atom_site_label
  _atom_site_symmetry_multiplicity
  _atom_site_fract_x
  _atom_site_fract_y
  _atom_site_fract_z
  _atom_site_occupancy
  _atom_site_charge
In  In1       1.0  0.73835  0.73835  0.26165  1.0000 1.3464648243
In  In2       1.0  0.98835  0.98835  0.51165  1.0000 1.3464648243
In  In3       1.0  0.26165  0.26165  0.73835  1.0000 1.3464648243
In  In4       1.0  0.51165  0.51165  0.98835  1.0000 1.3464648243
In  In5       1.0  0.37778  0.12222  0.37778  1.0000 1.3298660037
In  In6       1.0  0.12778  0.87222  0.12778  1.0000 1.3298660037
In  In7       1.0  0.12222  0.37778  0.12222  1.0000 1.3298660037
In  In8       1.0  0.87222  0.12778  0.87222  1.0000 1.3298660037
H   H1        1.0  0.69140  0.90280  0.41060  1.0000 0.1297631389
H   H2        1.0  0.90280  0.69140  0.99520  1.0000 0.1297631389
H   H3        1.0  0.83940  0.25480  0.55860  1.0000 0.1297631389
H   H4        1.0  0.25480  0.83940  0.34720  1.0000 0.1297631389
H   H5        1.0  0.72450  0.94530  0.44830  1.0000 0.1218748195
H   H6        1.0  0.94530  0.72450  0.88190  1.0000 0.1218748195
H   H7        1.0  0.80170  0.36810  0.52550  1.0000 0.1218748195
H   H8        1.0  0.36810  0.80170  0.30470  1.0000 0.1218748195
H   H9        1.0  0.93670  0.77590  0.31110  1.0000 0.1218748195
H   H10       1.0  0.77590  0.93670  0.97630  1.0000 0.1218748195
H   H11       1.0  0.93890  0.27370  0.31330  1.0000 0.1218748195
H   H12       1.0  0.27370  0.93890  0.47410  1.0000 0.1218748195
H   H13       1.0  0.90110  0.73350  0.27830  1.0000 0.1297631389
H   H14       1.0  0.73350  0.90110  0.08710  1.0000 0.1297631389
H   H15       1.0  0.97170  0.16290  0.34890  1.0000 0.1297631389
H   H16       1.0  0.16290  0.97170  0.51650  1.0000 0.1297631389
H   H17       1.0  0.76150  0.94530  0.51250  1.0000 0.1218748195
H   H18       1.0  0.94530  0.76150  0.78070  1.0000 0.1218748195
H   H19       1.0  0.73750  0.46930  0.48850  1.0000 0.1218748195
H   H20       1.0  0.46930  0.73750  0.30470  1.0000 0.1218748195
H   H21       1.0  0.80090  0.98930  0.54270  1.0000 0.1218748195
H   H22       1.0  0.98930  0.80090  0.66710  1.0000 0.1218748195
H   H23       1.0  0.70730  0.58290  0.44910  1.0000 0.1218748195
H   H24       1.0  0.58290  0.70730  0.26070  1.0000 0.1218748195
H   H25       1.0  0.99740  0.87940  0.35740  1.0000 0.1460931911
H   H26       1.0  0.87940  0.99740  0.76580  1.0000 0.1460931911
H   H27       1.0  0.89260  0.48420  0.25260  1.0000 0.1460931911
H   H28       1.0  0.48420  0.89260  0.37060  1.0000 0.1460931911
H   H29       1.0  0.96190  0.84250  0.31770  1.0000 0.1218748195
H   H30       1.0  0.84250  0.96190  0.87790  1.0000 0.1218748195
H   H31       1.0  0.93230  0.37210  0.28810  1.0000 0.1218748195
H   H32       1.0  0.37210  0.93230  0.40750  1.0000 0.1218748195
H   H33       1.0  0.41060  0.99520  0.69140  1.0000 0.1297631389
H   H34       1.0  0.99520  0.41060  0.90280  1.0000 0.1297631389
H   H35       1.0  0.55860  0.34720  0.83940  1.0000 0.1297631389
H   H36       1.0  0.34720  0.55860  0.25480  1.0000 0.1297631389
H   H37       1.0  0.44830  0.88190  0.72450  1.0000 0.1218748195
H   H38       1.0  0.88190  0.44830  0.94530  1.0000 0.1218748195
H   H39       1.0  0.52550  0.30470  0.80170  1.0000 0.1218748195
H   H40       1.0  0.30470  0.52550  0.36810  1.0000 0.1218748195
H   H41       1.0  0.31110  0.97630  0.93670  1.0000 0.1218748195
H   H42       1.0  0.97630  0.31110  0.77590  1.0000 0.1218748195
H   H43       1.0  0.31330  0.47410  0.93890  1.0000 0.1218748195
H   H44       1.0  0.47410  0.31330  0.27370  1.0000 0.1218748195
H   H45       1.0  0.27830  0.08710  0.90110  1.0000 0.1297631389
H   H46       1.0  0.08710  0.27830  0.73350  1.0000 0.1297631389
H   H47       1.0  0.34890  0.51650  0.97170  1.0000 0.1297631389
H   H48       1.0  0.51650  0.34890  0.16290  1.0000 0.1297631389
H   H49       1.0  0.51250  0.78070  0.76150  1.0000 0.1218748195
H   H50       1.0  0.78070  0.51250  0.94530  1.0000 0.1218748195
H   H51       1.0  0.48850  0.30470  0.73750  1.0000 0.1218748195
H   H52       1.0  0.30470  0.48850  0.46930  1.0000 0.1218748195
H   H53       1.0  0.54270  0.66710  0.80090  1.0000 0.1218748195
H   H54       1.0  0.66710  0.54270  0.98930  1.0000 0.1218748195
H   H55       1.0  0.44910  0.26070  0.70730  1.0000 0.1218748195
H   H56       1.0  0.26070  0.44910  0.58290  1.0000 0.1218748195
H   H57       1.0  0.35740  0.76580  0.99740  1.0000 0.1460931911
H   H58       1.0  0.76580  0.35740  0.87940  1.0000 0.1460931911
H   H59       1.0  0.25260  0.37060  0.89260  1.0000 0.1460931911
H   H60       1.0  0.37060  0.25260  0.48420  1.0000 0.1460931911
H   H61       1.0  0.31770  0.87790  0.96190  1.0000 0.1218748195
H   H62       1.0  0.87790  0.31770  0.84250  1.0000 0.1218748195
H   H63       1.0  0.28810  0.40750  0.93230  1.0000 0.1218748195
H   H64       1.0  0.40750  0.28810  0.37210  1.0000 0.1218748195
H   H65       1.0  0.35990  0.94750  0.54150  1.0000 0.1297631389
H   H66       1.0  0.54150  0.15110  0.35990  1.0000 0.1297631389
H   H67       1.0  0.30250  0.89010  0.09890  1.0000 0.1297631389
H   H68       1.0  0.09890  0.70850  0.30250  1.0000 0.1297631389
H   H69       1.0  0.32620  0.90960  0.65220  1.0000 0.1218748195
H   H70       1.0  0.65220  0.11200  0.32620  1.0000 0.1218748195
H   H71       1.0  0.34040  0.92380  0.13800  1.0000 0.1218748195
H   H72       1.0  0.13800  0.59780  0.34040  1.0000 0.1218748195
H   H73       1.0  0.22150  0.10510  0.74950  1.0000 0.1218748195
H   H74       1.0  0.74950  0.92390  0.22150  1.0000 0.1218748195
H   H75       1.0  0.14490  0.02850  0.32610  1.0000 0.1218748195
H   H76       1.0  0.32610  0.50050  0.14490  1.0000 0.1218748195
H   H77       1.0  0.25860  0.14560  0.63500  1.0000 0.1460931911
H   H78       1.0  0.63500  0.96080  0.25860  1.0000 0.1460931911
H   H79       1.0  0.10440  0.99140  0.28920  1.0000 0.1460931911
H   H80       1.0  0.28920  0.61500  0.10440  1.0000 0.1460931911
H   H81       1.0  0.18240  0.07600  0.84720  1.0000 0.1218748195
H   H82       1.0  0.84720  0.89440  0.18240  1.0000 0.1218748195
H   H83       1.0  0.17400  0.06760  0.35560  1.0000 0.1218748195
H   H84       1.0  0.35560  0.40280  0.17400  1.0000 0.1218748195
H   H85       1.0  0.14770  0.04230  0.95730  1.0000 0.1371269417
H   H86       1.0  0.95730  0.85270  0.14770  1.0000 0.1371269417
H   H87       1.0  0.20770  0.10230  0.39730  1.0000 0.1371269417
H   H88       1.0  0.39730  0.29270  0.20770  1.0000 0.1371269417
H   H89       1.0  0.26450  0.84290  0.86590  1.0000 0.1371269417
H   H90       1.0  0.86590  0.02670  0.26450  1.0000 0.1371269417
H   H91       1.0  0.40710  0.98550  0.22330  1.0000 0.1371269417
H   H92       1.0  0.22330  0.38410  0.40710  1.0000 0.1371269417
H   H93       1.0  0.30130  0.87630  0.75430  1.0000 0.1297631389
H   H94       1.0  0.75430  0.06810  0.30130  1.0000 0.1297631389
H   H95       1.0  0.37370  0.94870  0.18190  1.0000 0.1297631389
H   H96       1.0  0.18190  0.49570  0.37370  1.0000 0.1297631389
H   H97       1.0  0.94750  0.35990  0.15110  1.0000 0.1297631389
H   H98       1.0  0.15110  0.54150  0.94750  1.0000 0.1297631389
H   H99       1.0  0.89010  0.30250  0.70850  1.0000 0.1297631389
H   H100      1.0  0.70850  0.09890  0.89010  1.0000 0.1297631389
H   H101      1.0  0.90960  0.32620  0.11200  1.0000 0.1218748195
H   H102      1.0  0.11200  0.65220  0.90960  1.0000 0.1218748195
H   H103      1.0  0.92380  0.34040  0.59780  1.0000 0.1218748195
H   H104      1.0  0.59780  0.13800  0.92380  1.0000 0.1218748195
H   H105      1.0  0.10510  0.22150  0.92390  1.0000 0.1218748195
H   H106      1.0  0.92390  0.74950  0.10510  1.0000 0.1218748195
H   H107      1.0  0.02850  0.14490  0.50050  1.0000 0.1218748195
H   H108      1.0  0.50050  0.32610  0.02850  1.0000 0.1218748195
H   H109      1.0  0.14560  0.25860  0.96080  1.0000 0.1460931911
H   H110      1.0  0.96080  0.63500  0.14560  1.0000 0.1460931911
H   H111      1.0  0.99140  0.10440  0.61500  1.0000 0.1460931911
H   H112      1.0  0.61500  0.28920  0.99140  1.0000 0.1460931911
H   H113      1.0  0.07600  0.18240  0.89440  1.0000 0.1218748195
H   H114      1.0  0.89440  0.84720  0.07600  1.0000 0.1218748195
H   H115      1.0  0.06760  0.17400  0.40280  1.0000 0.1218748195
H   H116      1.0  0.40280  0.35560  0.06760  1.0000 0.1218748195
H   H117      1.0  0.04230  0.14770  0.85270  1.0000 0.1371269417
H   H118      1.0  0.85270  0.95730  0.04230  1.0000 0.1371269417
H   H119      1.0  0.10230  0.20770  0.29270  1.0000 0.1371269417
H   H120      1.0  0.29270  0.39730  0.10230  1.0000 0.1371269417
H   H121      1.0  0.84290  0.26450  0.02670  1.0000 0.1371269417
H   H122      1.0  0.02670  0.86590  0.84290  1.0000 0.1371269417
H   H123      1.0  0.98550  0.40710  0.38410  1.0000 0.1371269417
H   H124      1.0  0.38410  0.22330  0.98550  1.0000 0.1371269417
H   H125      1.0  0.87630  0.30130  0.06810  1.0000 0.1297631389
H   H126      1.0  0.06810  0.75430  0.87630  1.0000 0.1297631389
H   H127      1.0  0.94870  0.37370  0.49570  1.0000 0.1297631389
H   H128      1.0  0.49570  0.18190  0.94870  1.0000 0.1297631389
C   C1        1.0  0.77278  0.78564  0.31116  1.0000 0.5270504248
C   C2        1.0  0.78564  0.77278  0.13042  1.0000 0.5270504248
C   C3        1.0  0.93884  0.11958  0.47722  1.0000 0.5270504248
C   C4        1.0  0.11958  0.93884  0.46436  1.0000 0.5270504248
C   C5        1.0  0.79166  0.81468  0.34032  1.0000 -0.0025395906
C   C6        1.0  0.81468  0.79166  0.05334  1.0000 -0.0025395906
C   C7        1.0  0.90968  0.19666  0.45834  1.0000 -0.0025395906
C   C8        1.0  0.19666  0.90968  0.43532  1.0000 -0.0025395906
C   C9        1.0  0.74081  0.87691  0.39109  1.0000 -0.0901082806
C   C10       1.0  0.87691  0.74081  0.99119  1.0000 -0.0901082806
C   C11       1.0  0.85891  0.25881  0.50919  1.0000 -0.0901082806
C   C12       1.0  0.25881  0.85891  0.37309  1.0000 -0.0901082806
C   C13       1.0  0.76020  0.90220  0.41420  1.0000 -0.1494253981
C   C14       1.0  0.90220  0.76020  0.92340  1.0000 -0.1494253981
C   C15       1.0  0.83580  0.32660  0.48980  1.0000 -0.1494253981
C   C16       1.0  0.32660  0.83580  0.34780  1.0000 -0.1494253981
C   C17       1.0  0.83407  0.86337  0.38623  1.0000 0.0779857401
C   C18       1.0  0.86337  0.83407  0.91633  1.0000 0.0779857401
C   C19       1.0  0.86377  0.33367  0.41593  1.0000 0.0779857401
C   C20       1.0  0.33367  0.86377  0.38663  1.0000 0.0779857401
C   C21       1.0  0.88700  0.80080  0.33260  1.0000 -0.1317305319
C   C22       1.0  0.80080  0.88700  0.97960  1.0000 -0.1317305319
C   C23       1.0  0.91740  0.27040  0.36300  1.0000 -0.1317305319
C   C24       1.0  0.27040  0.91740  0.44920  1.0000 -0.1317305319
C   C25       1.0  0.86570  0.77670  0.31210  1.0000 -0.0901082806
C   C26       1.0  0.77670  0.86570  0.04550  1.0000 -0.0901082806
C   C27       1.0  0.93790  0.20450  0.38430  1.0000 -0.0901082806
C   C28       1.0  0.20450  0.93790  0.47330  1.0000 -0.0901082806
C   C29       1.0  0.85807  0.88873  0.41107  1.0000 0.0779857401
C   C30       1.0  0.88873  0.85807  0.84213  1.0000 0.0779857401
C   C31       1.0  0.83893  0.40787  0.39193  1.0000 0.0779857401
C   C32       1.0  0.40787  0.83893  0.36127  1.0000 0.0779857401
C   C33       1.0  0.80890  0.93270  0.48010  1.0000 -0.1612491349
C   C34       1.0  0.93270  0.80890  0.77830  1.0000 -0.1612491349
C   C35       1.0  0.76990  0.47170  0.44110  1.0000 -0.1612491349
C   C36       1.0  0.47170  0.76990  0.31730  1.0000 -0.1612491349
C   C37       1.0  0.83390  0.95710  0.49870  1.0000 -0.0807130817
C   C38       1.0  0.95710  0.83390  0.71030  1.0000 -0.0807130817
C   C39       1.0  0.75130  0.53970  0.41610  1.0000 -0.0807130817
C   C40       1.0  0.53970  0.75130  0.29290  1.0000 -0.0807130817
C   C41       1.0  0.90614  0.93494  0.45366  1.0000 -0.0099347733
C   C42       1.0  0.93494  0.90614  0.70526  1.0000 -0.0099347733
C   C43       1.0  0.79634  0.54474  0.34386  1.0000 -0.0099347733
C   C44       1.0  0.54474  0.79634  0.31506  1.0000 -0.0099347733
C   C45       1.0  0.94958  0.89350  0.38870  1.0000 -0.0655007247
C   C46       1.0  0.89350  0.94958  0.76822  1.0000 -0.0655007247
C   C47       1.0  0.86130  0.48178  0.30042  1.0000 -0.0655007247
C   C48       1.0  0.48178  0.86130  0.35650  1.0000 -0.0655007247
C   C49       1.0  0.92921  0.87013  0.36427  1.0000 -0.1371013258
C   C50       1.0  0.87013  0.92921  0.83639  1.0000 -0.1371013258
C   C51       1.0  0.88573  0.41361  0.32079  1.0000 -0.1371013258
C   C52       1.0  0.41361  0.88573  0.37987  1.0000 -0.1371013258
C   C53       1.0  0.92633  0.96077  0.48223  1.0000 0.5405929652
C   C54       1.0  0.96077  0.92633  0.63067  1.0000 0.5405929652
C   C55       1.0  0.76777  0.61933  0.32367  1.0000 0.5405929652
C   C56       1.0  0.61933  0.76777  0.28923  1.0000 0.5405929652
C   C57       1.0  0.31116  0.13042  0.77278  1.0000 0.5270504248
C   C58       1.0  0.13042  0.31116  0.78564  1.0000 0.5270504248
C   C59       1.0  0.47722  0.46436  0.93884  1.0000 0.5270504248
C   C60       1.0  0.46436  0.47722  0.11958  1.0000 0.5270504248
C   C61       1.0  0.34032  0.05334  0.79166  1.0000 -0.0025395906
C   C62       1.0  0.05334  0.34032  0.81468  1.0000 -0.0025395906
C   C63       1.0  0.45834  0.43532  0.90968  1.0000 -0.0025395906
C   C64       1.0  0.43532  0.45834  0.19666  1.0000 -0.0025395906
C   C65       1.0  0.39109  0.99119  0.74081  1.0000 -0.0901082806
C   C66       1.0  0.99119  0.39109  0.87691  1.0000 -0.0901082806
C   C67       1.0  0.50919  0.37309  0.85891  1.0000 -0.0901082806
C   C68       1.0  0.37309  0.50919  0.25881  1.0000 -0.0901082806
C   C69       1.0  0.41420  0.92340  0.76020  1.0000 -0.1494253981
C   C70       1.0  0.92340  0.41420  0.90220  1.0000 -0.1494253981
C   C71       1.0  0.48980  0.34780  0.83580  1.0000 -0.1494253981
C   C72       1.0  0.34780  0.48980  0.32660  1.0000 -0.1494253981
C   C73       1.0  0.38623  0.91633  0.83407  1.0000 0.0779857401
C   C74       1.0  0.91633  0.38623  0.86337  1.0000 0.0779857401
C   C75       1.0  0.41593  0.38663  0.86377  1.0000 0.0779857401
C   C76       1.0  0.38663  0.41593  0.33367  1.0000 0.0779857401
C   C77       1.0  0.33260  0.97960  0.88700  1.0000 -0.1317305319
C   C78       1.0  0.97960  0.33260  0.80080  1.0000 -0.1317305319
C   C79       1.0  0.36300  0.44920  0.91740  1.0000 -0.1317305319
C   C80       1.0  0.44920  0.36300  0.27040  1.0000 -0.1317305319
C   C81       1.0  0.31210  0.04550  0.86570  1.0000 -0.0901082806
C   C82       1.0  0.04550  0.31210  0.77670  1.0000 -0.0901082806
C   C83       1.0  0.38430  0.47330  0.93790  1.0000 -0.0901082806
C   C84       1.0  0.47330  0.38430  0.20450  1.0000 -0.0901082806
C   C85       1.0  0.41107  0.84213  0.85807  1.0000 0.0779857401
C   C86       1.0  0.84213  0.41107  0.88873  1.0000 0.0779857401
C   C87       1.0  0.39193  0.36127  0.83893  1.0000 0.0779857401
C   C88       1.0  0.36127  0.39193  0.40787  1.0000 0.0779857401
C   C89       1.0  0.48010  0.77830  0.80890  1.0000 -0.1612491349
C   C90       1.0  0.77830  0.48010  0.93270  1.0000 -0.1612491349
C   C91       1.0  0.44110  0.31730  0.76990  1.0000 -0.1612491349
C   C92       1.0  0.31730  0.44110  0.47170  1.0000 -0.1612491349
C   C93       1.0  0.49870  0.71030  0.83390  1.0000 -0.0807130817
C   C94       1.0  0.71030  0.49870  0.95710  1.0000 -0.0807130817
C   C95       1.0  0.41610  0.29290  0.75130  1.0000 -0.0807130817
C   C96       1.0  0.29290  0.41610  0.53970  1.0000 -0.0807130817
C   C97       1.0  0.45366  0.70526  0.90614  1.0000 -0.0099347733
C   C98       1.0  0.70526  0.45366  0.93494  1.0000 -0.0099347733
C   C99       1.0  0.34386  0.31506  0.79634  1.0000 -0.0099347733
C   C100      1.0  0.31506  0.34386  0.54474  1.0000 -0.0099347733
C   C101      1.0  0.38870  0.76822  0.94958  1.0000 -0.0655007247
C   C102      1.0  0.76822  0.38870  0.89350  1.0000 -0.0655007247
C   C103      1.0  0.30042  0.35650  0.86130  1.0000 -0.0655007247
C   C104      1.0  0.35650  0.30042  0.48178  1.0000 -0.0655007247
C   C105      1.0  0.36427  0.83639  0.92921  1.0000 -0.1371013258
C   C106      1.0  0.83639  0.36427  0.87013  1.0000 -0.1371013258
C   C107      1.0  0.32079  0.37987  0.88573  1.0000 -0.1371013258
C   C108      1.0  0.37987  0.32079  0.41361  1.0000 -0.1371013258
C   C109      1.0  0.48223  0.63067  0.92633  1.0000 0.5405929652
C   C110      1.0  0.63067  0.48223  0.96077  1.0000 0.5405929652
C   C111      1.0  0.32367  0.28923  0.76777  1.0000 0.5405929652
C   C112      1.0  0.28923  0.32367  0.61933  1.0000 0.5405929652
C   C113      1.0  0.33771  0.07673  0.50447  1.0000 0.5270504248
C   C114      1.0  0.50447  0.08109  0.33771  1.0000 0.5270504248
C   C115      1.0  0.17327  0.91229  0.16891  1.0000 0.5270504248
C   C116      1.0  0.16891  0.74553  0.17327  1.0000 0.5270504248
C   C117      1.0  0.31315  0.05087  0.57673  1.0000 0.0054121664
C   C118      1.0  0.57673  0.05925  0.31315  1.0000 0.0054121664
C   C119      1.0  0.19913  0.93685  0.19075  1.0000 0.0054121664
C   C120      1.0  0.19075  0.67327  0.19913  1.0000 0.0054121664
C   C121      1.0  0.33220  0.98000  0.58320  1.0000 -0.0901082806
C   C122      1.0  0.58320  0.10460  0.33220  1.0000 -0.0901082806
C   C123      1.0  0.27000  0.91780  0.14540  1.0000 -0.0901082806
C   C124      1.0  0.14540  0.66680  0.27000  1.0000 -0.0901082806
C   C125      1.0  0.31066  0.95794  0.64986  1.0000 -0.1494253981
C   C126      1.0  0.64986  0.08154  0.31066  1.0000 -0.1494253981
C   C127      1.0  0.29206  0.93934  0.16846  1.0000 -0.1494253981
C   C128      1.0  0.16846  0.60014  0.29206  1.0000 -0.1494253981
C   C129      1.0  0.26573  0.00563  0.71557  1.0000 0.0644448143
C   C130      1.0  0.71557  0.01307  0.26573  1.0000 0.0644448143
C   C131      1.0  0.24437  0.98427  0.23693  1.0000 0.0644448143
C   C132      1.0  0.23693  0.53443  0.24437  1.0000 0.0644448143
C   C133      1.0  0.24937  0.07263  0.70757  1.0000 -0.1317305319
C   C134      1.0  0.70757  0.97043  0.24937  1.0000 -0.1317305319
C   C135      1.0  0.17737  0.00063  0.27957  1.0000 -0.1317305319
C   C136      1.0  0.27957  0.54243  0.17737  1.0000 -0.1317305319
C   C137      1.0  0.27204  0.09804  0.63776  1.0000 -0.0807130817
C   C138      1.0  0.63776  0.99216  0.27204  1.0000 -0.0807130817
C   C139      1.0  0.15196  0.97796  0.25784  1.0000 -0.0807130817
C   C140      1.0  0.25784  0.61224  0.15196  1.0000 -0.0807130817
C   C141      1.0  0.24328  0.98318  0.78702  1.0000 0.0779857401
C   C142      1.0  0.78702  0.98652  0.24328  1.0000 0.0779857401
C   C143      1.0  0.26682  0.00672  0.26348  1.0000 0.0779857401
C   C144      1.0  0.26348  0.46298  0.26682  1.0000 0.0779857401
C   C145      1.0  0.19940  0.02720  0.84960  1.0000 -0.1612491349
C   C146      1.0  0.84960  0.92380  0.19940  1.0000 -0.1612491349
C   C147      1.0  0.22280  0.05060  0.32620  1.0000 -0.1612491349
C   C148      1.0  0.32620  0.40040  0.22280  1.0000 -0.1612491349
C   C149      1.0  0.17680  0.00800  0.91640  1.0000 -0.1006453853
C   C150      1.0  0.91640  0.89880  0.17680  1.0000 -0.1006453853
C   C151      1.0  0.24200  0.07320  0.35120  1.0000 -0.1006453853
C   C152      1.0  0.35120  0.33360  0.24200  1.0000 -0.1006453853
C   C153      1.0  0.19589  0.93975  0.92445  1.0000 0.0025657811
C   C154      1.0  0.92445  0.93991  0.19589  1.0000 0.0025657811
C   C155      1.0  0.31025  0.05411  0.31009  1.0000 0.0025657811
C   C156      1.0  0.31009  0.32555  0.31025  1.0000 0.0025657811
C   C157      1.0  0.24500  0.89220  0.86280  1.0000 -0.1006453853
C   C158      1.0  0.86280  0.00000  0.24500  1.0000 -0.1006453853
C   C159      1.0  0.35780  0.00500  0.25000  1.0000 -0.1006453853
C   C160      1.0  0.25000  0.38720  0.35780  1.0000 -0.1006453853
C   C161      1.0  0.26800  0.91200  0.79560  1.0000 -0.1612491349
C   C162      1.0  0.79560  0.02440  0.26800  1.0000 -0.1612491349
C   C163      1.0  0.33800  0.98200  0.22560  1.0000 -0.1612491349
C   C164      1.0  0.22560  0.45440  0.33800  1.0000 -0.1612491349
C   C165      1.0  0.16944  0.91476  0.99864  1.0000 0.5495076966
C   C166      1.0  0.99864  0.91716  0.16944  1.0000 0.5495076966
C   C167      1.0  0.33524  0.08056  0.33284  1.0000 0.5495076966
C   C168      1.0  0.33284  0.25136  0.33524  1.0000 0.5495076966
C   C169      1.0  0.07673  0.33771  0.08109  1.0000 0.5270504248
C   C170      1.0  0.08109  0.50447  0.07673  1.0000 0.5270504248
C   C171      1.0  0.91229  0.17327  0.74553  1.0000 0.5270504248
C   C172      1.0  0.74553  0.16891  0.91229  1.0000 0.5270504248
C   C173      1.0  0.05087  0.31315  0.05925  1.0000 0.0054121664
C   C174      1.0  0.05925  0.57673  0.05087  1.0000 0.0054121664
C   C175      1.0  0.93685  0.19913  0.67327  1.0000 0.0054121664
C   C176      1.0  0.67327  0.19075  0.93685  1.0000 0.0054121664
C   C177      1.0  0.98000  0.33220  0.10460  1.0000 -0.0901082806
C   C178      1.0  0.10460  0.58320  0.98000  1.0000 -0.0901082806
C   C179      1.0  0.91780  0.27000  0.66680  1.0000 -0.0901082806
C   C180      1.0  0.66680  0.14540  0.91780  1.0000 -0.0901082806
C   C181      1.0  0.95794  0.31066  0.08154  1.0000 -0.1494253981
C   C182      1.0  0.08154  0.64986  0.95794  1.0000 -0.1494253981
C   C183      1.0  0.93934  0.29206  0.60014  1.0000 -0.1494253981
C   C184      1.0  0.60014  0.16846  0.93934  1.0000 -0.1494253981
C   C185      1.0  0.00563  0.26573  0.01307  1.0000 0.0644448143
C   C186      1.0  0.01307  0.71557  0.00563  1.0000 0.0644448143
C   C187      1.0  0.98427  0.24437  0.53443  1.0000 0.0644448143
C   C188      1.0  0.53443  0.23693  0.98427  1.0000 0.0644448143
C   C189      1.0  0.07263  0.24937  0.97043  1.0000 -0.1317305319
C   C190      1.0  0.97043  0.70757  0.07263  1.0000 -0.1317305319
C   C191      1.0  0.00063  0.17737  0.54243  1.0000 -0.1317305319
C   C192      1.0  0.54243  0.27957  0.00063  1.0000 -0.1317305319
C   C193      1.0  0.09804  0.27204  0.99216  1.0000 -0.0807130817
C   C194      1.0  0.99216  0.63776  0.09804  1.0000 -0.0807130817
C   C195      1.0  0.97796  0.15196  0.61224  1.0000 -0.0807130817
C   C196      1.0  0.61224  0.25784  0.97796  1.0000 -0.0807130817
C   C197      1.0  0.98318  0.24328  0.98652  1.0000 0.0779857401
C   C198      1.0  0.98652  0.78702  0.98318  1.0000 0.0779857401
C   C199      1.0  0.00672  0.26682  0.46298  1.0000 0.0779857401
C   C200      1.0  0.46298  0.26348  0.00672  1.0000 0.0779857401
C   C201      1.0  0.02720  0.19940  0.92380  1.0000 -0.1612491349
C   C202      1.0  0.92380  0.84960  0.02720  1.0000 -0.1612491349
C   C203      1.0  0.05060  0.22280  0.40040  1.0000 -0.1612491349
C   C204      1.0  0.40040  0.32620  0.05060  1.0000 -0.1612491349
C   C205      1.0  0.00800  0.17680  0.89880  1.0000 -0.1006453853
C   C206      1.0  0.89880  0.91640  0.00800  1.0000 -0.1006453853
C   C207      1.0  0.07320  0.24200  0.33360  1.0000 -0.1006453853
C   C208      1.0  0.33360  0.35120  0.07320  1.0000 -0.1006453853
C   C209      1.0  0.93975  0.19589  0.93991  1.0000 0.0025657811
C   C210      1.0  0.93991  0.92445  0.93975  1.0000 0.0025657811
C   C211      1.0  0.05411  0.31025  0.32555  1.0000 0.0025657811
C   C212      1.0  0.32555  0.31009  0.05411  1.0000 0.0025657811
C   C213      1.0  0.89220  0.24500  0.00000  1.0000 -0.1006453853
C   C214      1.0  0.00000  0.86280  0.89220  1.0000 -0.1006453853
C   C215      1.0  0.00500  0.35780  0.38720  1.0000 -0.1006453853
C   C216      1.0  0.38720  0.25000  0.00500  1.0000 -0.1006453853
C   C217      1.0  0.91200  0.26800  0.02440  1.0000 -0.1612491349
C   C218      1.0  0.02440  0.79560  0.91200  1.0000 -0.1612491349
C   C219      1.0  0.98200  0.33800  0.45440  1.0000 -0.1612491349
C   C220      1.0  0.45440  0.22560  0.98200  1.0000 -0.1612491349
C   C221      1.0  0.91476  0.16944  0.91716  1.0000 0.5495076966
C   C222      1.0  0.91716  0.99864  0.91476  1.0000 0.5495076966
C   C223      1.0  0.08056  0.33524  0.25136  1.0000 0.5495076966
C   C224      1.0  0.25136  0.33284  0.08056  1.0000 0.5495076966
O   O1        1.0  0.70493  0.81639  0.34301  1.0000 -0.5003989036
O   O2        1.0  0.81639  0.70493  0.13567  1.0000 -0.5003989036
O   O3        1.0  0.90699  0.11433  0.54507  1.0000 -0.5003989036
O   O4        1.0  0.11433  0.90699  0.43361  1.0000 -0.5003989036
O   O5        1.0  0.82191  0.73487  0.25793  1.0000 -0.510683823
O   O6        1.0  0.73487  0.82191  0.18529  1.0000 -0.510683823
O   O7        1.0  0.99207  0.06471  0.42809  1.0000 -0.510683823
O   O8        1.0  0.06471  0.99207  0.51513  1.0000 -0.510683823
O   O9        1.0  0.99554  0.93116  0.44184  1.0000 -0.510683823
O   O10       1.0  0.93116  0.99554  0.63146  1.0000 -0.510683823
O   O11       1.0  0.80816  0.61854  0.25446  1.0000 -0.510683823
O   O12       1.0  0.61854  0.80816  0.31884  1.0000 -0.510683823
O   O13       1.0  0.88449  0.00523  0.53637  1.0000 -0.4738448742
O   O14       1.0  0.00523  0.88449  0.57391  1.0000 -0.4738448742
O   O15       1.0  0.71363  0.67609  0.36551  1.0000 -0.4738448742
O   O16       1.0  0.67609  0.71363  0.24477  1.0000 -0.4738448742
O   O17       1.0  0.34301  0.13567  0.70493  1.0000 -0.5003989036
O   O18       1.0  0.13567  0.34301  0.81639  1.0000 -0.5003989036
O   O19       1.0  0.54507  0.43361  0.90699  1.0000 -0.5003989036
O   O20       1.0  0.43361  0.54507  0.11433  1.0000 -0.5003989036
O   O21       1.0  0.25793  0.18529  0.82191  1.0000 -0.510683823
O   O22       1.0  0.18529  0.25793  0.73487  1.0000 -0.510683823
O   O23       1.0  0.42809  0.51513  0.99207  1.0000 -0.510683823
O   O24       1.0  0.51513  0.42809  0.06471  1.0000 -0.510683823
O   O25       1.0  0.44184  0.63146  0.99554  1.0000 -0.510683823
O   O26       1.0  0.63146  0.44184  0.93116  1.0000 -0.510683823
O   O27       1.0  0.25446  0.31884  0.80816  1.0000 -0.510683823
O   O28       1.0  0.31884  0.25446  0.61854  1.0000 -0.510683823
O   O29       1.0  0.53637  0.57391  0.88449  1.0000 -0.4738448742
O   O30       1.0  0.57391  0.53637  0.00523  1.0000 -0.4738448742
O   O31       1.0  0.36551  0.24477  0.71363  1.0000 -0.4738448742
O   O32       1.0  0.24477  0.36551  0.67609  1.0000 -0.4738448742
O   O33       1.0  0.38693  0.02967  0.44713  1.0000 -0.510683823
O   O34       1.0  0.44713  0.13627  0.38693  1.0000 -0.510683823
O   O35       1.0  0.22033  0.86307  0.11373  1.0000 -0.510683823
O   O36       1.0  0.11373  0.80287  0.22033  1.0000 -0.510683823
O   O37       1.0  0.31119  0.14101  0.49991  1.0000 -0.452200878
O   O38       1.0  0.49991  0.04789  0.31119  1.0000 -0.452200878
O   O39       1.0  0.10899  0.93881  0.20211  1.0000 -0.452200878
O   O40       1.0  0.20211  0.75009  0.10899  1.0000 -0.452200878
O   O41       1.0  0.12272  0.96312  0.05628  1.0000 -0.5182310227
O   O42       1.0  0.05628  0.85788  0.12272  1.0000 -0.5182310227
O   O43       1.0  0.28688  0.12728  0.39212  1.0000 -0.5182310227
O   O44       1.0  0.39212  0.19372  0.28688  1.0000 -0.5182310227
O   O45       1.0  0.19126  0.85066  0.00494  1.0000 -0.4783336814
O   O46       1.0  0.00494  0.95314  0.19126  1.0000 -0.4783336814
O   O47       1.0  0.39934  0.05874  0.29686  1.0000 -0.4783336814
O   O48       1.0  0.29686  0.24506  0.39934  1.0000 -0.4783336814
O   O49       1.0  0.02967  0.38693  0.13627  1.0000 -0.510683823
O   O50       1.0  0.13627  0.44713  0.02967  1.0000 -0.510683823
O   O51       1.0  0.86307  0.22033  0.80287  1.0000 -0.510683823
O   O52       1.0  0.80287  0.11373  0.86307  1.0000 -0.510683823
O   O53       1.0  0.14101  0.31119  0.04789  1.0000 -0.452200878
O   O54       1.0  0.04789  0.49991  0.14101  1.0000 -0.452200878
O   O55       1.0  0.93881  0.10899  0.75009  1.0000 -0.452200878
O   O56       1.0  0.75009  0.20211  0.93881  1.0000 -0.452200878
O   O57       1.0  0.96312  0.12272  0.85788  1.0000 -0.5182310227
O   O58       1.0  0.85788  0.05628  0.96312  1.0000 -0.5182310227
O   O59       1.0  0.12728  0.28688  0.19372  1.0000 -0.5182310227
O   O60       1.0  0.19372  0.39212  0.12728  1.0000 -0.5182310227
O   O61       1.0  0.85066  0.19126  0.95314  1.0000 -0.4783336814
O   O62       1.0  0.95314  0.00494  0.85066  1.0000 -0.4783336814
O   O63       1.0  0.05874  0.39934  0.24506  1.0000 -0.4783336814
O   O64       1.0  0.24506  0.29686  0.05874  1.0000 -0.4783336814
