# DDEC6 charges by PACMAN v1.1 (https://github.com/mtap-research/PACMAN-charge/)
data_2012[Zn][dia]3[FSR]1
_chemical_formula_sum              "Zn4 H28 C32 N20 O8"
_cell_length_a       11.9795
_cell_length_b       11.9795
_cell_length_c       9.7748
_cell_angle_alpha    69.9508
_cell_angle_beta     110.049
_cell_angle_gamma    89.6922

_symmetry_space_group_name_H-M    "P 1"
_symmetry_Int_Tables_number       1

loop_
  _symmetry_equiv_pos_as_xyz
  'x, y, z'

loop_
  _atom_site_type_symbol
  _atom_site_label
  _atom_site_symmetry_multiplicity
  _atom_site_fract_x
  _atom_site_fract_y
  _atom_site_fract_z
  _atom_site_occupancy
  _atom_site_charge
Zn  Zn1       1.0  0.84078  0.37406  0.65347  1.0000 0.6835485783
Zn  Zn2       1.0  0.62594  0.15922  0.15347  1.0000 0.6835485783
Zn  Zn3       1.0  0.37406  0.84078  0.84653  1.0000 0.6835485783
Zn  Zn4       1.0  0.15922  0.62594  0.34653  1.0000 0.6835485783
H   H1        1.0  0.52660  0.74460  0.30060  1.0000 0.1494505864
H   H2        1.0  0.25540  0.47340  0.80060  1.0000 0.1494505864
H   H3        1.0  0.87390  0.76090  0.50690  1.0000 0.138822281
H   H4        1.0  0.23910  0.12610  0.00690  1.0000 0.138822281
H   H5        1.0  0.49620  0.94900  0.17740  1.0000 0.1116818276
H   H6        1.0  0.05100  0.50380  0.67740  1.0000 0.1116818276
H   H7        1.0  0.83540  0.96480  0.37530  1.0000 0.1116818276
H   H8        1.0  0.03520  0.16460  0.87530  1.0000 0.1116818276
H   H9        1.0  0.52230  0.34430  0.29710  1.0000 0.1675805815
H   H10       1.0  0.65570  0.47770  0.79710  1.0000 0.1675805815
H   H11       1.0  0.55190  0.22590  0.44460  1.0000 0.1494505864
H   H12       1.0  0.77410  0.44810  0.94460  1.0000 0.1494505864
H   H13       1.0  0.58120  0.34780  0.46540  1.0000 0.1675805815
H   H14       1.0  0.65220  0.41880  0.96540  1.0000 0.1675805815
H   H15       1.0  0.74460  0.52660  0.19940  1.0000 0.1494505864
H   H16       1.0  0.47340  0.25540  0.69940  1.0000 0.1494505864
H   H17       1.0  0.76090  0.87390  0.99310  1.0000 0.138822281
H   H18       1.0  0.12610  0.23910  0.49310  1.0000 0.138822281
H   H19       1.0  0.94900  0.49620  0.32260  1.0000 0.1116818276
H   H20       1.0  0.50380  0.05100  0.82260  1.0000 0.1116818276
H   H21       1.0  0.96480  0.83540  0.12470  1.0000 0.1116818276
H   H22       1.0  0.16460  0.03520  0.62470  1.0000 0.1116818276
H   H23       1.0  0.34430  0.52230  0.20290  1.0000 0.1675805815
H   H24       1.0  0.47770  0.65570  0.70290  1.0000 0.1675805815
H   H25       1.0  0.22590  0.55190  0.05540  1.0000 0.1494505864
H   H26       1.0  0.44810  0.77410  0.55540  1.0000 0.1494505864
H   H27       1.0  0.34780  0.58120  0.03460  1.0000 0.1675805815
H   H28       1.0  0.41880  0.65220  0.53460  1.0000 0.1675805815
C   C1        1.0  0.72290  0.59610  0.49990  1.0000 0.5309679445
C   C2        1.0  0.40390  0.27710  0.99990  1.0000 0.5309679445
C   C3        1.0  0.69760  0.27980  0.39830  1.0000 0.3551053938
C   C4        1.0  0.72020  0.30240  0.89830  1.0000 0.3551053938
C   C5        1.0  0.70350  0.73030  0.41860  1.0000 0.0322906833
C   C6        1.0  0.26970  0.29650  0.91860  1.0000 0.0322906833
C   C7        1.0  0.59070  0.78810  0.31820  1.0000 -0.1406440314
C   C8        1.0  0.21190  0.40930  0.81820  1.0000 -0.1406440314
C   C9        1.0  0.79640  0.79740  0.44010  1.0000 -0.1465292151
C   C10       1.0  0.20260  0.20360  0.94010  1.0000 -0.1465292151
C   C11       1.0  0.57320  0.91060  0.24410  1.0000 0.0826278489
C   C12       1.0  0.08940  0.42680  0.74410  1.0000 0.0826278489
C   C13       1.0  0.77220  0.91980  0.36090  1.0000 0.0826278489
C   C14       1.0  0.08020  0.22780  0.86090  1.0000 0.0826278489
C   C15       1.0  0.57790  0.30130  0.40170  1.0000 -0.5272125367
C   C16       1.0  0.69870  0.42210  0.90170  1.0000 -0.5272125367
C   C17       1.0  0.59610  0.72290  0.00010  1.0000 0.5309679445
C   C18       1.0  0.27710  0.40390  0.50010  1.0000 0.5309679445
C   C19       1.0  0.27980  0.69760  0.10170  1.0000 0.3551053938
C   C20       1.0  0.30240  0.72020  0.60170  1.0000 0.3551053938
C   C21       1.0  0.73030  0.70350  0.08140  1.0000 0.0322906833
C   C22       1.0  0.29650  0.26970  0.58140  1.0000 0.0322906833
C   C23       1.0  0.78810  0.59070  0.18180  1.0000 -0.1406440314
C   C24       1.0  0.40930  0.21190  0.68180  1.0000 -0.1406440314
C   C25       1.0  0.79740  0.79640  0.05990  1.0000 -0.1465292151
C   C26       1.0  0.20360  0.20260  0.55990  1.0000 -0.1465292151
C   C27       1.0  0.91060  0.57320  0.25590  1.0000 0.0826278489
C   C28       1.0  0.42680  0.08940  0.75590  1.0000 0.0826278489
C   C29       1.0  0.91980  0.77220  0.13910  1.0000 0.0826278489
C   C30       1.0  0.22780  0.08020  0.63910  1.0000 0.0826278489
C   C31       1.0  0.30130  0.57790  0.09830  1.0000 -0.5272125367
C   C32       1.0  0.42210  0.69870  0.59830  1.0000 -0.5272125367
N   N1        1.0  0.79962  0.30582  0.48490  1.0000 -0.2698822159
N   N2        1.0  0.69418  0.20038  0.98490  1.0000 -0.2698822159
N   N3        1.0  0.66281  0.97689  0.26430  1.0000 -0.2170617197
N   N4        1.0  0.02311  0.33719  0.76430  1.0000 -0.2170617197
N   N5        1.0  0.88700  0.27060  0.44540  1.0000 -0.0903551232
N   N6        1.0  0.72940  0.11300  0.94540  1.0000 -0.0903551232
N   N7        1.0  0.72135  0.22915  0.30700  1.0000 -0.2698822159
N   N8        1.0  0.77085  0.27865  0.80700  1.0000 -0.2698822159
N   N9        1.0  0.84080  0.22520  0.33940  1.0000 -0.0903551232
N   N10       1.0  0.77480  0.15920  0.83940  1.0000 -0.0903551232
N   N11       1.0  0.30582  0.79962  0.01510  1.0000 -0.2698822159
N   N12       1.0  0.20038  0.69418  0.51510  1.0000 -0.2698822159
N   N13       1.0  0.97689  0.66281  0.23570  1.0000 -0.2170617197
N   N14       1.0  0.33719  0.02311  0.73570  1.0000 -0.2170617197
N   N15       1.0  0.27060  0.88700  0.05460  1.0000 -0.0903551232
N   N16       1.0  0.11300  0.72940  0.55460  1.0000 -0.0903551232
N   N17       1.0  0.22915  0.72135  0.19300  1.0000 -0.2698822159
N   N18       1.0  0.27865  0.77085  0.69300  1.0000 -0.2698822159
N   N19       1.0  0.22520  0.84080  0.16060  1.0000 -0.0903551232
N   N20       1.0  0.15920  0.77480  0.66060  1.0000 -0.0903551232
O   O1        1.0  0.83007  0.54817  0.58960  1.0000 -0.5272125367
O   O2        1.0  0.45183  0.16993  0.08960  1.0000 -0.5272125367
O   O3        1.0  0.63911  0.53891  0.47960  1.0000 -0.4842818517
O   O4        1.0  0.46109  0.36089  0.97960  1.0000 -0.4842818517
O   O5        1.0  0.54817  0.83007  0.91040  1.0000 -0.5272125367
O   O6        1.0  0.16993  0.45183  0.41040  1.0000 -0.5272125367
O   O7        1.0  0.53891  0.63911  0.02040  1.0000 -0.4842818517
O   O8        1.0  0.36089  0.46109  0.52040  1.0000 -0.4842818517
