# DDEC6 charges by PACMAN v1.1 (https://github.com/mtap-research/PACMAN-charge/)
data_2013[CdSi][bcu]3[FSR]1
_chemical_formula_sum              "Cd8 Si4 H224 C168 S8 N72 F24"
_cell_length_a       14.4685
_cell_length_b       22.858
_cell_length_c       23.048
_cell_angle_alpha    90
_cell_angle_beta     90
_cell_angle_gamma    90

_symmetry_space_group_name_H-M    "P 1"
_symmetry_Int_Tables_number       1

loop_
  _symmetry_equiv_pos_as_xyz
  'x, y, z'

loop_
  _atom_site_type_symbol
  _atom_site_label
  _atom_site_symmetry_multiplicity
  _atom_site_fract_x
  _atom_site_fract_y
  _atom_site_fract_z
  _atom_site_occupancy
  _atom_site_charge
Cd  Cd1       1.0  0.01431  0.13517  0.38458  1.0000 0.816268251
Cd  Cd2       1.0  0.48569  0.86483  0.88458  1.0000 0.816268251
Cd  Cd3       1.0  0.98569  0.63517  0.11542  1.0000 0.816268251
Cd  Cd4       1.0  0.51431  0.36483  0.61542  1.0000 0.816268251
Cd  Cd5       1.0  0.98569  0.86483  0.61542  1.0000 0.816268251
Cd  Cd6       1.0  0.51431  0.13517  0.11542  1.0000 0.816268251
Cd  Cd7       1.0  0.01431  0.36483  0.88458  1.0000 0.816268251
Cd  Cd8       1.0  0.48569  0.63517  0.38458  1.0000 0.816268251
Si  Si1       1.0  0.00000  0.00000  0.50000  1.0000 1.6952441714
Si  Si2       1.0  0.50000  0.00000  0.00000  1.0000 1.6939861558
Si  Si3       1.0  0.00000  0.50000  0.00000  1.0000 1.6939861558
Si  Si4       1.0  0.50000  0.50000  0.50000  1.0000 1.6939861558
H   H1        1.0  0.92980  0.00350  0.36060  1.0000 0.2935583012
H   H2        1.0  0.57020  0.99650  0.86060  1.0000 0.2935583012
H   H3        1.0  0.07020  0.50350  0.13940  1.0000 0.2935583012
H   H4        1.0  0.42980  0.49650  0.63940  1.0000 0.2935583012
H   H5        1.0  0.07020  0.99650  0.63940  1.0000 0.2935583012
H   H6        1.0  0.42980  0.00350  0.13940  1.0000 0.2935583012
H   H7        1.0  0.92980  0.49650  0.86060  1.0000 0.2935583012
H   H8        1.0  0.57020  0.50350  0.36060  1.0000 0.2935583012
H   H9        1.0  0.67900  0.03400  0.09210  1.0000 0.2935583012
H   H10       1.0  0.82100  0.96600  0.59210  1.0000 0.2935583012
H   H11       1.0  0.32100  0.53400  0.40790  1.0000 0.2935583012
H   H12       1.0  0.17900  0.46600  0.90790  1.0000 0.2935583012
H   H13       1.0  0.32100  0.96600  0.90790  1.0000 0.2935583012
H   H14       1.0  0.17900  0.03400  0.40790  1.0000 0.2935583012
H   H15       1.0  0.67900  0.46600  0.59210  1.0000 0.2935583012
H   H16       1.0  0.82100  0.53400  0.09210  1.0000 0.2935583012
H   H17       1.0  0.86260  0.10370  0.48660  1.0000 0.2935583012
H   H18       1.0  0.63740  0.89630  0.98660  1.0000 0.2935583012
H   H19       1.0  0.13740  0.60370  0.01340  1.0000 0.2935583012
H   H20       1.0  0.36260  0.39630  0.51340  1.0000 0.2935583012
H   H21       1.0  0.13740  0.89630  0.51340  1.0000 0.2935583012
H   H22       1.0  0.36260  0.10370  0.01340  1.0000 0.2935583012
H   H23       1.0  0.86260  0.39630  0.98660  1.0000 0.2935583012
H   H24       1.0  0.63740  0.60370  0.48660  1.0000 0.2935583012
H   H25       1.0  0.59260  0.37560  0.48090  1.0000 0.2935583012
H   H26       1.0  0.90740  0.62440  0.98090  1.0000 0.2935583012
H   H27       1.0  0.40740  0.87560  0.01910  1.0000 0.2935583012
H   H28       1.0  0.09260  0.12440  0.51910  1.0000 0.2935583012
H   H29       1.0  0.40740  0.62440  0.51910  1.0000 0.2935583012
H   H30       1.0  0.09260  0.37560  0.01910  1.0000 0.2935583012
H   H31       1.0  0.59260  0.12440  0.98090  1.0000 0.2935583012
H   H32       1.0  0.90740  0.87560  0.48090  1.0000 0.2935583012
H   H33       1.0  0.84500  0.18690  0.31420  1.0000 0.1493981352
H   H34       1.0  0.65500  0.81310  0.81420  1.0000 0.1493981352
H   H35       1.0  0.15500  0.68690  0.18580  1.0000 0.1493981352
H   H36       1.0  0.34500  0.31310  0.68580  1.0000 0.1493981352
H   H37       1.0  0.15500  0.81310  0.68580  1.0000 0.1493981352
H   H38       1.0  0.34500  0.18690  0.18580  1.0000 0.1493981352
H   H39       1.0  0.84500  0.31310  0.81420  1.0000 0.1493981352
H   H40       1.0  0.65500  0.68690  0.31420  1.0000 0.1493981352
H   H41       1.0  0.74900  0.16870  0.28660  1.0000 0.1493981352
H   H42       1.0  0.75100  0.83130  0.78660  1.0000 0.1493981352
H   H43       1.0  0.25100  0.66870  0.21340  1.0000 0.1493981352
H   H44       1.0  0.24900  0.33130  0.71340  1.0000 0.1493981352
H   H45       1.0  0.25100  0.83130  0.71340  1.0000 0.1493981352
H   H46       1.0  0.24900  0.16870  0.21340  1.0000 0.1493981352
H   H47       1.0  0.74900  0.33130  0.78660  1.0000 0.1493981352
H   H48       1.0  0.75100  0.66870  0.28660  1.0000 0.1493981352
H   H49       1.0  0.83810  0.17330  0.24690  1.0000 0.156017705
H   H50       1.0  0.66190  0.82670  0.74690  1.0000 0.156017705
H   H51       1.0  0.16190  0.67330  0.25310  1.0000 0.156017705
H   H52       1.0  0.33810  0.32670  0.75310  1.0000 0.156017705
H   H53       1.0  0.16190  0.82670  0.75310  1.0000 0.156017705
H   H54       1.0  0.33810  0.17330  0.25310  1.0000 0.156017705
H   H55       1.0  0.83810  0.32670  0.74690  1.0000 0.156017705
H   H56       1.0  0.66190  0.67330  0.24690  1.0000 0.156017705
H   H57       1.0  0.85070  0.92980  0.24550  1.0000 0.1432976804
H   H58       1.0  0.64930  0.07020  0.74550  1.0000 0.1432976804
H   H59       1.0  0.14930  0.42980  0.25450  1.0000 0.1432976804
H   H60       1.0  0.35070  0.57020  0.75450  1.0000 0.1432976804
H   H61       1.0  0.14930  0.07020  0.75450  1.0000 0.1432976804
H   H62       1.0  0.35070  0.92980  0.25450  1.0000 0.1432976804
H   H63       1.0  0.85070  0.57020  0.74550  1.0000 0.1432976804
H   H64       1.0  0.64930  0.42980  0.24550  1.0000 0.1432976804
H   H65       1.0  0.77090  0.92740  0.29240  1.0000 0.1493981352
H   H66       1.0  0.72910  0.07260  0.79240  1.0000 0.1493981352
H   H67       1.0  0.22910  0.42740  0.20760  1.0000 0.1493981352
H   H68       1.0  0.27090  0.57260  0.70760  1.0000 0.1493981352
H   H69       1.0  0.22910  0.07260  0.70760  1.0000 0.1493981352
H   H70       1.0  0.27090  0.92740  0.20760  1.0000 0.1493981352
H   H71       1.0  0.77090  0.57260  0.79240  1.0000 0.1493981352
H   H72       1.0  0.72910  0.42740  0.29240  1.0000 0.1493981352
H   H73       1.0  0.87510  0.91820  0.31150  1.0000 0.1493981352
H   H74       1.0  0.62490  0.08180  0.81150  1.0000 0.1493981352
H   H75       1.0  0.12490  0.41820  0.18850  1.0000 0.1493981352
H   H76       1.0  0.37510  0.58180  0.68850  1.0000 0.1493981352
H   H77       1.0  0.12490  0.08180  0.68850  1.0000 0.1493981352
H   H78       1.0  0.37510  0.91820  0.18850  1.0000 0.1493981352
H   H79       1.0  0.87510  0.58180  0.81150  1.0000 0.1493981352
H   H80       1.0  0.62490  0.41820  0.31150  1.0000 0.1493981352
H   H81       1.0  0.60790  0.13400  0.27100  1.0000 0.1493981352
H   H82       1.0  0.89210  0.86600  0.77100  1.0000 0.1493981352
H   H83       1.0  0.39210  0.63400  0.22900  1.0000 0.1493981352
H   H84       1.0  0.10790  0.36600  0.72900  1.0000 0.1493981352
H   H85       1.0  0.39210  0.86600  0.72900  1.0000 0.1493981352
H   H86       1.0  0.10790  0.13400  0.22900  1.0000 0.1493981352
H   H87       1.0  0.60790  0.36600  0.77100  1.0000 0.1493981352
H   H88       1.0  0.89210  0.63400  0.27100  1.0000 0.1493981352
H   H89       1.0  0.60290  0.06990  0.29690  1.0000 0.1493981352
H   H90       1.0  0.89710  0.93010  0.79690  1.0000 0.1493981352
H   H91       1.0  0.39710  0.56990  0.20310  1.0000 0.1493981352
H   H92       1.0  0.10290  0.43010  0.70310  1.0000 0.1493981352
H   H93       1.0  0.39710  0.93010  0.70310  1.0000 0.1493981352
H   H94       1.0  0.10290  0.06990  0.20310  1.0000 0.1493981352
H   H95       1.0  0.60290  0.43010  0.79690  1.0000 0.1493981352
H   H96       1.0  0.89710  0.56990  0.29690  1.0000 0.1493981352
H   H97       1.0  0.52740  0.09120  0.25190  1.0000 0.1432976804
H   H98       1.0  0.97260  0.90880  0.75190  1.0000 0.1432976804
H   H99       1.0  0.47260  0.59120  0.24810  1.0000 0.1432976804
H   H100      1.0  0.02740  0.40880  0.74810  1.0000 0.1432976804
H   H101      1.0  0.47260  0.90880  0.74810  1.0000 0.1432976804
H   H102      1.0  0.02740  0.09120  0.24810  1.0000 0.1432976804
H   H103      1.0  0.52740  0.40880  0.75190  1.0000 0.1432976804
H   H104      1.0  0.97260  0.59120  0.25190  1.0000 0.1432976804
H   H105      1.0  0.83610  0.95670  0.14620  1.0000 0.1493981352
H   H106      1.0  0.66390  0.04330  0.64620  1.0000 0.1493981352
H   H107      1.0  0.16390  0.45670  0.35380  1.0000 0.1493981352
H   H108      1.0  0.33610  0.54330  0.85380  1.0000 0.1493981352
H   H109      1.0  0.16390  0.04330  0.85380  1.0000 0.1493981352
H   H110      1.0  0.33610  0.95670  0.35380  1.0000 0.1493981352
H   H111      1.0  0.83610  0.54330  0.64620  1.0000 0.1493981352
H   H112      1.0  0.66390  0.45670  0.14620  1.0000 0.1493981352
H   H113      1.0  0.89700  0.01370  0.15410  1.0000 0.1493981352
H   H114      1.0  0.60300  0.98630  0.65410  1.0000 0.1493981352
H   H115      1.0  0.10300  0.51370  0.34590  1.0000 0.1493981352
H   H116      1.0  0.39700  0.48630  0.84590  1.0000 0.1493981352
H   H117      1.0  0.10300  0.98630  0.84590  1.0000 0.1493981352
H   H118      1.0  0.39700  0.01370  0.34590  1.0000 0.1493981352
H   H119      1.0  0.89700  0.48630  0.65410  1.0000 0.1493981352
H   H120      1.0  0.60300  0.51370  0.15410  1.0000 0.1493981352
H   H121      1.0  0.84290  0.00300  0.09530  1.0000 0.156017705
H   H122      1.0  0.65710  0.99700  0.59530  1.0000 0.156017705
H   H123      1.0  0.15710  0.50300  0.40470  1.0000 0.156017705
H   H124      1.0  0.34290  0.49700  0.90470  1.0000 0.156017705
H   H125      1.0  0.15710  0.99700  0.90470  1.0000 0.156017705
H   H126      1.0  0.34290  0.00300  0.40470  1.0000 0.156017705
H   H127      1.0  0.84290  0.49700  0.59530  1.0000 0.156017705
H   H128      1.0  0.65710  0.50300  0.09530  1.0000 0.156017705
H   H129      1.0  0.98000  0.27780  0.42610  1.0000 0.1493981352
H   H130      1.0  0.52000  0.72220  0.92610  1.0000 0.1493981352
H   H131      1.0  0.02000  0.77780  0.07390  1.0000 0.1493981352
H   H132      1.0  0.48000  0.22220  0.57390  1.0000 0.1493981352
H   H133      1.0  0.02000  0.72220  0.57390  1.0000 0.1493981352
H   H134      1.0  0.48000  0.27780  0.07390  1.0000 0.1493981352
H   H135      1.0  0.98000  0.22220  0.92610  1.0000 0.1493981352
H   H136      1.0  0.52000  0.77780  0.42610  1.0000 0.1493981352
H   H137      1.0  0.89310  0.31660  0.44250  1.0000 0.1493981352
H   H138      1.0  0.60690  0.68340  0.94250  1.0000 0.1493981352
H   H139      1.0  0.10690  0.81660  0.05750  1.0000 0.1493981352
H   H140      1.0  0.39310  0.18340  0.55750  1.0000 0.1493981352
H   H141      1.0  0.10690  0.68340  0.55750  1.0000 0.1493981352
H   H142      1.0  0.39310  0.31660  0.05750  1.0000 0.1493981352
H   H143      1.0  0.89310  0.18340  0.94250  1.0000 0.1493981352
H   H144      1.0  0.60690  0.81660  0.44250  1.0000 0.1493981352
H   H145      1.0  0.89490  0.28180  0.38310  1.0000 0.156017705
H   H146      1.0  0.60510  0.71820  0.88310  1.0000 0.1493981352
H   H147      1.0  0.10510  0.78180  0.11690  1.0000 0.156017705
H   H148      1.0  0.39490  0.21820  0.61690  1.0000 0.1493981352
H   H149      1.0  0.10510  0.71820  0.61690  1.0000 0.156017705
H   H150      1.0  0.39490  0.28180  0.11690  1.0000 0.156017705
H   H151      1.0  0.89490  0.21820  0.88310  1.0000 0.1493981352
H   H152      1.0  0.60510  0.78180  0.38310  1.0000 0.1493981352
H   H153      1.0  0.70780  0.09960  0.53110  1.0000 0.1493981352
H   H154      1.0  0.79220  0.90040  0.03110  1.0000 0.1493981352
H   H155      1.0  0.29220  0.59960  0.96890  1.0000 0.1493981352
H   H156      1.0  0.20780  0.40040  0.46890  1.0000 0.1493981352
H   H157      1.0  0.29220  0.90040  0.46890  1.0000 0.1493981352
H   H158      1.0  0.20780  0.09960  0.96890  1.0000 0.1493981352
H   H159      1.0  0.70780  0.40040  0.03110  1.0000 0.1493981352
H   H160      1.0  0.79220  0.59960  0.53110  1.0000 0.1493981352
H   H161      1.0  0.65440  0.15940  0.54030  1.0000 0.1493981352
H   H162      1.0  0.84560  0.84060  0.04030  1.0000 0.1493981352
H   H163      1.0  0.34560  0.65940  0.95970  1.0000 0.1493981352
H   H164      1.0  0.15440  0.34060  0.45970  1.0000 0.1493981352
H   H165      1.0  0.34560  0.84060  0.45970  1.0000 0.1493981352
H   H166      1.0  0.15440  0.15940  0.95970  1.0000 0.1493981352
H   H167      1.0  0.65440  0.34060  0.04030  1.0000 0.1493981352
H   H168      1.0  0.84560  0.65940  0.54030  1.0000 0.1493981352
H   H169      1.0  0.73480  0.14130  0.58330  1.0000 0.1493981352
H   H170      1.0  0.76520  0.85870  0.08330  1.0000 0.1493981352
H   H171      1.0  0.26520  0.64130  0.91670  1.0000 0.1493981352
H   H172      1.0  0.23480  0.35870  0.41670  1.0000 0.1493981352
H   H173      1.0  0.26520  0.85870  0.41670  1.0000 0.1493981352
H   H174      1.0  0.23480  0.14130  0.91670  1.0000 0.1493981352
H   H175      1.0  0.73480  0.35870  0.08330  1.0000 0.1493981352
H   H176      1.0  0.76520  0.64130  0.58330  1.0000 0.1493981352
H   H177      1.0  0.73130  0.30310  0.64290  1.0000 0.1493981352
H   H178      1.0  0.76870  0.69690  0.14290  1.0000 0.1493981352
H   H179      1.0  0.26870  0.80310  0.85710  1.0000 0.1493981352
H   H180      1.0  0.23130  0.19690  0.35710  1.0000 0.1493981352
H   H181      1.0  0.26870  0.69690  0.35710  1.0000 0.1493981352
H   H182      1.0  0.23130  0.30310  0.85710  1.0000 0.1493981352
H   H183      1.0  0.73130  0.19690  0.14290  1.0000 0.1493981352
H   H184      1.0  0.76870  0.80310  0.64290  1.0000 0.1493981352
H   H185      1.0  0.78530  0.25150  0.61190  1.0000 0.1493981352
H   H186      1.0  0.71470  0.74850  0.11190  1.0000 0.1493981352
H   H187      1.0  0.21470  0.75150  0.88810  1.0000 0.1493981352
H   H188      1.0  0.28530  0.24850  0.38810  1.0000 0.1493981352
H   H189      1.0  0.21470  0.74850  0.38810  1.0000 0.1493981352
H   H190      1.0  0.28530  0.25150  0.88810  1.0000 0.1493981352
H   H191      1.0  0.78530  0.24850  0.11190  1.0000 0.1493981352
H   H192      1.0  0.71470  0.75150  0.61190  1.0000 0.1493981352
H   H193      1.0  0.68050  0.24320  0.62990  1.0000 0.1493981352
H   H194      1.0  0.81950  0.75680  0.12990  1.0000 0.1493981352
H   H195      1.0  0.31950  0.74320  0.87010  1.0000 0.1493981352
H   H196      1.0  0.18050  0.25680  0.37010  1.0000 0.1493981352
H   H197      1.0  0.31950  0.75680  0.37010  1.0000 0.1493981352
H   H198      1.0  0.18050  0.24320  0.87010  1.0000 0.1493981352
H   H199      1.0  0.68050  0.25680  0.12990  1.0000 0.1493981352
H   H200      1.0  0.81950  0.74320  0.62990  1.0000 0.1493981352
H   H201      1.0  0.62710  0.32980  0.38490  1.0000 0.1493981352
H   H202      1.0  0.87290  0.67020  0.88490  1.0000 0.1493981352
H   H203      1.0  0.37290  0.82980  0.11510  1.0000 0.1493981352
H   H204      1.0  0.12710  0.17020  0.61510  1.0000 0.1493981352
H   H205      1.0  0.37290  0.67020  0.61510  1.0000 0.1493981352
H   H206      1.0  0.12710  0.32980  0.11510  1.0000 0.1493981352
H   H207      1.0  0.62710  0.17020  0.88490  1.0000 0.1493981352
H   H208      1.0  0.87290  0.82980  0.38490  1.0000 0.1493981352
H   H209      1.0  0.70390  0.28040  0.38340  1.0000 0.1493981352
H   H210      1.0  0.79610  0.71960  0.88340  1.0000 0.1493981352
H   H211      1.0  0.29610  0.78040  0.11660  1.0000 0.1493981352
H   H212      1.0  0.20390  0.21960  0.61660  1.0000 0.1493981352
H   H213      1.0  0.29610  0.71960  0.61660  1.0000 0.1493981352
H   H214      1.0  0.20390  0.28040  0.11660  1.0000 0.1493981352
H   H215      1.0  0.70390  0.21960  0.88340  1.0000 0.1493981352
H   H216      1.0  0.79610  0.78040  0.38340  1.0000 0.1493981352
H   H217      1.0  0.73300  0.34700  0.38900  1.0000 0.1432976804
H   H218      1.0  0.76700  0.65300  0.88900  1.0000 0.1432976804
H   H219      1.0  0.26700  0.84700  0.11100  1.0000 0.1432976804
H   H220      1.0  0.23300  0.15300  0.61100  1.0000 0.1432976804
H   H221      1.0  0.26700  0.65300  0.61100  1.0000 0.1432976804
H   H222      1.0  0.23300  0.34700  0.11100  1.0000 0.1432976804
H   H223      1.0  0.73300  0.15300  0.88900  1.0000 0.1432976804
H   H224      1.0  0.76700  0.84700  0.38900  1.0000 0.1432976804
C   C1        1.0  0.81530  0.16270  0.28510  1.0000 -0.4678380933
C   C2        1.0  0.68470  0.83730  0.78510  1.0000 -0.4678380933
C   C3        1.0  0.18470  0.66270  0.21490  1.0000 -0.4678380933
C   C4        1.0  0.31530  0.33730  0.71490  1.0000 -0.4678380933
C   C5        1.0  0.18470  0.83730  0.71490  1.0000 -0.4678380933
C   C6        1.0  0.31530  0.16270  0.21490  1.0000 -0.4678380933
C   C7        1.0  0.81530  0.33730  0.78510  1.0000 -0.4678380933
C   C8        1.0  0.68470  0.66270  0.28510  1.0000 -0.4678380933
C   C9        1.0  0.83660  0.09987  0.29664  1.0000 0.2076290778
C   C10       1.0  0.66340  0.90013  0.79664  1.0000 0.2076290778
C   C11       1.0  0.16340  0.59987  0.20336  1.0000 0.2076290778
C   C12       1.0  0.33660  0.40013  0.70336  1.0000 0.2076290778
C   C13       1.0  0.16340  0.90013  0.70336  1.0000 0.2076290778
C   C14       1.0  0.33660  0.09987  0.20336  1.0000 0.2076290778
C   C15       1.0  0.83660  0.40013  0.79664  1.0000 0.2076290778
C   C16       1.0  0.66340  0.59987  0.29664  1.0000 0.2076290778
C   C17       1.0  0.80370  0.05015  0.26692  1.0000 -0.1173269649
C   C18       1.0  0.69630  0.94985  0.76692  1.0000 -0.1173269649
C   C19       1.0  0.19630  0.55015  0.23308  1.0000 -0.1173269649
C   C20       1.0  0.30370  0.44985  0.73308  1.0000 -0.1173269649
C   C21       1.0  0.19630  0.94985  0.73308  1.0000 -0.1173269649
C   C22       1.0  0.30370  0.05015  0.23308  1.0000 -0.1173269649
C   C23       1.0  0.80370  0.44985  0.76692  1.0000 -0.1173269649
C   C24       1.0  0.69630  0.55015  0.26692  1.0000 -0.1173269649
C   C25       1.0  0.84400  0.00310  0.29490  1.0000 0.1895836866
C   C26       1.0  0.65600  0.99690  0.79490  1.0000 0.1895836866
C   C27       1.0  0.15600  0.50310  0.20510  1.0000 0.1895836866
C   C28       1.0  0.34400  0.49690  0.70510  1.0000 0.1895836866
C   C29       1.0  0.15600  0.99690  0.70510  1.0000 0.1895836866
C   C30       1.0  0.34400  0.00310  0.20510  1.0000 0.1895836866
C   C31       1.0  0.84400  0.49690  0.79490  1.0000 0.1895836866
C   C32       1.0  0.65600  0.50310  0.29490  1.0000 0.1895836866
C   C33       1.0  0.83430  0.93900  0.28520  1.0000 -0.4678380933
C   C34       1.0  0.66570  0.06100  0.78520  1.0000 -0.4678380933
C   C35       1.0  0.16570  0.43900  0.21480  1.0000 -0.4678380933
C   C36       1.0  0.33430  0.56100  0.71480  1.0000 -0.4678380933
C   C37       1.0  0.16570  0.06100  0.71480  1.0000 -0.4678380933
C   C38       1.0  0.33430  0.93900  0.21480  1.0000 -0.4678380933
C   C39       1.0  0.83430  0.56100  0.78520  1.0000 -0.4678380933
C   C40       1.0  0.66570  0.43900  0.28520  1.0000 -0.4678380933
C   C41       1.0  0.59210  0.09360  0.26270  1.0000 -0.4678380933
C   C42       1.0  0.90790  0.90640  0.76270  1.0000 -0.4678380933
C   C43       1.0  0.40790  0.59360  0.23730  1.0000 -0.4678380933
C   C44       1.0  0.09210  0.40640  0.73730  1.0000 -0.4678380933
C   C45       1.0  0.40790  0.90640  0.73730  1.0000 -0.4678380933
C   C46       1.0  0.09210  0.09360  0.23730  1.0000 -0.4678380933
C   C47       1.0  0.59210  0.40640  0.76270  1.0000 -0.4678380933
C   C48       1.0  0.90790  0.59360  0.26270  1.0000 -0.4678380933
C   C49       1.0  0.65030  0.07185  0.21404  1.0000 0.2016713601
C   C50       1.0  0.84970  0.92815  0.71404  1.0000 0.2016713601
C   C51       1.0  0.34970  0.57185  0.28596  1.0000 0.2016713601
C   C52       1.0  0.15030  0.42815  0.78596  1.0000 0.2016713601
C   C53       1.0  0.34970  0.92815  0.78596  1.0000 0.2016713601
C   C54       1.0  0.15030  0.07185  0.28596  1.0000 0.2016713601
C   C55       1.0  0.65030  0.42815  0.71404  1.0000 0.2016713601
C   C56       1.0  0.84970  0.57185  0.21404  1.0000 0.2016713601
C   C57       1.0  0.74090  0.04989  0.21646  1.0000 -0.1173269649
C   C58       1.0  0.75910  0.95011  0.71646  1.0000 -0.1173269649
C   C59       1.0  0.25910  0.54989  0.28354  1.0000 -0.1173269649
C   C60       1.0  0.24090  0.45011  0.78354  1.0000 -0.1173269649
C   C61       1.0  0.25910  0.95011  0.78354  1.0000 -0.1173269649
C   C62       1.0  0.24090  0.04989  0.28354  1.0000 -0.1173269649
C   C63       1.0  0.74090  0.45011  0.71646  1.0000 -0.1173269649
C   C64       1.0  0.75910  0.54989  0.21646  1.0000 -0.1173269649
C   C65       1.0  0.75940  0.02950  0.16100  1.0000 0.1817055537
C   C66       1.0  0.74060  0.97050  0.66100  1.0000 0.1817055537
C   C67       1.0  0.24060  0.52950  0.33900  1.0000 0.1817055537
C   C68       1.0  0.25940  0.47050  0.83900  1.0000 0.1817055537
C   C69       1.0  0.24060  0.97050  0.83900  1.0000 0.1817055537
C   C70       1.0  0.25940  0.02950  0.33900  1.0000 0.1817055537
C   C71       1.0  0.75940  0.47050  0.66100  1.0000 0.1817055537
C   C72       1.0  0.74060  0.52950  0.16100  1.0000 0.1817055537
C   C73       1.0  0.84090  0.99800  0.13710  1.0000 -0.461516251
C   C74       1.0  0.65910  0.00200  0.63710  1.0000 -0.461516251
C   C75       1.0  0.15910  0.49800  0.36290  1.0000 -0.461516251
C   C76       1.0  0.34090  0.50200  0.86290  1.0000 -0.461516251
C   C77       1.0  0.15910  0.00200  0.86290  1.0000 -0.461516251
C   C78       1.0  0.34090  0.99800  0.36290  1.0000 -0.461516251
C   C79       1.0  0.84090  0.50200  0.63710  1.0000 -0.461516251
C   C80       1.0  0.65910  0.49800  0.13710  1.0000 -0.461516251
C   C81       1.0  0.91320  0.28090  0.42350  1.0000 -0.461516251
C   C82       1.0  0.58680  0.71910  0.92350  1.0000 -0.461516251
C   C83       1.0  0.08680  0.78090  0.07650  1.0000 -0.461516251
C   C84       1.0  0.41320  0.21910  0.57650  1.0000 -0.461516251
C   C85       1.0  0.08680  0.71910  0.57650  1.0000 -0.461516251
C   C86       1.0  0.41320  0.28090  0.07650  1.0000 -0.461516251
C   C87       1.0  0.91320  0.21910  0.92350  1.0000 -0.461516251
C   C88       1.0  0.58680  0.78090  0.42350  1.0000 -0.461516251
C   C89       1.0  0.86960  0.22930  0.45270  1.0000 0.2016713601
C   C90       1.0  0.63040  0.77070  0.95270  1.0000 0.2016713601
C   C91       1.0  0.13040  0.72930  0.04730  1.0000 0.2016713601
C   C92       1.0  0.36960  0.27070  0.54730  1.0000 0.2016713601
C   C93       1.0  0.13040  0.77070  0.54730  1.0000 0.2016713601
C   C94       1.0  0.36960  0.22930  0.04730  1.0000 0.2016713601
C   C95       1.0  0.86960  0.27070  0.95270  1.0000 0.2016713601
C   C96       1.0  0.63040  0.72930  0.45270  1.0000 0.2016713601
C   C97       1.0  0.79020  0.22807  0.48773  1.0000 -0.1148351648
C   C98       1.0  0.70980  0.77193  0.98773  1.0000 -0.1148351648
C   C99       1.0  0.20980  0.72807  0.01227  1.0000 -0.1148351648
C   C100      1.0  0.29020  0.27193  0.51227  1.0000 -0.1148351648
C   C101      1.0  0.20980  0.77193  0.51227  1.0000 -0.1148351648
C   C102      1.0  0.29020  0.22807  0.01227  1.0000 -0.1148351648
C   C103      1.0  0.79020  0.27193  0.98773  1.0000 -0.1148351648
C   C104      1.0  0.70980  0.72807  0.48773  1.0000 -0.1148351648
C   C105      1.0  0.78200  0.17030  0.50570  1.0000 0.1895836866
C   C106      1.0  0.71800  0.82970  0.00570  1.0000 0.1895836866
C   C107      1.0  0.21800  0.67030  0.99430  1.0000 0.1895836866
C   C108      1.0  0.28200  0.32970  0.49430  1.0000 0.1895836866
C   C109      1.0  0.21800  0.82970  0.49430  1.0000 0.1895836866
C   C110      1.0  0.28200  0.17030  0.99430  1.0000 0.1895836866
C   C111      1.0  0.78200  0.32970  0.00570  1.0000 0.1895836866
C   C112      1.0  0.71800  0.67030  0.50570  1.0000 0.1895836866
C   C113      1.0  0.71380  0.14000  0.54340  1.0000 -0.461516251
C   C114      1.0  0.78620  0.86000  0.04340  1.0000 -0.461516251
C   C115      1.0  0.28620  0.64000  0.95660  1.0000 -0.461516251
C   C116      1.0  0.21380  0.36000  0.45660  1.0000 -0.461516251
C   C117      1.0  0.28620  0.86000  0.45660  1.0000 -0.461516251
C   C118      1.0  0.21380  0.14000  0.95660  1.0000 -0.461516251
C   C119      1.0  0.71380  0.36000  0.04340  1.0000 -0.461516251
C   C120      1.0  0.78620  0.64000  0.54340  1.0000 -0.461516251
C   C121      1.0  0.72600  0.27090  0.61570  1.0000 -0.4678380933
C   C122      1.0  0.77400  0.72910  0.11570  1.0000 -0.4678380933
C   C123      1.0  0.27400  0.77090  0.88430  1.0000 -0.4678380933
C   C124      1.0  0.22600  0.22910  0.38430  1.0000 -0.4678380933
C   C125      1.0  0.27400  0.72910  0.38430  1.0000 -0.4678380933
C   C126      1.0  0.22600  0.27090  0.88430  1.0000 -0.4678380933
C   C127      1.0  0.72600  0.22910  0.11570  1.0000 -0.4678380933
C   C128      1.0  0.77400  0.77090  0.61570  1.0000 -0.4678380933
C   C129      1.0  0.69630  0.29380  0.55771  1.0000 0.2016713601
C   C130      1.0  0.80370  0.70620  0.05771  1.0000 0.2016713601
C   C131      1.0  0.30370  0.79380  0.94229  1.0000 0.2016713601
C   C132      1.0  0.19630  0.20620  0.44229  1.0000 0.2016713601
C   C133      1.0  0.30370  0.70620  0.44229  1.0000 0.2016713601
C   C134      1.0  0.19630  0.29380  0.94229  1.0000 0.2016713601
C   C135      1.0  0.69630  0.20620  0.05771  1.0000 0.2016713601
C   C136      1.0  0.80370  0.79380  0.55771  1.0000 0.2016713601
C   C137      1.0  0.72750  0.27660  0.50214  1.0000 -0.1173269649
C   C138      1.0  0.77250  0.72340  0.00214  1.0000 -0.1173269649
C   C139      1.0  0.27250  0.77660  0.99786  1.0000 -0.1173269649
C   C140      1.0  0.22750  0.22340  0.49786  1.0000 -0.1173269649
C   C141      1.0  0.27250  0.72340  0.49786  1.0000 -0.1173269649
C   C142      1.0  0.22750  0.27660  0.99786  1.0000 -0.1173269649
C   C143      1.0  0.72750  0.22340  0.00214  1.0000 -0.1173269649
C   C144      1.0  0.77250  0.77660  0.50214  1.0000 -0.1173269649
C   C145      1.0  0.68260  0.31340  0.46404  1.0000 0.1895836866
C   C146      1.0  0.81740  0.68660  0.96404  1.0000 0.1895836866
C   C147      1.0  0.31740  0.81340  0.03596  1.0000 0.1895836866
C   C148      1.0  0.18260  0.18660  0.53596  1.0000 0.1895836866
C   C149      1.0  0.31740  0.68660  0.53596  1.0000 0.1895836866
C   C150      1.0  0.18260  0.31340  0.03596  1.0000 0.1895836866
C   C151      1.0  0.68260  0.18660  0.96404  1.0000 0.1895836866
C   C152      1.0  0.81740  0.81340  0.46404  1.0000 0.1895836866
C   C153      1.0  0.68700  0.31810  0.39970  1.0000 -0.4678380933
C   C154      1.0  0.81300  0.68190  0.89970  1.0000 -0.4678380933
C   C155      1.0  0.31300  0.81810  0.10030  1.0000 -0.4678380933
C   C156      1.0  0.18700  0.18190  0.60030  1.0000 -0.4678380933
C   C157      1.0  0.31300  0.68190  0.60030  1.0000 -0.4678380933
C   C158      1.0  0.18700  0.31810  0.10030  1.0000 -0.4678380933
C   C159      1.0  0.68700  0.18190  0.89970  1.0000 -0.4678380933
C   C160      1.0  0.81300  0.81810  0.39970  1.0000 -0.4678380933
C   C161      1.0  0.05960  0.23600  0.28560  1.0000 0.2640976093
C   C162      1.0  0.44040  0.76400  0.78560  1.0000 0.2640976093
C   C163      1.0  0.94040  0.73600  0.21440  1.0000 0.2640976093
C   C164      1.0  0.55960  0.26400  0.71440  1.0000 0.2640976093
C   C165      1.0  0.94040  0.76400  0.71440  1.0000 0.2640976093
C   C166      1.0  0.55960  0.23600  0.21440  1.0000 0.2640976093
C   C167      1.0  0.05960  0.26400  0.78560  1.0000 0.2640976093
C   C168      1.0  0.44040  0.73600  0.28560  1.0000 0.2640976093
S   S1        1.0  0.10786  0.27429  0.23414  1.0000 -0.3531515368
S   S2        1.0  0.39214  0.72571  0.73414  1.0000 -0.3575309136
S   S3        1.0  0.89214  0.77429  0.26586  1.0000 -0.3575309136
S   S4        1.0  0.60786  0.22571  0.76586  1.0000 -0.3531515368
S   S5        1.0  0.89214  0.72571  0.76586  1.0000 -0.3575309136
S   S6        1.0  0.60786  0.27429  0.26586  1.0000 -0.3531515368
S   S7        1.0  0.10786  0.22571  0.73414  1.0000 -0.3531515368
S   S8        1.0  0.39214  0.77429  0.23414  1.0000 -0.3575309136
N   N1        1.0  0.89380  0.08456  0.33979  1.0000 -0.2544409392
N   N2        1.0  0.60620  0.91544  0.83979  1.0000 -0.2544409392
N   N3        1.0  0.10620  0.58456  0.16021  1.0000 -0.2544409392
N   N4        1.0  0.39380  0.41544  0.66021  1.0000 -0.2544409392
N   N5        1.0  0.10620  0.91544  0.66021  1.0000 -0.2585969751
N   N6        1.0  0.39380  0.08456  0.16021  1.0000 -0.2544409392
N   N7        1.0  0.89380  0.41544  0.83979  1.0000 -0.2544409392
N   N8        1.0  0.60620  0.58456  0.33979  1.0000 -0.2544409392
N   N9        1.0  0.89690  0.02496  0.33723  1.0000 -0.1497443194
N   N10       1.0  0.60310  0.97504  0.83723  1.0000 -0.1497443194
N   N11       1.0  0.10310  0.52496  0.16277  1.0000 -0.1497443194
N   N12       1.0  0.39690  0.47504  0.66277  1.0000 -0.1497443194
N   N13       1.0  0.10310  0.97504  0.66277  1.0000 -0.1497443194
N   N14       1.0  0.39690  0.02496  0.16277  1.0000 -0.1497443194
N   N15       1.0  0.89690  0.47504  0.83723  1.0000 -0.1497443194
N   N16       1.0  0.60310  0.52496  0.33723  1.0000 -0.1497443194
N   N17       1.0  0.61670  0.06741  0.15992  1.0000 -0.2424553589
N   N18       1.0  0.88330  0.93259  0.65992  1.0000 -0.2424553589
N   N19       1.0  0.38330  0.56741  0.34008  1.0000 -0.2424553589
N   N20       1.0  0.11670  0.43259  0.84008  1.0000 -0.2424553589
N   N21       1.0  0.38330  0.93259  0.84008  1.0000 -0.2424553589
N   N22       1.0  0.11670  0.06741  0.34008  1.0000 -0.2424553589
N   N23       1.0  0.61670  0.43259  0.65992  1.0000 -0.2424553589
N   N24       1.0  0.88330  0.56741  0.15992  1.0000 -0.2424553589
N   N25       1.0  0.68370  0.04185  0.12891  1.0000 -0.141368977
N   N26       1.0  0.81630  0.95815  0.62891  1.0000 -0.141368977
N   N27       1.0  0.31630  0.54185  0.37109  1.0000 -0.141368977
N   N28       1.0  0.18370  0.45815  0.87109  1.0000 -0.141368977
N   N29       1.0  0.31630  0.95815  0.87109  1.0000 -0.141368977
N   N30       1.0  0.18370  0.04185  0.37109  1.0000 -0.141368977
N   N31       1.0  0.68370  0.45815  0.62891  1.0000 -0.141368977
N   N32       1.0  0.81630  0.54185  0.12891  1.0000 -0.141368977
N   N33       1.0  0.90750  0.17629  0.44904  1.0000 -0.2544409392
N   N34       1.0  0.59250  0.82371  0.94904  1.0000 -0.2544409392
N   N35       1.0  0.09250  0.67629  0.05096  1.0000 -0.2544409392
N   N36       1.0  0.40750  0.32371  0.55096  1.0000 -0.2544409392
N   N37       1.0  0.09250  0.82371  0.55096  1.0000 -0.2544409392
N   N38       1.0  0.40750  0.17629  0.05096  1.0000 -0.2544409392
N   N39       1.0  0.90750  0.32371  0.94904  1.0000 -0.2544409392
N   N40       1.0  0.59250  0.67629  0.44904  1.0000 -0.2544409392
N   N41       1.0  0.85280  0.14093  0.48177  1.0000 -0.1497443194
N   N42       1.0  0.64720  0.85907  0.98177  1.0000 -0.1497443194
N   N43       1.0  0.14720  0.64093  0.01823  1.0000 -0.1497443194
N   N44       1.0  0.35280  0.35907  0.51823  1.0000 -0.1497443194
N   N45       1.0  0.14720  0.85907  0.51823  1.0000 -0.1497443194
N   N46       1.0  0.35280  0.14093  0.01823  1.0000 -0.1497443194
N   N47       1.0  0.85280  0.35907  0.98177  1.0000 -0.1497443194
N   N48       1.0  0.64720  0.64093  0.48177  1.0000 -0.1497443194
N   N49       1.0  0.63590  0.33768  0.55332  1.0000 -0.2585969751
N   N50       1.0  0.86410  0.66232  0.05332  1.0000 -0.2585969751
N   N51       1.0  0.36410  0.83768  0.94668  1.0000 -0.2585969751
N   N52       1.0  0.13590  0.16232  0.44668  1.0000 -0.2585969751
N   N53       1.0  0.36410  0.66232  0.44668  1.0000 -0.2585969751
N   N54       1.0  0.13590  0.33768  0.94668  1.0000 -0.2585969751
N   N55       1.0  0.63590  0.16232  0.05332  1.0000 -0.2585969751
N   N56       1.0  0.86410  0.83768  0.55332  1.0000 -0.2585969751
N   N57       1.0  0.62840  0.34877  0.49558  1.0000 -0.1497443194
N   N58       1.0  0.87160  0.65123  0.99558  1.0000 -0.1497443194
N   N59       1.0  0.37160  0.84877  0.00442  1.0000 -0.1497443194
N   N60       1.0  0.12840  0.15123  0.50442  1.0000 -0.1497443194
N   N61       1.0  0.37160  0.65123  0.50442  1.0000 -0.1497443194
N   N62       1.0  0.12840  0.34877  0.00442  1.0000 -0.1497443194
N   N63       1.0  0.62840  0.15123  0.99558  1.0000 -0.1497443194
N   N64       1.0  0.87160  0.84877  0.49558  1.0000 -0.1497443194
N   N65       1.0  0.02690  0.20782  0.32099  1.0000 -0.461516251
N   N66       1.0  0.47310  0.79218  0.82099  1.0000 -0.4678380933
N   N67       1.0  0.97310  0.70782  0.17901  1.0000 -0.461516251
N   N68       1.0  0.52690  0.29218  0.67901  1.0000 -0.461516251
N   N69       1.0  0.97310  0.79218  0.67901  1.0000 -0.461516251
N   N70       1.0  0.52690  0.20782  0.17901  1.0000 -0.461516251
N   N71       1.0  0.02690  0.29218  0.82099  1.0000 -0.461516251
N   N72       1.0  0.47310  0.70782  0.32099  1.0000 -0.4678380933
F   F1        1.0  0.00246  0.05729  0.45371  1.0000 -0.5418082022
F   F2        1.0  0.49754  0.94271  0.95371  1.0000 -0.5418082022
F   F3        1.0  0.99754  0.55729  0.04629  1.0000 -0.5418082022
F   F4        1.0  0.50246  0.44271  0.54629  1.0000 -0.5418082022
F   F5        1.0  0.99754  0.94271  0.54629  1.0000 -0.5418082022
F   F6        1.0  0.50246  0.05729  0.04629  1.0000 -0.5418082022
F   F7        1.0  0.00246  0.44271  0.95371  1.0000 -0.5418082022
F   F8        1.0  0.49754  0.55729  0.45371  1.0000 -0.5418082022
F   F9        1.0  0.89335  0.01990  0.52171  1.0000 -0.548397451
F   F10       1.0  0.60665  0.98010  0.02171  1.0000 -0.548397451
F   F11       1.0  0.10665  0.51990  0.97829  1.0000 -0.548397451
F   F12       1.0  0.39335  0.48010  0.47829  1.0000 -0.548397451
F   F13       1.0  0.10665  0.98010  0.47829  1.0000 -0.548397451
F   F14       1.0  0.39335  0.01990  0.97829  1.0000 -0.548397451
F   F15       1.0  0.89335  0.48010  0.02171  1.0000 -0.548397451
F   F16       1.0  0.60665  0.51990  0.52171  1.0000 -0.548397451
F   F17       1.0  0.04700  0.04189  0.55206  1.0000 -0.548397451
F   F18       1.0  0.45300  0.95811  0.05206  1.0000 -0.548397451
F   F19       1.0  0.95300  0.54189  0.94794  1.0000 -0.548397451
F   F20       1.0  0.54700  0.45811  0.44794  1.0000 -0.548397451
F   F21       1.0  0.95300  0.95811  0.44794  1.0000 -0.548397451
F   F22       1.0  0.54700  0.04189  0.94794  1.0000 -0.548397451
F   F23       1.0  0.04700  0.45811  0.05206  1.0000 -0.548397451
F   F24       1.0  0.45300  0.54189  0.55206  1.0000 -0.548397451
