# DDEC6 charges by PACMAN v1.1 (https://github.com/mtap-research/PACMAN-charge/)
data_2014[Cu][pcu]3[FSR]4
_chemical_formula_sum              "Cu12 H72 C88 N32"
_cell_length_a       16.2717
_cell_length_b       12.6684
_cell_length_c       17.6021
_cell_angle_alpha    90
_cell_angle_beta     112.523
_cell_angle_gamma    90

_symmetry_space_group_name_H-M    "P 1"
_symmetry_Int_Tables_number       1

loop_
  _symmetry_equiv_pos_as_xyz
  'x, y, z'

loop_
  _atom_site_type_symbol
  _atom_site_label
  _atom_site_symmetry_multiplicity
  _atom_site_fract_x
  _atom_site_fract_y
  _atom_site_fract_z
  _atom_site_occupancy
  _atom_site_charge
Cu  Cu1       1.0  0.47472  0.82801  0.54906  1.0000 0.239635404
Cu  Cu2       1.0  0.52528  0.32801  0.95094  1.0000 0.239635404
Cu  Cu3       1.0  0.52528  0.17199  0.45094  1.0000 0.239635404
Cu  Cu4       1.0  0.47472  0.67199  0.04906  1.0000 0.239635404
Cu  Cu5       1.0  0.38634  0.89591  0.63292  1.0000 0.2289141749
Cu  Cu6       1.0  0.61366  0.39591  0.86708  1.0000 0.2289141749
Cu  Cu7       1.0  0.61366  0.10409  0.36708  1.0000 0.2289141749
Cu  Cu8       1.0  0.38634  0.60409  0.13292  1.0000 0.2289141749
Cu  Cu9       1.0  0.91992  0.88711  0.55857  1.0000 0.1704091427
Cu  Cu10      1.0  0.08008  0.38711  0.94143  1.0000 0.1704091427
Cu  Cu11      1.0  0.08008  0.11289  0.44143  1.0000 0.1704091427
Cu  Cu12      1.0  0.91992  0.61289  0.05857  1.0000 0.1704091427
H   H1        1.0  0.73230  0.86120  0.46330  1.0000 0.0909955409
H   H2        1.0  0.26770  0.36120  0.03670  1.0000 0.0909955409
H   H3        1.0  0.26770  0.13880  0.53670  1.0000 0.0909955409
H   H4        1.0  0.73230  0.63880  0.96330  1.0000 0.0909955409
H   H5        1.0  0.60100  0.87410  0.48040  1.0000 0.12922542
H   H6        1.0  0.39900  0.37410  0.01960  1.0000 0.12922542
H   H7        1.0  0.39900  0.12590  0.51960  1.0000 0.12922542
H   H8        1.0  0.60100  0.62590  0.98040  1.0000 0.12922542
H   H9        1.0  0.73900  0.95810  0.71490  1.0000 0.1248694172
H   H10       1.0  0.26100  0.45810  0.78510  1.0000 0.1248694172
H   H11       1.0  0.26100  0.04190  0.28510  1.0000 0.1248694172
H   H12       1.0  0.73900  0.54190  0.21490  1.0000 0.12922542
H   H13       1.0  0.86550  0.94420  0.68990  1.0000 0.0971813255
H   H14       1.0  0.13450  0.44420  0.81010  1.0000 0.0971813255
H   H15       1.0  0.13450  0.05580  0.31010  1.0000 0.0971813255
H   H16       1.0  0.86550  0.55580  0.18990  1.0000 0.0971813255
H   H17       1.0  0.61410  0.02100  0.70030  1.0000 0.0909955409
H   H18       1.0  0.38590  0.52100  0.79970  1.0000 0.0909955409
H   H19       1.0  0.38590  0.97900  0.29970  1.0000 0.0909955409
H   H20       1.0  0.61410  0.47900  0.20030  1.0000 0.0909955409
H   H21       1.0  0.38390  0.23130  0.79670  1.0000 0.0971813255
H   H22       1.0  0.61610  0.73130  0.70330  1.0000 0.0971813255
H   H23       1.0  0.61610  0.76870  0.20330  1.0000 0.0971813255
H   H24       1.0  0.38390  0.26870  0.29670  1.0000 0.0971813255
H   H25       1.0  0.37350  0.11340  0.69440  1.0000 0.12922542
H   H26       1.0  0.62650  0.61340  0.80560  1.0000 0.12922542
H   H27       1.0  0.62650  0.88660  0.30560  1.0000 0.12922542
H   H28       1.0  0.37350  0.38660  0.19440  1.0000 0.12922542
H   H29       1.0  0.62100  0.01590  0.83220  1.0000 0.12922542
H   H30       1.0  0.37900  0.51590  0.66780  1.0000 0.12922542
H   H31       1.0  0.37900  0.98410  0.16780  1.0000 0.12922542
H   H32       1.0  0.62100  0.48410  0.33220  1.0000 0.12922542
H   H33       1.0  0.62220  0.13380  0.93080  1.0000 0.0971813255
H   H34       1.0  0.37780  0.63380  0.56920  1.0000 0.0971813255
H   H35       1.0  0.37780  0.86620  0.06920  1.0000 0.0971813255
H   H36       1.0  0.62220  0.36620  0.43080  1.0000 0.0971813255
H   H37       1.0  0.49580  0.64830  0.31260  1.0000 0.0909955409
H   H38       1.0  0.50420  0.14830  0.18740  1.0000 0.0909955409
H   H39       1.0  0.50420  0.35170  0.68740  1.0000 0.0909955409
H   H40       1.0  0.49580  0.85170  0.81260  1.0000 0.0909955409
H   H41       1.0  0.48950  0.71220  0.43130  1.0000 0.12922542
H   H42       1.0  0.51050  0.21220  0.06870  1.0000 0.12922542
H   H43       1.0  0.51050  0.28780  0.56870  1.0000 0.12922542
H   H44       1.0  0.48950  0.78780  0.93130  1.0000 0.12922542
H   H45       1.0  0.24220  0.81390  0.30020  1.0000 0.1248694172
H   H46       1.0  0.75780  0.31390  0.19980  1.0000 0.1248694172
H   H47       1.0  0.75780  0.18610  0.69980  1.0000 0.1248694172
H   H48       1.0  0.24220  0.68610  0.80020  1.0000 0.1248694172
H   H49       1.0  0.25720  0.74570  0.18630  1.0000 0.0971813255
H   H50       1.0  0.74280  0.24570  0.31370  1.0000 0.0971813255
H   H51       1.0  0.74280  0.25430  0.81370  1.0000 0.0971813255
H   H52       1.0  0.25720  0.75430  0.68630  1.0000 0.0971813255
H   H53       1.0  0.23500  0.80750  0.41960  1.0000 0.0909955409
H   H54       1.0  0.76500  0.30750  0.08040  1.0000 0.0909955409
H   H55       1.0  0.76500  0.19250  0.58040  1.0000 0.0909955409
H   H56       1.0  0.23500  0.69250  0.91960  1.0000 0.0909955409
H   H57       1.0  0.09150  0.98930  0.63010  1.0000 0.0909955409
H   H58       1.0  0.90850  0.48930  0.86990  1.0000 0.0909955409
H   H59       1.0  0.90850  0.01070  0.36990  1.0000 0.0909955409
H   H60       1.0  0.09150  0.51070  0.13010  1.0000 0.0909955409
H   H61       1.0  0.22760  0.98110  0.62110  1.0000 0.12922542
H   H62       1.0  0.77240  0.48110  0.87890  1.0000 0.12922542
H   H63       1.0  0.77240  0.01890  0.37890  1.0000 0.12922542
H   H64       1.0  0.22760  0.51890  0.12110  1.0000 0.12922542
H   H65       1.0  0.13420  0.74930  0.45600  1.0000 0.12922542
H   H66       1.0  0.86580  0.24930  0.04400  1.0000 0.12922542
H   H67       1.0  0.86580  0.25070  0.54400  1.0000 0.12922542
H   H68       1.0  0.13420  0.75070  0.95600  1.0000 0.12922542
H   H69       1.0  0.99900  0.77080  0.46580  1.0000 0.0909955409
H   H70       1.0  0.00100  0.27080  0.03420  1.0000 0.0909955409
H   H71       1.0  0.00100  0.22920  0.53420  1.0000 0.0909955409
H   H72       1.0  0.99900  0.72920  0.96580  1.0000 0.0909955409
C   C1        1.0  0.73350  0.88100  0.51460  1.0000 0.0486899798
C   C2        1.0  0.26650  0.38100  0.98540  1.0000 0.0486899798
C   C3        1.0  0.26650  0.11900  0.48540  1.0000 0.0486899798
C   C4        1.0  0.73350  0.61900  0.01460  1.0000 0.0486899798
C   C5        1.0  0.65402  0.88870  0.52430  1.0000 -0.2597749839
C   C6        1.0  0.34598  0.38870  0.97570  1.0000 -0.2597749839
C   C7        1.0  0.34598  0.11130  0.47570  1.0000 -0.2597749839
C   C8        1.0  0.65402  0.61130  0.02430  1.0000 -0.2597749839
C   C9        1.0  0.65272  0.91850  0.59994  1.0000 0.239635404
C   C10       1.0  0.34728  0.41850  0.90006  1.0000 0.239635404
C   C11       1.0  0.34728  0.08150  0.40006  1.0000 0.239635404
C   C12       1.0  0.65272  0.58150  0.09994  1.0000 0.239635404
C   C13       1.0  0.73559  0.93860  0.66289  1.0000 -0.2597749839
C   C14       1.0  0.26441  0.43860  0.83711  1.0000 -0.2597749839
C   C15       1.0  0.26441  0.06140  0.33711  1.0000 -0.2597749839
C   C16       1.0  0.73559  0.56140  0.16289  1.0000 -0.2597749839
C   C17       1.0  0.81140  0.92940  0.64730  1.0000 0.0486899798
C   C18       1.0  0.18860  0.42940  0.85270  1.0000 0.0486899798
C   C19       1.0  0.18860  0.07060  0.35270  1.0000 0.0486899798
C   C20       1.0  0.81140  0.57060  0.14730  1.0000 0.0486899798
C   C21       1.0  0.56544  0.98030  0.66862  1.0000 0.183769278
C   C22       1.0  0.43456  0.48030  0.83138  1.0000 0.183769278
C   C23       1.0  0.43456  0.01970  0.33138  1.0000 0.183769278
C   C24       1.0  0.56544  0.51970  0.16862  1.0000 0.183769278
C   C25       1.0  0.43200  0.18720  0.80365  1.0000 0.0679521125
C   C26       1.0  0.56800  0.68720  0.69635  1.0000 0.0679521125
C   C27       1.0  0.56800  0.81280  0.19635  1.0000 0.0679521125
C   C28       1.0  0.43200  0.31280  0.30365  1.0000 0.0679521125
C   C29       1.0  0.42549  0.11710  0.74133  1.0000 -0.2597749839
C   C30       1.0  0.57451  0.61710  0.75867  1.0000 -0.2597749839
C   C31       1.0  0.57451  0.88290  0.25867  1.0000 -0.2597749839
C   C32       1.0  0.42549  0.38290  0.24133  1.0000 -0.2597749839
C   C33       1.0  0.49736  0.05230  0.74943  1.0000 0.239635404
C   C34       1.0  0.50264  0.55230  0.75057  1.0000 0.239635404
C   C35       1.0  0.50264  0.94770  0.25057  1.0000 0.239635404
C   C36       1.0  0.49736  0.44770  0.24943  1.0000 0.239635404
C   C37       1.0  0.57194  0.05910  0.82317  1.0000 -0.2521660963
C   C38       1.0  0.42806  0.55910  0.67683  1.0000 -0.2521660963
C   C39       1.0  0.42806  0.94090  0.17683  1.0000 -0.2521660963
C   C40       1.0  0.57194  0.44090  0.32317  1.0000 -0.2521660963
C   C41       1.0  0.57210  0.13030  0.88215  1.0000 0.0679521125
C   C42       1.0  0.42790  0.63030  0.61785  1.0000 0.0679521125
C   C43       1.0  0.42790  0.86970  0.11785  1.0000 0.0679521125
C   C44       1.0  0.57210  0.36970  0.38215  1.0000 0.0679521125
C   C45       1.0  0.44361  0.68080  0.31005  1.0000 0.0679521125
C   C46       1.0  0.55639  0.18080  0.18995  1.0000 0.0679521125
C   C47       1.0  0.55639  0.31920  0.68995  1.0000 0.0679521125
C   C48       1.0  0.44361  0.81920  0.81005  1.0000 0.0679521125
C   C49       1.0  0.44037  0.71960  0.38224  1.0000 -0.2597749839
C   C50       1.0  0.55963  0.21960  0.11776  1.0000 -0.2597749839
C   C51       1.0  0.55963  0.28040  0.61776  1.0000 -0.2597749839
C   C52       1.0  0.44037  0.78040  0.88224  1.0000 -0.2597749839
C   C53       1.0  0.36447  0.76930  0.38194  1.0000 0.239635404
C   C54       1.0  0.63553  0.26930  0.11806  1.0000 0.239635404
C   C55       1.0  0.63553  0.23070  0.61806  1.0000 0.239635404
C   C56       1.0  0.36447  0.73070  0.88194  1.0000 0.239635404
C   C57       1.0  0.29449  0.77960  0.30507  1.0000 -0.2689737792
C   C58       1.0  0.70551  0.27960  0.19493  1.0000 -0.2689737792
C   C59       1.0  0.70551  0.22040  0.69493  1.0000 -0.2689737792
C   C60       1.0  0.29449  0.72040  0.80507  1.0000 -0.2689737792
C   C61       1.0  0.30439  0.73790  0.23670  1.0000 0.0486899798
C   C62       1.0  0.69561  0.23790  0.26330  1.0000 0.0486899798
C   C63       1.0  0.69561  0.26210  0.76330  1.0000 0.0486899798
C   C64       1.0  0.30439  0.76210  0.73670  1.0000 0.0486899798
C   C65       1.0  0.28745  0.82260  0.46411  1.0000 0.1990792376
C   C66       1.0  0.71255  0.32260  0.03589  1.0000 0.1990792376
C   C67       1.0  0.71255  0.17740  0.53589  1.0000 0.1990792376
C   C68       1.0  0.28745  0.67740  0.96411  1.0000 0.1990792376
C   C69       1.0  0.09980  0.94090  0.59390  1.0000 0.0679521125
C   C70       1.0  0.90020  0.44090  0.90610  1.0000 0.0679521125
C   C71       1.0  0.90020  0.05910  0.40610  1.0000 0.0679521125
C   C72       1.0  0.09980  0.55910  0.09390  1.0000 0.0679521125
C   C73       1.0  0.18233  0.93650  0.58876  1.0000 -0.2689737792
C   C74       1.0  0.81767  0.43650  0.91124  1.0000 -0.2689737792
C   C75       1.0  0.81767  0.06350  0.41124  1.0000 -0.2689737792
C   C76       1.0  0.18233  0.56350  0.08876  1.0000 -0.2689737792
C   C77       1.0  0.19800  0.86550  0.53538  1.0000 0.2289141749
C   C78       1.0  0.80200  0.36550  0.96462  1.0000 0.2289141749
C   C79       1.0  0.80200  0.13450  0.46462  1.0000 0.2289141749
C   C80       1.0  0.19800  0.63450  0.03538  1.0000 0.2289141749
C   C81       1.0  0.12730  0.80060  0.49090  1.0000 -0.2597749839
C   C82       1.0  0.87270  0.30060  0.00910  1.0000 -0.2597749839
C   C83       1.0  0.87270  0.19940  0.50910  1.0000 -0.2597749839
C   C84       1.0  0.12730  0.69940  0.99090  1.0000 -0.2597749839
C   C85       1.0  0.04630  0.81250  0.49860  1.0000 0.0486899798
C   C86       1.0  0.95370  0.31250  0.00140  1.0000 0.0486899798
C   C87       1.0  0.95370  0.18750  0.50140  1.0000 0.0486899798
C   C88       1.0  0.04630  0.68750  0.99860  1.0000 0.0486899798
N   N1        1.0  0.81278  0.90030  0.57450  1.0000 -0.2216811269
N   N2        1.0  0.18722  0.40030  0.92550  1.0000 -0.2216811269
N   N3        1.0  0.18722  0.09970  0.42550  1.0000 -0.2216811269
N   N4        1.0  0.81278  0.59970  0.07450  1.0000 -0.2216811269
N   N5        1.0  0.57214  0.92105  0.60963  1.0000 -0.3436733822
N   N6        1.0  0.42786  0.42105  0.89037  1.0000 -0.3436733822
N   N7        1.0  0.42786  0.07895  0.39037  1.0000 -0.3436733822
N   N8        1.0  0.57214  0.57895  0.10963  1.0000 -0.3436733822
N   N9        1.0  0.49263  0.98450  0.68461  1.0000 -0.3594186643
N   N10       1.0  0.50737  0.48450  0.81539  1.0000 -0.3594186643
N   N11       1.0  0.50737  0.01550  0.31539  1.0000 -0.3594186643
N   N12       1.0  0.49263  0.51550  0.18461  1.0000 -0.3594186643
N   N13       1.0  0.50401  0.19480  0.87338  1.0000 -0.2216811269
N   N14       1.0  0.49599  0.69480  0.62662  1.0000 -0.2216811269
N   N15       1.0  0.49599  0.80520  0.12662  1.0000 -0.2216811269
N   N16       1.0  0.50401  0.30520  0.37338  1.0000 -0.2216811269
N   N17       1.0  0.37673  0.68710  0.23733  1.0000 -0.2216811269
N   N18       1.0  0.62327  0.18710  0.26267  1.0000 -0.2216811269
N   N19       1.0  0.62327  0.31290  0.76267  1.0000 -0.2216811269
N   N20       1.0  0.37673  0.81290  0.73733  1.0000 -0.2216811269
N   N21       1.0  0.36386  0.80622  0.45670  1.0000 -0.3533549386
N   N22       1.0  0.63614  0.30622  0.04330  1.0000 -0.3533549386
N   N23       1.0  0.63614  0.19378  0.54330  1.0000 -0.3533549386
N   N24       1.0  0.36386  0.69378  0.95670  1.0000 -0.3533549386
N   N25       1.0  0.28228  0.86000  0.53287  1.0000 -0.3533549386
N   N26       1.0  0.71772  0.36000  0.96713  1.0000 -0.3533549386
N   N27       1.0  0.71772  0.14000  0.46713  1.0000 -0.3533549386
N   N28       1.0  0.28228  0.64000  0.03287  1.0000 -0.3533549386
N   N29       1.0  0.03229  0.88070  0.55068  1.0000 -0.2332410181
N   N30       1.0  0.96771  0.38070  0.94932  1.0000 -0.2332410181
N   N31       1.0  0.96771  0.11930  0.44932  1.0000 -0.2332410181
N   N32       1.0  0.03229  0.61930  0.05068  1.0000 -0.2332410181
