# DDEC6 charges by PACMAN v1.1 (https://github.com/mtap-research/PACMAN-charge/)
data_2014[In][nan]3[FSR]3
_chemical_formula_sum              "In12 H240 C432 O96"
_cell_length_a       29.1167
_cell_length_b       29.1167
_cell_length_c       29.1167
_cell_angle_alpha    98.5288
_cell_angle_beta     98.5288
_cell_angle_gamma    98.5288

_symmetry_space_group_name_H-M    "P 1"
_symmetry_Int_Tables_number       1

loop_
  _symmetry_equiv_pos_as_xyz
  'x, y, z'

loop_
  _atom_site_type_symbol
  _atom_site_label
  _atom_site_symmetry_multiplicity
  _atom_site_fract_x
  _atom_site_fract_y
  _atom_site_fract_z
  _atom_site_occupancy
  _atom_site_charge
In  In1       1.0  0.80190  0.23957  0.08138  1.0000 1.3963017613
In  In2       1.0  0.23957  0.08138  0.80190  1.0000 1.3963017613
In  In3       1.0  0.08138  0.80190  0.23957  1.0000 1.3938714415
In  In4       1.0  0.93390  0.50220  0.65043  1.0000 1.3597500473
In  In5       1.0  0.50220  0.65043  0.93390  1.0000 1.3597500473
In  In6       1.0  0.65043  0.93390  0.50220  1.0000 1.3597500473
In  In7       1.0  0.19810  0.76043  0.91862  1.0000 1.3938714415
In  In8       1.0  0.76043  0.91862  0.19810  1.0000 1.3963017613
In  In9       1.0  0.91862  0.19810  0.76043  1.0000 1.3963017613
In  In10      1.0  0.06610  0.49780  0.34957  1.0000 1.3597500473
In  In11      1.0  0.49780  0.34957  0.06610  1.0000 1.3597500473
In  In12      1.0  0.34957  0.06610  0.49780  1.0000 1.3597500473
H   H1        1.0  0.73940  0.18890  0.20910  1.0000 0.1294869456
H   H2        1.0  0.18890  0.20910  0.73940  1.0000 0.1294869456
H   H3        1.0  0.20910  0.73940  0.18890  1.0000 0.1294869456
H   H4        1.0  0.85880  0.28420  0.25090  1.0000 0.1294869456
H   H5        1.0  0.28420  0.25090  0.85880  1.0000 0.1294869456
H   H6        1.0  0.25090  0.85880  0.28420  1.0000 0.1294869456
H   H7        1.0  0.74860  0.19310  0.91370  1.0000 0.1294869456
H   H8        1.0  0.19310  0.91370  0.74860  1.0000 0.1294869456
H   H9        1.0  0.91370  0.74860  0.19310  1.0000 0.1294869456
H   H10       1.0  0.65660  0.14990  0.99490  1.0000 0.1294869456
H   H11       1.0  0.14990  0.99490  0.65660  1.0000 0.1294869456
H   H12       1.0  0.99490  0.65660  0.14990  1.0000 0.1294869456
H   H13       1.0  0.94910  0.20540  0.04530  1.0000 0.1294869456
H   H14       1.0  0.20540  0.04530  0.94910  1.0000 0.1294869456
H   H15       1.0  0.04530  0.94910  0.20540  1.0000 0.1294869456
H   H16       1.0  0.86670  0.09610  0.07980  1.0000 0.1395580024
H   H17       1.0  0.09610  0.07980  0.86670  1.0000 0.1395580024
H   H18       1.0  0.07980  0.86670  0.09610  1.0000 0.1395580024
H   H19       1.0  0.73420  0.18520  0.28730  1.0000 0.1294869456
H   H20       1.0  0.18520  0.28730  0.73420  1.0000 0.1294869456
H   H21       1.0  0.28730  0.73420  0.18520  1.0000 0.1294869456
H   H22       1.0  0.85370  0.28050  0.32900  1.0000 0.1193717598
H   H23       1.0  0.28050  0.32900  0.85370  1.0000 0.1193717598
H   H24       1.0  0.32900  0.85370  0.28050  1.0000 0.1193717598
H   H25       1.0  0.69580  0.15730  0.84690  1.0000 0.1193717598
H   H26       1.0  0.15730  0.84690  0.69580  1.0000 0.1193717598
H   H27       1.0  0.84690  0.69580  0.15730  1.0000 0.1193717598
H   H28       1.0  0.60430  0.11300  0.92780  1.0000 0.1294869456
H   H29       1.0  0.11300  0.92780  0.60430  1.0000 0.1294869456
H   H30       1.0  0.92780  0.60430  0.11300  1.0000 0.1294869456
H   H31       1.0  0.00400  0.15910  0.03430  1.0000 0.1294869456
H   H32       1.0  0.15910  0.03430  0.00400  1.0000 0.1294869456
H   H33       1.0  0.03430  0.00400  0.15910  1.0000 0.1294869456
H   H34       1.0  0.92450  0.05210  0.07260  1.0000 0.1193717598
H   H35       1.0  0.05210  0.07260  0.92450  1.0000 0.1193717598
H   H36       1.0  0.07260  0.92450  0.05210  1.0000 0.1193717598
H   H37       1.0  0.82020  0.29620  0.39390  1.0000 0.1193717598
H   H38       1.0  0.29620  0.39390  0.82020  1.0000 0.1193717598
H   H39       1.0  0.39390  0.82020  0.29620  1.0000 0.1193717598
H   H40       1.0  0.76160  0.15950  0.35460  1.0000 0.1294869456
H   H41       1.0  0.15950  0.35460  0.76160  1.0000 0.1294869456
H   H42       1.0  0.35460  0.76160  0.15950  1.0000 0.1294869456
H   H43       1.0  0.65510  0.08530  0.79820  1.0000 0.1193717598
H   H44       1.0  0.08530  0.79820  0.65510  1.0000 0.1193717598
H   H45       1.0  0.79820  0.65510  0.08530  1.0000 0.1193717598
H   H46       1.0  0.55240  0.12060  0.86590  1.0000 0.1193717598
H   H47       1.0  0.12060  0.86590  0.55240  1.0000 0.1193717598
H   H48       1.0  0.86590  0.55240  0.12060  1.0000 0.1193717598
H   H49       1.0  0.99530  0.03220  0.09790  1.0000 0.1193717598
H   H50       1.0  0.03220  0.09790  0.99530  1.0000 0.1193717598
H   H51       1.0  0.09790  0.99530  0.03220  1.0000 0.1193717598
H   H52       1.0  0.79030  0.21820  0.49190  1.0000 0.1294869456
H   H53       1.0  0.21820  0.49190  0.79030  1.0000 0.1294869456
H   H54       1.0  0.49190  0.79030  0.21820  1.0000 0.1294869456
H   H55       1.0  0.51980  0.05120  0.73270  1.0000 0.1193717598
H   H56       1.0  0.05120  0.73270  0.51980  1.0000 0.1193717598
H   H57       1.0  0.73270  0.51980  0.05120  1.0000 0.1193717598
H   H58       1.0  0.79320  0.28750  0.53640  1.0000 0.1294869456
H   H59       1.0  0.28750  0.53640  0.79320  1.0000 0.1294869456
H   H60       1.0  0.53640  0.79320  0.28750  1.0000 0.1294869456
H   H61       1.0  0.87490  0.33510  0.45000  1.0000 0.1193717598
H   H62       1.0  0.33510  0.45000  0.87490  1.0000 0.1294869456
H   H63       1.0  0.45000  0.87490  0.33510  1.0000 0.1294869456
H   H64       1.0  0.78410  0.09200  0.39780  1.0000 0.1193717598
H   H65       1.0  0.09200  0.39780  0.78410  1.0000 0.1193717598
H   H66       1.0  0.39780  0.78410  0.09200  1.0000 0.1193717598
H   H67       1.0  0.71320  0.16660  0.48140  1.0000 0.1294869456
H   H68       1.0  0.16660  0.48140  0.71320  1.0000 0.1294869456
H   H69       1.0  0.48140  0.71320  0.16660  1.0000 0.1294869456
H   H70       1.0  0.53740  0.01510  0.68070  1.0000 0.1193717598
H   H71       1.0  0.01510  0.68070  0.53740  1.0000 0.1193717598
H   H72       1.0  0.68070  0.53740  0.01510  1.0000 0.1193717598
H   H73       1.0  0.67460  0.05840  0.73600  1.0000 0.1193717598
H   H74       1.0  0.05840  0.73600  0.67460  1.0000 0.1193717598
H   H75       1.0  0.73600  0.67460  0.05840  1.0000 0.1193717598
H   H76       1.0  0.45930  0.09410  0.73170  1.0000 0.1132267863
H   H77       1.0  0.09410  0.73170  0.45930  1.0000 0.1132267863
H   H78       1.0  0.73170  0.45930  0.09410  1.0000 0.1132267863
H   H79       1.0  0.47760  0.07790  0.86640  1.0000 0.1294869456
H   H80       1.0  0.07790  0.86640  0.47760  1.0000 0.1294869456
H   H81       1.0  0.86640  0.47760  0.07790  1.0000 0.1294869456
H   H82       1.0  0.82560  0.35200  0.59370  1.0000 0.1395580024
H   H83       1.0  0.35200  0.59370  0.82560  1.0000 0.1395580024
H   H84       1.0  0.59370  0.82560  0.35200  1.0000 0.1395580024
H   H85       1.0  0.91340  0.39340  0.50890  1.0000 0.1395580024
H   H86       1.0  0.39340  0.50890  0.91340  1.0000 0.1395580024
H   H87       1.0  0.50890  0.91340  0.39340  1.0000 0.1395580024
H   H88       1.0  0.75020  0.02310  0.41960  1.0000 0.1294869456
H   H89       1.0  0.02310  0.41960  0.75020  1.0000 0.1294869456
H   H90       1.0  0.41960  0.75020  0.02310  1.0000 0.1294869456
H   H91       1.0  0.67930  0.09770  0.50320  1.0000 0.1294869456
H   H92       1.0  0.09770  0.50320  0.67930  1.0000 0.1294869456
H   H93       1.0  0.50320  0.67930  0.09770  1.0000 0.1294869456
H   H94       1.0  0.55760  0.98080  0.61110  1.0000 0.1395580024
H   H95       1.0  0.98080  0.61110  0.55760  1.0000 0.1395580024
H   H96       1.0  0.61110  0.55760  0.98080  1.0000 0.1395580024
H   H97       1.0  0.69500  0.02410  0.66650  1.0000 0.1395580024
H   H98       1.0  0.02410  0.66650  0.69500  1.0000 0.1395580024
H   H99       1.0  0.66650  0.69500  0.02410  1.0000 0.1395580024
H   H100      1.0  0.37990  0.09360  0.73210  1.0000 0.1294869456
H   H101      1.0  0.09360  0.73210  0.37990  1.0000 0.1294869456
H   H102      1.0  0.73210  0.37990  0.09360  1.0000 0.1294869456
H   H103      1.0  0.39800  0.07490  0.86620  1.0000 0.1193717598
H   H104      1.0  0.07490  0.86620  0.39800  1.0000 0.1294869456
H   H105      1.0  0.86620  0.39800  0.07490  1.0000 0.1294869456
H   H106      1.0  0.80540  0.57330  0.60290  1.0000 0.1395580024
H   H107      1.0  0.57330  0.60290  0.80540  1.0000 0.1395580024
H   H108      1.0  0.60290  0.80540  0.57330  1.0000 0.1395580024
H   H109      1.0  0.83160  0.57370  0.74250  1.0000 0.1395580024
H   H110      1.0  0.57370  0.74250  0.83160  1.0000 0.1395580024
H   H111      1.0  0.74250  0.83160  0.57370  1.0000 0.1395580024
H   H112      1.0  0.75340  0.62550  0.61440  1.0000 0.1193717598
H   H113      1.0  0.62550  0.61440  0.75340  1.0000 0.1193717598
H   H114      1.0  0.61440  0.75340  0.62550  1.0000 0.1193717598
H   H115      1.0  0.77970  0.62590  0.75390  1.0000 0.1193717598
H   H116      1.0  0.62590  0.75390  0.77970  1.0000 0.1193717598
H   H117      1.0  0.75390  0.77970  0.62590  1.0000 0.1193717598
H   H118      1.0  0.74410  0.70090  0.64070  1.0000 0.1193717598
H   H119      1.0  0.70090  0.64070  0.74410  1.0000 0.1193717598
H   H120      1.0  0.64070  0.74410  0.70090  1.0000 0.1193717598
H   H121      1.0  0.26060  0.81110  0.79090  1.0000 0.1294869456
H   H122      1.0  0.81110  0.79090  0.26060  1.0000 0.1294869456
H   H123      1.0  0.79090  0.26060  0.81110  1.0000 0.1294869456
H   H124      1.0  0.14120  0.71580  0.74910  1.0000 0.1294869456
H   H125      1.0  0.71580  0.74910  0.14120  1.0000 0.1294869456
H   H126      1.0  0.74910  0.14120  0.71580  1.0000 0.1294869456
H   H127      1.0  0.25140  0.80690  0.08630  1.0000 0.1294869456
H   H128      1.0  0.80690  0.08630  0.25140  1.0000 0.1294869456
H   H129      1.0  0.08630  0.25140  0.80690  1.0000 0.1294869456
H   H130      1.0  0.34340  0.85010  0.00510  1.0000 0.1294869456
H   H131      1.0  0.85010  0.00510  0.34340  1.0000 0.1294869456
H   H132      1.0  0.00510  0.34340  0.85010  1.0000 0.1294869456
H   H133      1.0  0.05090  0.79460  0.95470  1.0000 0.1294869456
H   H134      1.0  0.79460  0.95470  0.05090  1.0000 0.1294869456
H   H135      1.0  0.95470  0.05090  0.79460  1.0000 0.1294869456
H   H136      1.0  0.13330  0.90390  0.92020  1.0000 0.1395580024
H   H137      1.0  0.90390  0.92020  0.13330  1.0000 0.1395580024
H   H138      1.0  0.92020  0.13330  0.90390  1.0000 0.1395580024
H   H139      1.0  0.26580  0.81480  0.71270  1.0000 0.1294869456
H   H140      1.0  0.81480  0.71270  0.26580  1.0000 0.1294869456
H   H141      1.0  0.71270  0.26580  0.81480  1.0000 0.1294869456
H   H142      1.0  0.14630  0.71950  0.67100  1.0000 0.1193717598
H   H143      1.0  0.71950  0.67100  0.14630  1.0000 0.1193717598
H   H144      1.0  0.67100  0.14630  0.71950  1.0000 0.1193717598
H   H145      1.0  0.30420  0.84270  0.15310  1.0000 0.1193717598
H   H146      1.0  0.84270  0.15310  0.30420  1.0000 0.1193717598
H   H147      1.0  0.15310  0.30420  0.84270  1.0000 0.1193717598
H   H148      1.0  0.39570  0.88700  0.07220  1.0000 0.1294869456
H   H149      1.0  0.88700  0.07220  0.39570  1.0000 0.1294869456
H   H150      1.0  0.07220  0.39570  0.88700  1.0000 0.1294869456
H   H151      1.0  0.99600  0.84090  0.96570  1.0000 0.1294869456
H   H152      1.0  0.84090  0.96570  0.99600  1.0000 0.1294869456
H   H153      1.0  0.96570  0.99600  0.84090  1.0000 0.1294869456
H   H154      1.0  0.07550  0.94790  0.92740  1.0000 0.1193717598
H   H155      1.0  0.94790  0.92740  0.07550  1.0000 0.1193717598
H   H156      1.0  0.92740  0.07550  0.94790  1.0000 0.1193717598
H   H157      1.0  0.17980  0.70380  0.60610  1.0000 0.1193717598
H   H158      1.0  0.70380  0.60610  0.17980  1.0000 0.1193717598
H   H159      1.0  0.60610  0.17980  0.70380  1.0000 0.1193717598
H   H160      1.0  0.23840  0.84050  0.64540  1.0000 0.1294869456
H   H161      1.0  0.84050  0.64540  0.23840  1.0000 0.1294869456
H   H162      1.0  0.64540  0.23840  0.84050  1.0000 0.1294869456
H   H163      1.0  0.34490  0.91470  0.20180  1.0000 0.1193717598
H   H164      1.0  0.91470  0.20180  0.34490  1.0000 0.1193717598
H   H165      1.0  0.20180  0.34490  0.91470  1.0000 0.1193717598
H   H166      1.0  0.44760  0.87940  0.13410  1.0000 0.1193717598
H   H167      1.0  0.87940  0.13410  0.44760  1.0000 0.1193717598
H   H168      1.0  0.13410  0.44760  0.87940  1.0000 0.1193717598
H   H169      1.0  0.00470  0.96780  0.90210  1.0000 0.1193717598
H   H170      1.0  0.96780  0.90210  0.00470  1.0000 0.1193717598
H   H171      1.0  0.90210  0.00470  0.96780  1.0000 0.1193717598
H   H172      1.0  0.20970  0.78180  0.50810  1.0000 0.1294869456
H   H173      1.0  0.78180  0.50810  0.20970  1.0000 0.1294869456
H   H174      1.0  0.50810  0.20970  0.78180  1.0000 0.1294869456
H   H175      1.0  0.48020  0.94880  0.26730  1.0000 0.1193717598
H   H176      1.0  0.94880  0.26730  0.48020  1.0000 0.1193717598
H   H177      1.0  0.26730  0.48020  0.94880  1.0000 0.1193717598
H   H178      1.0  0.20680  0.71250  0.46360  1.0000 0.1294869456
H   H179      1.0  0.71250  0.46360  0.20680  1.0000 0.1294869456
H   H180      1.0  0.46360  0.20680  0.71250  1.0000 0.1294869456
H   H181      1.0  0.12510  0.66490  0.55000  1.0000 0.1294869456
H   H182      1.0  0.66490  0.55000  0.12510  1.0000 0.1294869456
H   H183      1.0  0.55000  0.12510  0.66490  1.0000 0.1294869456
H   H184      1.0  0.21590  0.90800  0.60220  1.0000 0.1193717598
H   H185      1.0  0.90800  0.60220  0.21590  1.0000 0.1193717598
H   H186      1.0  0.60220  0.21590  0.90800  1.0000 0.1193717598
H   H187      1.0  0.28680  0.83340  0.51860  1.0000 0.1294869456
H   H188      1.0  0.83340  0.51860  0.28680  1.0000 0.1294869456
H   H189      1.0  0.51860  0.28680  0.83340  1.0000 0.1294869456
H   H190      1.0  0.46260  0.98490  0.31930  1.0000 0.1193717598
H   H191      1.0  0.98490  0.31930  0.46260  1.0000 0.1193717598
H   H192      1.0  0.31930  0.46260  0.98490  1.0000 0.1193717598
H   H193      1.0  0.32540  0.94160  0.26400  1.0000 0.1193717598
H   H194      1.0  0.94160  0.26400  0.32540  1.0000 0.1193717598
H   H195      1.0  0.26400  0.32540  0.94160  1.0000 0.1193717598
H   H196      1.0  0.54070  0.90590  0.26830  1.0000 0.1132267863
H   H197      1.0  0.90590  0.26830  0.54070  1.0000 0.1132267863
H   H198      1.0  0.26830  0.54070  0.90590  1.0000 0.1132267863
H   H199      1.0  0.52240  0.92210  0.13360  1.0000 0.1294869456
H   H200      1.0  0.92210  0.13360  0.52240  1.0000 0.1294869456
H   H201      1.0  0.13360  0.52240  0.92210  1.0000 0.1294869456
H   H202      1.0  0.17440  0.64800  0.40630  1.0000 0.1395580024
H   H203      1.0  0.64800  0.40630  0.17440  1.0000 0.1395580024
H   H204      1.0  0.40630  0.17440  0.64800  1.0000 0.1395580024
H   H205      1.0  0.08660  0.60660  0.49110  1.0000 0.1395580024
H   H206      1.0  0.60660  0.49110  0.08660  1.0000 0.1395580024
H   H207      1.0  0.49110  0.08660  0.60660  1.0000 0.1395580024
H   H208      1.0  0.24980  0.97690  0.58040  1.0000 0.1294869456
H   H209      1.0  0.97690  0.58040  0.24980  1.0000 0.1294869456
H   H210      1.0  0.58040  0.24980  0.97690  1.0000 0.1294869456
H   H211      1.0  0.32070  0.90230  0.49680  1.0000 0.1294869456
H   H212      1.0  0.90230  0.49680  0.32070  1.0000 0.1294869456
H   H213      1.0  0.49680  0.32070  0.90230  1.0000 0.1294869456
H   H214      1.0  0.44240  0.01920  0.38890  1.0000 0.1395580024
H   H215      1.0  0.01920  0.38890  0.44240  1.0000 0.1395580024
H   H216      1.0  0.38890  0.44240  0.01920  1.0000 0.1395580024
H   H217      1.0  0.30500  0.97590  0.33350  1.0000 0.1395580024
H   H218      1.0  0.97590  0.33350  0.30500  1.0000 0.1395580024
H   H219      1.0  0.33350  0.30500  0.97590  1.0000 0.1395580024
H   H220      1.0  0.62010  0.90640  0.26790  1.0000 0.1294869456
H   H221      1.0  0.90640  0.26790  0.62010  1.0000 0.1294869456
H   H222      1.0  0.26790  0.62010  0.90640  1.0000 0.1294869456
H   H223      1.0  0.60200  0.92510  0.13380  1.0000 0.1294869456
H   H224      1.0  0.92510  0.13380  0.60200  1.0000 0.1294869456
H   H225      1.0  0.13380  0.60200  0.92510  1.0000 0.1193717598
H   H226      1.0  0.19460  0.42670  0.39710  1.0000 0.1395580024
H   H227      1.0  0.42670  0.39710  0.19460  1.0000 0.1395580024
H   H228      1.0  0.39710  0.19460  0.42670  1.0000 0.1395580024
H   H229      1.0  0.16840  0.42630  0.25750  1.0000 0.1395580024
H   H230      1.0  0.42630  0.25750  0.16840  1.0000 0.1395580024
H   H231      1.0  0.25750  0.16840  0.42630  1.0000 0.1395580024
H   H232      1.0  0.24660  0.37450  0.38560  1.0000 0.1193717598
H   H233      1.0  0.37450  0.38560  0.24660  1.0000 0.1193717598
H   H234      1.0  0.38560  0.24660  0.37450  1.0000 0.1193717598
H   H235      1.0  0.22030  0.37410  0.24610  1.0000 0.1193717598
H   H236      1.0  0.37410  0.24610  0.22030  1.0000 0.1193717598
H   H237      1.0  0.24610  0.22030  0.37410  1.0000 0.1193717598
H   H238      1.0  0.25590  0.29910  0.35930  1.0000 0.1193717598
H   H239      1.0  0.29910  0.35930  0.25590  1.0000 0.1193717598
H   H240      1.0  0.35930  0.25590  0.29910  1.0000 0.1193717598
C   C1        1.0  0.80075  0.23864  0.17259  1.0000 0.5385672022
C   C2        1.0  0.23864  0.17259  0.80075  1.0000 0.5385672022
C   C3        1.0  0.17259  0.80075  0.23864  1.0000 0.5385672022
C   C4        1.0  0.74131  0.20039  0.00319  1.0000 0.5309923321
C   C5        1.0  0.20039  0.00319  0.74131  1.0000 0.5309923321
C   C6        1.0  0.00319  0.74131  0.20039  1.0000 0.5309923321
C   C7        1.0  0.86574  0.18517  0.06915  1.0000 0.5385672022
C   C8        1.0  0.18517  0.06915  0.86574  1.0000 0.5385672022
C   C9        1.0  0.06915  0.86574  0.18517  1.0000 0.5385672022
C   C10       1.0  0.79959  0.23695  0.22224  1.0000 -0.0288078244
C   C11       1.0  0.23695  0.22224  0.79959  1.0000 -0.0288078244
C   C12       1.0  0.22224  0.79959  0.23695  1.0000 -0.0288078244
C   C13       1.0  0.70777  0.17664  0.96094  1.0000 -0.0211214311
C   C14       1.0  0.17664  0.96094  0.70777  1.0000 -0.0211214311
C   C15       1.0  0.96094  0.70777  0.17664  1.0000 -0.0211214311
C   C16       1.0  0.90182  0.15568  0.06334  1.0000 -0.0085167071
C   C17       1.0  0.15568  0.06334  0.90182  1.0000 -0.0085167071
C   C18       1.0  0.06334  0.90182  0.15568  1.0000 -0.0085167071
C   C19       1.0  0.76228  0.20728  0.23315  1.0000 -0.072465413
C   C20       1.0  0.20728  0.23315  0.76228  1.0000 -0.0783317744
C   C21       1.0  0.23315  0.76228  0.20728  1.0000 -0.0783317744
C   C22       1.0  0.83381  0.26437  0.25816  1.0000 -0.072465413
C   C23       1.0  0.26437  0.25816  0.83381  1.0000 -0.072465413
C   C24       1.0  0.25816  0.83381  0.26437  1.0000 -0.072465413
C   C25       1.0  0.71915  0.17747  0.91654  1.0000 -0.072465413
C   C26       1.0  0.17747  0.91654  0.71915  1.0000 -0.072465413
C   C27       1.0  0.91654  0.71915  0.17747  1.0000 -0.072465413
C   C28       1.0  0.66445  0.15166  0.96528  1.0000 -0.0783317744
C   C29       1.0  0.15166  0.96528  0.66445  1.0000 -0.0783317744
C   C30       1.0  0.96528  0.66445  0.15166  1.0000 -0.0783317744
C   C31       1.0  0.94377  0.17437  0.05013  1.0000 -0.0783317744
C   C32       1.0  0.17437  0.05013  0.94377  1.0000 -0.0783317744
C   C33       1.0  0.05013  0.94377  0.17437  1.0000 -0.0783317744
C   C34       1.0  0.89471  0.10900  0.07132  1.0000 -0.0783317744
C   C35       1.0  0.10900  0.07132  0.89471  1.0000 -0.0783317744
C   C36       1.0  0.07132  0.89471  0.10900  1.0000 -0.0783317744
C   C37       1.0  0.75920  0.20505  0.27998  1.0000 -0.1572338298
C   C38       1.0  0.20505  0.27998  0.75920  1.0000 -0.1572338298
C   C39       1.0  0.27998  0.75920  0.20505  1.0000 -0.1572338298
C   C40       1.0  0.83073  0.26214  0.30499  1.0000 -0.1658206135
C   C41       1.0  0.26214  0.30499  0.83073  1.0000 -0.1658206135
C   C42       1.0  0.30499  0.83073  0.26214  1.0000 -0.1658206135
C   C43       1.0  0.68786  0.15565  0.87641  1.0000 -0.1572338298
C   C44       1.0  0.15565  0.87641  0.68786  1.0000 -0.1572338298
C   C45       1.0  0.87641  0.68786  0.15565  1.0000 -0.1572338298
C   C46       1.0  0.63336  0.12949  0.92503  1.0000 -0.1572338298
C   C47       1.0  0.12949  0.92503  0.63336  1.0000 -0.1572338298
C   C48       1.0  0.92503  0.63336  0.12949  1.0000 -0.1572338298
C   C49       1.0  0.97670  0.14670  0.04439  1.0000 -0.1498560803
C   C50       1.0  0.14670  0.04439  0.97670  1.0000 -0.1498560803
C   C51       1.0  0.04439  0.97670  0.14670  1.0000 -0.1498560803
C   C52       1.0  0.92922  0.08277  0.06658  1.0000 -0.1572338298
C   C53       1.0  0.08277  0.06658  0.92922  1.0000 -0.1572338298
C   C54       1.0  0.06658  0.92922  0.08277  1.0000 -0.1572338298
C   C55       1.0  0.79344  0.23248  0.31590  1.0000 0.0799912877
C   C56       1.0  0.23248  0.31590  0.79344  1.0000 0.0799912877
C   C57       1.0  0.31590  0.79344  0.23248  1.0000 0.0799912877
C   C58       1.0  0.64431  0.13122  0.88043  1.0000 0.0799912877
C   C59       1.0  0.13122  0.88043  0.64431  1.0000 0.0799912877
C   C60       1.0  0.88043  0.64431  0.13122  1.0000 0.0799912877
C   C61       1.0  0.97139  0.10000  0.05308  1.0000 0.0687170845
C   C62       1.0  0.10000  0.05308  0.97139  1.0000 0.0687170845
C   C63       1.0  0.05308  0.97139  0.10000  1.0000 0.0687170845
C   C64       1.0  0.79096  0.22847  0.36646  1.0000 0.0906435877
C   C65       1.0  0.22847  0.36646  0.79096  1.0000 0.0906435877
C   C66       1.0  0.36646  0.79096  0.22847  1.0000 0.0906435877
C   C67       1.0  0.60815  0.10700  0.83725  1.0000 0.0906435877
C   C68       1.0  0.10700  0.83725  0.60815  1.0000 0.0906435877
C   C69       1.0  0.83725  0.60815  0.10700  1.0000 0.0906435877
C   C70       1.0  0.00862  0.07108  0.04906  1.0000 0.0799912877
C   C71       1.0  0.07108  0.04906  0.00862  1.0000 0.0799912877
C   C72       1.0  0.04906  0.00862  0.07108  1.0000 0.0799912877
C   C73       1.0  0.80842  0.26752  0.40172  1.0000 -0.1923296505
C   C74       1.0  0.26752  0.40172  0.80842  1.0000 -0.1923296505
C   C75       1.0  0.40172  0.80842  0.26752  1.0000 -0.1923296505
C   C76       1.0  0.77323  0.18555  0.37818  1.0000 -0.1923296505
C   C77       1.0  0.18555  0.37818  0.77323  1.0000 -0.1923296505
C   C78       1.0  0.37818  0.77323  0.18555  1.0000 -0.1923296505
C   C79       1.0  0.62324  0.08571  0.79806  1.0000 -0.1923296505
C   C80       1.0  0.08571  0.79806  0.62324  1.0000 -0.1923296505
C   C81       1.0  0.79806  0.62324  0.08571  1.0000 -0.1923296505
C   C82       1.0  0.56148  0.10672  0.83866  1.0000 -0.1923296505
C   C83       1.0  0.10672  0.83866  0.56148  1.0000 -0.1923296505
C   C84       1.0  0.83866  0.56148  0.10672  1.0000 -0.1923296505
C   C85       1.0  0.01474  0.03677  0.07581  1.0000 -0.1836168803
C   C86       1.0  0.03677  0.07581  0.01474  1.0000 -0.1836168803
C   C87       1.0  0.07581  0.01474  0.03677  1.0000 -0.1836168803
C   C88       1.0  0.80819  0.26362  0.44869  1.0000 0.0906435877
C   C89       1.0  0.26362  0.44869  0.80819  1.0000 0.0906435877
C   C90       1.0  0.44869  0.80819  0.26362  1.0000 0.0906435877
C   C91       1.0  0.77301  0.18166  0.42516  1.0000 0.0906435877
C   C92       1.0  0.18166  0.42516  0.77301  1.0000 0.0906435877
C   C93       1.0  0.42516  0.77301  0.18166  1.0000 0.0906435877
C   C94       1.0  0.58969  0.06458  0.75797  1.0000 0.0906435877
C   C95       1.0  0.06458  0.75797  0.58969  1.0000 0.0906435877
C   C96       1.0  0.75797  0.58969  0.06458  1.0000 0.0906435877
C   C97       1.0  0.52729  0.08547  0.79915  1.0000 0.0906435877
C   C98       1.0  0.08547  0.79915  0.52729  1.0000 0.0906435877
C   C99       1.0  0.79915  0.52729  0.08547  1.0000 0.0906435877
C   C100      1.0  0.79048  0.22070  0.46042  1.0000 -0.1923296505
C   C101      1.0  0.22070  0.46042  0.79048  1.0000 -0.1923296505
C   C102      1.0  0.46042  0.79048  0.22070  1.0000 -0.1923296505
C   C103      1.0  0.82978  0.30471  0.48714  1.0000 0.0687170845
C   C104      1.0  0.30471  0.48714  0.82978  1.0000 0.0687170845
C   C105      1.0  0.48714  0.82978  0.30471  1.0000 0.0687170845
C   C106      1.0  0.75203  0.13615  0.43741  1.0000 0.0799912877
C   C107      1.0  0.13615  0.43741  0.75203  1.0000 0.0799912877
C   C108      1.0  0.43741  0.75203  0.13615  1.0000 0.0799912877
C   C109      1.0  0.54210  0.06498  0.75926  1.0000 -0.1923296505
C   C110      1.0  0.06498  0.75926  0.54210  1.0000 -0.1923296505
C   C111      1.0  0.75926  0.54210  0.06498  1.0000 -0.1923296505
C   C112      1.0  0.60393  0.04016  0.71523  1.0000 0.0687170845
C   C113      1.0  0.04016  0.71523  0.60393  1.0000 0.0687170845
C   C114      1.0  0.71523  0.60393  0.04016  1.0000 0.0687170845
C   C115      1.0  0.47621  0.08511  0.79956  1.0000 0.0687170845
C   C116      1.0  0.08511  0.79956  0.47621  1.0000 0.0687170845
C   C117      1.0  0.79956  0.47621  0.08511  1.0000 0.0687170845
C   C118      1.0  0.81633  0.31032  0.53023  1.0000 -0.1498560803
C   C119      1.0  0.31032  0.53023  0.81633  1.0000 -0.1498560803
C   C120      1.0  0.53023  0.81633  0.31032  1.0000 -0.1498560803
C   C121      1.0  0.86557  0.33774  0.47931  1.0000 -0.1498560803
C   C122      1.0  0.33774  0.47931  0.86557  1.0000 -0.1498560803
C   C123      1.0  0.47931  0.86557  0.33774  1.0000 -0.1498560803
C   C124      1.0  0.76308  0.09315  0.41890  1.0000 -0.1572338298
C   C125      1.0  0.09315  0.41890  0.76308  1.0000 -0.1572338298
C   C126      1.0  0.41890  0.76308  0.09315  1.0000 -0.1572338298
C   C127      1.0  0.72065  0.13786  0.46900  1.0000 -0.1498560803
C   C128      1.0  0.13786  0.46900  0.72065  1.0000 -0.1498560803
C   C129      1.0  0.46900  0.72065  0.13786  1.0000 -0.1498560803
C   C130      1.0  0.56892  0.01691  0.67782  1.0000 -0.1498560803
C   C131      1.0  0.01691  0.67782  0.56892  1.0000 -0.1498560803
C   C132      1.0  0.67782  0.56892  0.01691  1.0000 -0.1498560803
C   C133      1.0  0.65114  0.04285  0.71099  1.0000 -0.1498560803
C   C134      1.0  0.04285  0.71099  0.65114  1.0000 -0.1498560803
C   C135      1.0  0.71099  0.65114  0.04285  1.0000 -0.1498560803
C   C136      1.0  0.44696  0.09024  0.75879  1.0000 -0.1498560803
C   C137      1.0  0.09024  0.75879  0.44696  1.0000 -0.1498560803
C   C138      1.0  0.75879  0.44696  0.09024  1.0000 -0.1498560803
C   C139      1.0  0.45788  0.08025  0.83892  1.0000 -0.1425866584
C   C140      1.0  0.08025  0.83892  0.45788  1.0000 -0.1425866584
C   C141      1.0  0.83892  0.45788  0.08025  1.0000 -0.1425866584
C   C142      1.0  0.83579  0.34860  0.56477  1.0000 -0.0783317744
C   C143      1.0  0.34860  0.56477  0.83579  1.0000 -0.0783317744
C   C144      1.0  0.56477  0.83579  0.34860  1.0000 -0.0783317744
C   C145      1.0  0.88700  0.37350  0.51350  1.0000 -0.0901256443
C   C146      1.0  0.37350  0.51350  0.88700  1.0000 -0.0901256443
C   C147      1.0  0.51350  0.88700  0.37350  1.0000 -0.0901256443
C   C148      1.0  0.74276  0.05187  0.43199  1.0000 -0.072465413
C   C149      1.0  0.05187  0.43199  0.74276  1.0000 -0.072465413
C   C150      1.0  0.43199  0.74276  0.05187  1.0000 -0.072465413
C   C151      1.0  0.70033  0.09656  0.48208  1.0000 -0.0618945217
C   C152      1.0  0.09656  0.48208  0.70033  1.0000 -0.0618945217
C   C153      1.0  0.48208  0.70033  0.09656  1.0000 -0.0618945217
C   C154      1.0  0.58106  0.99636  0.63616  1.0000 -0.0901256443
C   C155      1.0  0.99636  0.63616  0.58106  1.0000 -0.0901256443
C   C156      1.0  0.63616  0.58106  0.99636  1.0000 -0.0901256443
C   C157      1.0  0.66332  0.02227  0.66932  1.0000 -0.0901256443
C   C158      1.0  0.02227  0.66932  0.66332  1.0000 -0.0901256443
C   C159      1.0  0.66932  0.66332  0.02227  1.0000 -0.0901256443
C   C160      1.0  0.39929  0.08952  0.75903  1.0000 -0.072465413
C   C161      1.0  0.08952  0.75903  0.39929  1.0000 -0.072465413
C   C162      1.0  0.75903  0.39929  0.08952  1.0000 -0.072465413
C   C163      1.0  0.40996  0.07874  0.83894  1.0000 -0.072465413
C   C164      1.0  0.07874  0.83894  0.40996  1.0000 -0.072465413
C   C165      1.0  0.83894  0.40996  0.07874  1.0000 -0.072465413
C   C166      1.0  0.87074  0.38192  0.55593  1.0000 0.0005015797
C   C167      1.0  0.38192  0.55593  0.87074  1.0000 0.0005015797
C   C168      1.0  0.55593  0.87074  0.38192  1.0000 0.0005015797
C   C169      1.0  0.71139  0.05357  0.46358  1.0000 -0.0288078244
C   C170      1.0  0.05357  0.46358  0.71139  1.0000 -0.0288078244
C   C171      1.0  0.46358  0.71139  0.05357  1.0000 -0.0288078244
C   C172      1.0  0.62830  0.99901  0.63190  1.0000 0.0305647792
C   C173      1.0  0.99901  0.63190  0.62830  1.0000 0.0305647792
C   C174      1.0  0.63190  0.62830  0.99901  1.0000 0.0305647792
C   C175      1.0  0.38033  0.08282  0.79900  1.0000 -0.0085167071
C   C176      1.0  0.08282  0.79900  0.38033  1.0000 -0.0085167071
C   C177      1.0  0.79900  0.38033  0.08282  1.0000 -0.0085167071
C   C178      1.0  0.89418  0.42342  0.59260  1.0000 0.5309923321
C   C179      1.0  0.42342  0.59260  0.89418  1.0000 0.5385672022
C   C180      1.0  0.59260  0.89418  0.42342  1.0000 0.5385672022
C   C181      1.0  0.68914  0.01068  0.47592  1.0000 0.5309923321
C   C182      1.0  0.01068  0.47592  0.68914  1.0000 0.5309923321
C   C183      1.0  0.47592  0.68914  0.01068  1.0000 0.5309923321
C   C184      1.0  0.64410  0.97800  0.58500  1.0000 0.4989113212
C   C185      1.0  0.97800  0.58500  0.64410  1.0000 0.4989113212
C   C186      1.0  0.58500  0.64410  0.97800  1.0000 0.4989113212
C   C187      1.0  0.32958  0.08079  0.80021  1.0000 0.5385672022
C   C188      1.0  0.08079  0.80021  0.32958  1.0000 0.5385672022
C   C189      1.0  0.80021  0.32958  0.08079  1.0000 0.5385672022
C   C190      1.0  0.86049  0.53863  0.66438  1.0000 0.5385672022
C   C191      1.0  0.53863  0.66438  0.86049  1.0000 0.5385672022
C   C192      1.0  0.66438  0.86049  0.53863  1.0000 0.5385672022
C   C193      1.0  0.82360  0.56838  0.67161  1.0000 -0.0037275422
C   C194      1.0  0.56838  0.67161  0.82360  1.0000 -0.0037275422
C   C195      1.0  0.67161  0.82360  0.56838  1.0000 -0.0037275422
C   C196      1.0  0.80021  0.58389  0.63323  1.0000 -0.0783317744
C   C197      1.0  0.58389  0.63323  0.80021  1.0000 -0.0783317744
C   C198      1.0  0.63323  0.80021  0.58389  1.0000 -0.0783317744
C   C199      1.0  0.81588  0.58411  0.71682  1.0000 -0.072465413
C   C200      1.0  0.58411  0.71682  0.81588  1.0000 -0.0783317744
C   C201      1.0  0.71682  0.81588  0.58411  1.0000 -0.0783317744
C   C202      1.0  0.76909  0.61514  0.64006  1.0000 -0.1498560803
C   C203      1.0  0.61514  0.64006  0.76909  1.0000 -0.1498560803
C   C204      1.0  0.64006  0.76909  0.61514  1.0000 -0.1498560803
C   C205      1.0  0.78477  0.61534  0.72363  1.0000 -0.1498560803
C   C206      1.0  0.61534  0.72363  0.78477  1.0000 -0.1498560803
C   C207      1.0  0.72363  0.78477  0.61534  1.0000 -0.1498560803
C   C208      1.0  0.76138  0.63087  0.68526  1.0000 0.0799912877
C   C209      1.0  0.63087  0.68526  0.76138  1.0000 0.0799912877
C   C210      1.0  0.68526  0.76138  0.63087  1.0000 0.0799912877
C   C211      1.0  0.72800  0.66580  0.69280  1.0000 0.0799912877
C   C212      1.0  0.66580  0.69280  0.72800  1.0000 0.0799912877
C   C213      1.0  0.69280  0.72800  0.66580  1.0000 0.0799912877
C   C214      1.0  0.72446  0.69886  0.66286  1.0000 -0.1836168803
C   C215      1.0  0.69886  0.66286  0.72446  1.0000 -0.1836168803
C   C216      1.0  0.66286  0.72446  0.69886  1.0000 -0.1836168803
C   C217      1.0  0.19925  0.76136  0.82741  1.0000 0.5385672022
C   C218      1.0  0.76136  0.82741  0.19925  1.0000 0.5385672022
C   C219      1.0  0.82741  0.19925  0.76136  1.0000 0.5385672022
C   C220      1.0  0.25869  0.79961  0.99681  1.0000 0.5385672022
C   C221      1.0  0.79961  0.99681  0.25869  1.0000 0.5385672022
C   C222      1.0  0.99681  0.25869  0.79961  1.0000 0.5385672022
C   C223      1.0  0.13426  0.81483  0.93085  1.0000 0.5385672022
C   C224      1.0  0.81483  0.93085  0.13426  1.0000 0.5385672022
C   C225      1.0  0.93085  0.13426  0.81483  1.0000 0.5385672022
C   C226      1.0  0.20041  0.76305  0.77776  1.0000 -0.0288078244
C   C227      1.0  0.76305  0.77776  0.20041  1.0000 -0.0288078244
C   C228      1.0  0.77776  0.20041  0.76305  1.0000 -0.0288078244
C   C229      1.0  0.29223  0.82336  0.03906  1.0000 -0.0211214311
C   C230      1.0  0.82336  0.03906  0.29223  1.0000 -0.0211214311
C   C231      1.0  0.03906  0.29223  0.82336  1.0000 -0.0211214311
C   C232      1.0  0.09818  0.84432  0.93666  1.0000 -0.0085167071
C   C233      1.0  0.84432  0.93666  0.09818  1.0000 -0.0085167071
C   C234      1.0  0.93666  0.09818  0.84432  1.0000 -0.0085167071
C   C235      1.0  0.23772  0.79272  0.76685  1.0000 -0.0783317744
C   C236      1.0  0.79272  0.76685  0.23772  1.0000 -0.0783317744
C   C237      1.0  0.76685  0.23772  0.79272  1.0000 -0.0783317744
C   C238      1.0  0.16619  0.73563  0.74184  1.0000 -0.072465413
C   C239      1.0  0.73563  0.74184  0.16619  1.0000 -0.072465413
C   C240      1.0  0.74184  0.16619  0.73563  1.0000 -0.072465413
C   C241      1.0  0.28085  0.82253  0.08346  1.0000 -0.072465413
C   C242      1.0  0.82253  0.08346  0.28085  1.0000 -0.072465413
C   C243      1.0  0.08346  0.28085  0.82253  1.0000 -0.072465413
C   C244      1.0  0.33555  0.84834  0.03472  1.0000 -0.0783317744
C   C245      1.0  0.84834  0.03472  0.33555  1.0000 -0.0783317744
C   C246      1.0  0.03472  0.33555  0.84834  1.0000 -0.0783317744
C   C247      1.0  0.05623  0.82563  0.94987  1.0000 -0.0783317744
C   C248      1.0  0.82563  0.94987  0.05623  1.0000 -0.0783317744
C   C249      1.0  0.94987  0.05623  0.82563  1.0000 -0.0783317744
C   C250      1.0  0.10529  0.89100  0.92868  1.0000 -0.0783317744
C   C251      1.0  0.89100  0.92868  0.10529  1.0000 -0.0783317744
C   C252      1.0  0.92868  0.10529  0.89100  1.0000 -0.0783317744
C   C253      1.0  0.24080  0.79495  0.72002  1.0000 -0.1572338298
C   C254      1.0  0.79495  0.72002  0.24080  1.0000 -0.1572338298
C   C255      1.0  0.72002  0.24080  0.79495  1.0000 -0.1572338298
C   C256      1.0  0.16927  0.73786  0.69501  1.0000 -0.1658206135
C   C257      1.0  0.73786  0.69501  0.16927  1.0000 -0.1658206135
C   C258      1.0  0.69501  0.16927  0.73786  1.0000 -0.1658206135
C   C259      1.0  0.31214  0.84435  0.12359  1.0000 -0.1572338298
C   C260      1.0  0.84435  0.12359  0.31214  1.0000 -0.1572338298
C   C261      1.0  0.12359  0.31214  0.84435  1.0000 -0.1572338298
C   C262      1.0  0.36664  0.87051  0.07497  1.0000 -0.1572338298
C   C263      1.0  0.87051  0.07497  0.36664  1.0000 -0.1572338298
C   C264      1.0  0.07497  0.36664  0.87051  1.0000 -0.1572338298
C   C265      1.0  0.02330  0.85330  0.95561  1.0000 -0.1498560803
C   C266      1.0  0.85330  0.95561  0.02330  1.0000 -0.1498560803
C   C267      1.0  0.95561  0.02330  0.85330  1.0000 -0.1498560803
C   C268      1.0  0.07078  0.91723  0.93342  1.0000 -0.1572338298
C   C269      1.0  0.91723  0.93342  0.07078  1.0000 -0.1572338298
C   C270      1.0  0.93342  0.07078  0.91723  1.0000 -0.1572338298
C   C271      1.0  0.20656  0.76752  0.68410  1.0000 0.0799912877
C   C272      1.0  0.76752  0.68410  0.20656  1.0000 0.0799912877
C   C273      1.0  0.68410  0.20656  0.76752  1.0000 0.0799912877
C   C274      1.0  0.35569  0.86878  0.11957  1.0000 0.0799912877
C   C275      1.0  0.86878  0.11957  0.35569  1.0000 0.0799912877
C   C276      1.0  0.11957  0.35569  0.86878  1.0000 0.0799912877
C   C277      1.0  0.02861  0.90000  0.94692  1.0000 0.0687170845
C   C278      1.0  0.90000  0.94692  0.02861  1.0000 0.0687170845
C   C279      1.0  0.94692  0.02861  0.90000  1.0000 0.0687170845
C   C280      1.0  0.20904  0.77153  0.63354  1.0000 0.0906435877
C   C281      1.0  0.77153  0.63354  0.20904  1.0000 0.0906435877
C   C282      1.0  0.63354  0.20904  0.77153  1.0000 0.0906435877
C   C283      1.0  0.39185  0.89300  0.16275  1.0000 0.0906435877
C   C284      1.0  0.89300  0.16275  0.39185  1.0000 0.0906435877
C   C285      1.0  0.16275  0.39185  0.89300  1.0000 0.0906435877
C   C286      1.0  0.99138  0.92892  0.95094  1.0000 0.0799912877
C   C287      1.0  0.92892  0.95094  0.99138  1.0000 0.0799912877
C   C288      1.0  0.95094  0.99138  0.92892  1.0000 0.0799912877
C   C289      1.0  0.19158  0.73248  0.59828  1.0000 -0.1923296505
C   C290      1.0  0.73248  0.59828  0.19158  1.0000 -0.1923296505
C   C291      1.0  0.59828  0.19158  0.73248  1.0000 -0.1923296505
C   C292      1.0  0.22677  0.81445  0.62182  1.0000 -0.1923296505
C   C293      1.0  0.81445  0.62182  0.22677  1.0000 -0.1923296505
C   C294      1.0  0.62182  0.22677  0.81445  1.0000 -0.1923296505
C   C295      1.0  0.37676  0.91429  0.20194  1.0000 -0.1923296505
C   C296      1.0  0.91429  0.20194  0.37676  1.0000 -0.1923296505
C   C297      1.0  0.20194  0.37676  0.91429  1.0000 -0.1923296505
C   C298      1.0  0.43852  0.89328  0.16134  1.0000 -0.1923296505
C   C299      1.0  0.89328  0.16134  0.43852  1.0000 -0.1923296505
C   C300      1.0  0.16134  0.43852  0.89328  1.0000 -0.1923296505
C   C301      1.0  0.98526  0.96323  0.92419  1.0000 -0.1836168803
C   C302      1.0  0.96323  0.92419  0.98526  1.0000 -0.1836168803
C   C303      1.0  0.92419  0.98526  0.96323  1.0000 -0.1836168803
C   C304      1.0  0.19181  0.73638  0.55131  1.0000 0.0906435877
C   C305      1.0  0.73638  0.55131  0.19181  1.0000 0.0906435877
C   C306      1.0  0.55131  0.19181  0.73638  1.0000 0.0906435877
C   C307      1.0  0.22699  0.81834  0.57484  1.0000 0.0906435877
C   C308      1.0  0.81834  0.57484  0.22699  1.0000 0.0906435877
C   C309      1.0  0.57484  0.22699  0.81834  1.0000 0.0906435877
C   C310      1.0  0.41031  0.93542  0.24203  1.0000 0.0906435877
C   C311      1.0  0.93542  0.24203  0.41031  1.0000 0.0906435877
C   C312      1.0  0.24203  0.41031  0.93542  1.0000 0.0906435877
C   C313      1.0  0.47271  0.91453  0.20085  1.0000 0.0906435877
C   C314      1.0  0.91453  0.20085  0.47271  1.0000 0.0906435877
C   C315      1.0  0.20085  0.47271  0.91453  1.0000 0.0906435877
C   C316      1.0  0.20952  0.77930  0.53958  1.0000 -0.1923296505
C   C317      1.0  0.77930  0.53958  0.20952  1.0000 -0.1923296505
C   C318      1.0  0.53958  0.20952  0.77930  1.0000 -0.1923296505
C   C319      1.0  0.17022  0.69529  0.51286  1.0000 0.0687170845
C   C320      1.0  0.69529  0.51286  0.17022  1.0000 0.0687170845
C   C321      1.0  0.51286  0.17022  0.69529  1.0000 0.0687170845
C   C322      1.0  0.24797  0.86385  0.56259  1.0000 0.0799912877
C   C323      1.0  0.86385  0.56259  0.24797  1.0000 0.0799912877
C   C324      1.0  0.56259  0.24797  0.86385  1.0000 0.0799912877
C   C325      1.0  0.45790  0.93502  0.24074  1.0000 -0.1923296505
C   C326      1.0  0.93502  0.24074  0.45790  1.0000 -0.1923296505
C   C327      1.0  0.24074  0.45790  0.93502  1.0000 -0.1923296505
C   C328      1.0  0.39607  0.95984  0.28477  1.0000 0.0687170845
C   C329      1.0  0.95984  0.28477  0.39607  1.0000 0.0687170845
C   C330      1.0  0.28477  0.39607  0.95984  1.0000 0.0687170845
C   C331      1.0  0.52379  0.91489  0.20044  1.0000 0.0687170845
C   C332      1.0  0.91489  0.20044  0.52379  1.0000 0.0687170845
C   C333      1.0  0.20044  0.52379  0.91489  1.0000 0.0687170845
C   C334      1.0  0.18367  0.68968  0.46977  1.0000 -0.1498560803
C   C335      1.0  0.68968  0.46977  0.18367  1.0000 -0.1498560803
C   C336      1.0  0.46977  0.18367  0.68968  1.0000 -0.1498560803
C   C337      1.0  0.13443  0.66226  0.52069  1.0000 -0.1498560803
C   C338      1.0  0.66226  0.52069  0.13443  1.0000 -0.1498560803
C   C339      1.0  0.52069  0.13443  0.66226  1.0000 -0.1498560803
C   C340      1.0  0.23692  0.90685  0.58110  1.0000 -0.1572338298
C   C341      1.0  0.90685  0.58110  0.23692  1.0000 -0.1572338298
C   C342      1.0  0.58110  0.23692  0.90685  1.0000 -0.1572338298
C   C343      1.0  0.27935  0.86214  0.53100  1.0000 -0.1498560803
C   C344      1.0  0.86214  0.53100  0.27935  1.0000 -0.1498560803
C   C345      1.0  0.53100  0.27935  0.86214  1.0000 -0.1498560803
C   C346      1.0  0.43108  0.98309  0.32218  1.0000 -0.1498560803
C   C347      1.0  0.98309  0.32218  0.43108  1.0000 -0.1498560803
C   C348      1.0  0.32218  0.43108  0.98309  1.0000 -0.1498560803
C   C349      1.0  0.34886  0.95715  0.28901  1.0000 -0.1498560803
C   C350      1.0  0.95715  0.28901  0.34886  1.0000 -0.1498560803
C   C351      1.0  0.28901  0.34886  0.95715  1.0000 -0.1498560803
C   C352      1.0  0.55304  0.90976  0.24121  1.0000 -0.1498560803
C   C353      1.0  0.90976  0.24121  0.55304  1.0000 -0.1498560803
C   C354      1.0  0.24121  0.55304  0.90976  1.0000 -0.1498560803
C   C355      1.0  0.54212  0.91975  0.16108  1.0000 -0.1425866584
C   C356      1.0  0.91975  0.16108  0.54212  1.0000 -0.1425866584
C   C357      1.0  0.16108  0.54212  0.91975  1.0000 -0.1425866584
C   C358      1.0  0.16421  0.65140  0.43523  1.0000 -0.0783317744
C   C359      1.0  0.65140  0.43523  0.16421  1.0000 -0.0783317744
C   C360      1.0  0.43523  0.16421  0.65140  1.0000 -0.0783317744
C   C361      1.0  0.11300  0.62650  0.48650  1.0000 -0.0901256443
C   C362      1.0  0.62650  0.48650  0.11300  1.0000 -0.0901256443
C   C363      1.0  0.48650  0.11300  0.62650  1.0000 -0.0901256443
C   C364      1.0  0.25724  0.94813  0.56801  1.0000 -0.072465413
C   C365      1.0  0.94813  0.56801  0.25724  1.0000 -0.072465413
C   C366      1.0  0.56801  0.25724  0.94813  1.0000 -0.072465413
C   C367      1.0  0.29967  0.90344  0.51792  1.0000 -0.0618945217
C   C368      1.0  0.90344  0.51792  0.29967  1.0000 -0.0618945217
C   C369      1.0  0.51792  0.29967  0.90344  1.0000 -0.0618945217
C   C370      1.0  0.41894  0.00364  0.36384  1.0000 -0.0901256443
C   C371      1.0  0.00364  0.36384  0.41894  1.0000 -0.0901256443
C   C372      1.0  0.36384  0.41894  0.00364  1.0000 -0.0901256443
C   C373      1.0  0.33668  0.97773  0.33068  1.0000 -0.0901256443
C   C374      1.0  0.97773  0.33068  0.33668  1.0000 -0.0901256443
C   C375      1.0  0.33068  0.33668  0.97773  1.0000 -0.0901256443
C   C376      1.0  0.60071  0.91048  0.24097  1.0000 -0.072465413
C   C377      1.0  0.91048  0.24097  0.60071  1.0000 -0.072465413
C   C378      1.0  0.24097  0.60071  0.91048  1.0000 -0.072465413
C   C379      1.0  0.59004  0.92126  0.16106  1.0000 -0.072465413
C   C380      1.0  0.92126  0.16106  0.59004  1.0000 -0.072465413
C   C381      1.0  0.16106  0.59004  0.92126  1.0000 -0.072465413
C   C382      1.0  0.12926  0.61808  0.44407  1.0000 0.0005015797
C   C383      1.0  0.61808  0.44407  0.12926  1.0000 0.0005015797
C   C384      1.0  0.44407  0.12926  0.61808  1.0000 0.0005015797
C   C385      1.0  0.28861  0.94643  0.53642  1.0000 -0.0288078244
C   C386      1.0  0.94643  0.53642  0.28861  1.0000 -0.0288078244
C   C387      1.0  0.53642  0.28861  0.94643  1.0000 -0.0288078244
C   C388      1.0  0.37170  0.00099  0.36810  1.0000 0.0305647792
C   C389      1.0  0.00099  0.36810  0.37170  1.0000 0.0305647792
C   C390      1.0  0.36810  0.37170  0.00099  1.0000 0.0305647792
C   C391      1.0  0.61967  0.91718  0.20100  1.0000 -0.0085167071
C   C392      1.0  0.91718  0.20100  0.61967  1.0000 -0.0085167071
C   C393      1.0  0.20100  0.61967  0.91718  1.0000 -0.0085167071
C   C394      1.0  0.10582  0.57658  0.40740  1.0000 0.5385672022
C   C395      1.0  0.57658  0.40740  0.10582  1.0000 0.5385672022
C   C396      1.0  0.40740  0.10582  0.57658  1.0000 0.5385672022
C   C397      1.0  0.31086  0.98932  0.52408  1.0000 0.5309923321
C   C398      1.0  0.98932  0.52408  0.31086  1.0000 0.5309923321
C   C399      1.0  0.52408  0.31086  0.98932  1.0000 0.5309923321
C   C400      1.0  0.35590  0.02200  0.41500  1.0000 0.4989113212
C   C401      1.0  0.02200  0.41500  0.35590  1.0000 0.4989113212
C   C402      1.0  0.41500  0.35590  0.02200  1.0000 0.4989113212
C   C403      1.0  0.67042  0.91921  0.19979  1.0000 0.5385672022
C   C404      1.0  0.91921  0.19979  0.67042  1.0000 0.5385672022
C   C405      1.0  0.19979  0.67042  0.91921  1.0000 0.5385672022
C   C406      1.0  0.13951  0.46137  0.33562  1.0000 0.5385672022
C   C407      1.0  0.46137  0.33562  0.13951  1.0000 0.5385672022
C   C408      1.0  0.33562  0.13951  0.46137  1.0000 0.5385672022
C   C409      1.0  0.17640  0.43162  0.32839  1.0000 -0.0037275422
C   C410      1.0  0.43162  0.32839  0.17640  1.0000 -0.0037275422
C   C411      1.0  0.32839  0.17640  0.43162  1.0000 -0.0037275422
C   C412      1.0  0.19979  0.41611  0.36677  1.0000 -0.0783317744
C   C413      1.0  0.41611  0.36677  0.19979  1.0000 -0.0783317744
C   C414      1.0  0.36677  0.19979  0.41611  1.0000 -0.0783317744
C   C415      1.0  0.18412  0.41589  0.28318  1.0000 -0.0783317744
C   C416      1.0  0.41589  0.28318  0.18412  1.0000 -0.0783317744
C   C417      1.0  0.28318  0.18412  0.41589  1.0000 -0.0783317744
C   C418      1.0  0.23091  0.38486  0.35994  1.0000 -0.1498560803
C   C419      1.0  0.38486  0.35994  0.23091  1.0000 -0.1498560803
C   C420      1.0  0.35994  0.23091  0.38486  1.0000 -0.1498560803
C   C421      1.0  0.21523  0.38466  0.27637  1.0000 -0.1498560803
C   C422      1.0  0.38466  0.27637  0.21523  1.0000 -0.1498560803
C   C423      1.0  0.27637  0.21523  0.38466  1.0000 -0.1498560803
C   C424      1.0  0.23862  0.36913  0.31474  1.0000 0.0799912877
C   C425      1.0  0.36913  0.31474  0.23862  1.0000 0.0799912877
C   C426      1.0  0.31474  0.23862  0.36913  1.0000 0.0799912877
C   C427      1.0  0.27200  0.33420  0.30720  1.0000 0.0799912877
C   C428      1.0  0.33420  0.30720  0.27200  1.0000 0.0799912877
C   C429      1.0  0.30720  0.27200  0.33420  1.0000 0.0799912877
C   C430      1.0  0.27554  0.30114  0.33714  1.0000 -0.1836168803
C   C431      1.0  0.30114  0.33714  0.27554  1.0000 -0.1836168803
C   C432      1.0  0.33714  0.27554  0.30114  1.0000 -0.1836168803
O   O1        1.0  0.83660  0.26130  0.15971  1.0000 -0.5377665175
O   O2        1.0  0.26130  0.15971  0.83660  1.0000 -0.5377665175
O   O3        1.0  0.15971  0.83660  0.26130  1.0000 -0.5377665175
O   O4        1.0  0.76657  0.21861  0.14013  1.0000 -0.5107505238
O   O5        1.0  0.21861  0.14013  0.76657  1.0000 -0.5107505238
O   O6        1.0  0.14013  0.76657  0.21861  1.0000 -0.5107505238
O   O7        1.0  0.78041  0.22366  0.00160  1.0000 -0.5107505238
O   O8        1.0  0.22366  0.00160  0.78041  1.0000 -0.5107505238
O   O9        1.0  0.00160  0.78041  0.22366  1.0000 -0.5107505238
O   O10       1.0  0.73099  0.19756  0.04367  1.0000 -0.5107505238
O   O11       1.0  0.19756  0.04367  0.73099  1.0000 -0.5107505238
O   O12       1.0  0.04367  0.73099  0.19756  1.0000 -0.5107505238
O   O13       1.0  0.87433  0.22932  0.06768  1.0000 -0.5191893031
O   O14       1.0  0.22932  0.06768  0.87433  1.0000 -0.5191893031
O   O15       1.0  0.06768  0.87433  0.22932  1.0000 -0.5191893031
O   O16       1.0  0.82506  0.16881  0.07777  1.0000 -0.5377665175
O   O17       1.0  0.16881  0.07777  0.82506  1.0000 -0.5377665175
O   O18       1.0  0.07777  0.82506  0.16881  1.0000 -0.5377665175
O   O19       1.0  0.76296  0.30258  0.08971  1.0000 -0.5668339778
O   O20       1.0  0.30258  0.08971  0.76296  1.0000 -0.5668339778
O   O21       1.0  0.08971  0.76296  0.30258  1.0000 -0.5668339778
O   O22       1.0  0.83526  0.31243  0.07329  1.0000 -0.4919529359
O   O23       1.0  0.31243  0.07329  0.83526  1.0000 -0.4919529359
O   O24       1.0  0.07329  0.83526  0.31243  1.0000 -0.4919529359
O   O25       1.0  0.92121  0.45605  0.58121  1.0000 -0.5107505238
O   O26       1.0  0.45605  0.58121  0.92121  1.0000 -0.5107505238
O   O27       1.0  0.58121  0.92121  0.45605  1.0000 -0.5107505238
O   O28       1.0  0.88478  0.42758  0.63375  1.0000 -0.5313679171
O   O29       1.0  0.42758  0.63375  0.88478  1.0000 -0.5313679171
O   O30       1.0  0.63375  0.88478  0.42758  1.0000 -0.5313679171
O   O31       1.0  0.64917  0.00869  0.48953  1.0000 -0.497831131
O   O32       1.0  0.00869  0.48953  0.64917  1.0000 -0.497831131
O   O33       1.0  0.48953  0.64917  0.00869  1.0000 -0.497831131
O   O34       1.0  0.70701  0.97576  0.47791  1.0000 -0.463400041
O   O35       1.0  0.97576  0.47791  0.70701  1.0000 -0.4655932039
O   O36       1.0  0.47791  0.70701  0.97576  1.0000 -0.463400041
O   O37       1.0  0.68169  0.97382  0.58189  1.0000 -0.4207365761
O   O38       1.0  0.97382  0.58189  0.68169  1.0000 -0.4207365761
O   O39       1.0  0.58189  0.68169  0.97382  1.0000 -0.4207365761
O   O40       1.0  0.60750  0.95930  0.55450  1.0000 -0.4919529359
O   O41       1.0  0.95930  0.55450  0.60750  1.0000 -0.4919529359
O   O42       1.0  0.55450  0.60750  0.95930  1.0000 -0.4919529359
O   O43       1.0  0.88606  0.52773  0.69798  1.0000 -0.5107505238
O   O44       1.0  0.52773  0.69798  0.88606  1.0000 -0.5107505238
O   O45       1.0  0.69798  0.88606  0.52773  1.0000 -0.5107505238
O   O46       1.0  0.86644  0.52664  0.62293  1.0000 -0.5107505238
O   O47       1.0  0.52664  0.62293  0.86644  1.0000 -0.5107505238
O   O48       1.0  0.62293  0.86644  0.52664  1.0000 -0.5107505238
O   O49       1.0  0.16340  0.73870  0.84029  1.0000 -0.5313679171
O   O50       1.0  0.73870  0.84029  0.16340  1.0000 -0.5377665175
O   O51       1.0  0.84029  0.16340  0.73870  1.0000 -0.5377665175
O   O52       1.0  0.23343  0.78139  0.85987  1.0000 -0.5107505238
O   O53       1.0  0.78139  0.85987  0.23343  1.0000 -0.5107505238
O   O54       1.0  0.85987  0.23343  0.78139  1.0000 -0.5107505238
O   O55       1.0  0.21959  0.77634  0.99840  1.0000 -0.5107505238
O   O56       1.0  0.77634  0.99840  0.21959  1.0000 -0.5107505238
O   O57       1.0  0.99840  0.21959  0.77634  1.0000 -0.5107505238
O   O58       1.0  0.26901  0.80244  0.95633  1.0000 -0.5107505238
O   O59       1.0  0.80244  0.95633  0.26901  1.0000 -0.5107505238
O   O60       1.0  0.95633  0.26901  0.80244  1.0000 -0.5107505238
O   O61       1.0  0.12567  0.77068  0.93232  1.0000 -0.5191893031
O   O62       1.0  0.77068  0.93232  0.12567  1.0000 -0.5191893031
O   O63       1.0  0.93232  0.12567  0.77068  1.0000 -0.5191893031
O   O64       1.0  0.17494  0.83119  0.92223  1.0000 -0.5377665175
O   O65       1.0  0.83119  0.92223  0.17494  1.0000 -0.5377665175
O   O66       1.0  0.92223  0.17494  0.83119  1.0000 -0.5377665175
O   O67       1.0  0.23704  0.69742  0.91029  1.0000 -0.5668339778
O   O68       1.0  0.69742  0.91029  0.23704  1.0000 -0.5668339778
O   O69       1.0  0.91029  0.23704  0.69742  1.0000 -0.5668339778
O   O70       1.0  0.16474  0.68757  0.92671  1.0000 -0.4919529359
O   O71       1.0  0.68757  0.92671  0.16474  1.0000 -0.4919529359
O   O72       1.0  0.92671  0.16474  0.68757  1.0000 -0.4919529359
O   O73       1.0  0.07879  0.54395  0.41879  1.0000 -0.5107505238
O   O74       1.0  0.54395  0.41879  0.07879  1.0000 -0.5107505238
O   O75       1.0  0.41879  0.07879  0.54395  1.0000 -0.5107505238
O   O76       1.0  0.11522  0.57242  0.36625  1.0000 -0.5313679171
O   O77       1.0  0.57242  0.36625  0.11522  1.0000 -0.5313679171
O   O78       1.0  0.36625  0.11522  0.57242  1.0000 -0.5313679171
O   O79       1.0  0.35083  0.99131  0.51047  1.0000 -0.497831131
O   O80       1.0  0.99131  0.51047  0.35083  1.0000 -0.497831131
O   O81       1.0  0.51047  0.35083  0.99131  1.0000 -0.497831131
O   O82       1.0  0.29299  0.02424  0.52209  1.0000 -0.463400041
O   O83       1.0  0.02424  0.52209  0.29299  1.0000 -0.4655932039
O   O84       1.0  0.52209  0.29299  0.02424  1.0000 -0.4655932039
O   O85       1.0  0.31831  0.02618  0.41811  1.0000 -0.4207365761
O   O86       1.0  0.02618  0.41811  0.31831  1.0000 -0.4207365761
O   O87       1.0  0.41811  0.31831  0.02618  1.0000 -0.4207365761
O   O88       1.0  0.39250  0.04070  0.44550  1.0000 -0.4919529359
O   O89       1.0  0.04070  0.44550  0.39250  1.0000 -0.4919529359
O   O90       1.0  0.44550  0.39250  0.04070  1.0000 -0.4919529359
O   O91       1.0  0.11394  0.47227  0.30202  1.0000 -0.5107505238
O   O92       1.0  0.47227  0.30202  0.11394  1.0000 -0.5107505238
O   O93       1.0  0.30202  0.11394  0.47227  1.0000 -0.5107505238
O   O94       1.0  0.13356  0.47336  0.37707  1.0000 -0.5107505238
O   O95       1.0  0.47336  0.37707  0.13356  1.0000 -0.5107505238
O   O96       1.0  0.37707  0.13356  0.47336  1.0000 -0.5107505238
