# DDEC6 charges by PACMAN v1.1 (https://github.com/mtap-research/PACMAN-charge/)
data_2014[Co][dmc]3[FSR]2
_chemical_formula_sum              "Co4 H28 C36 N16 O8"
_cell_length_a       10.0249
_cell_length_b       9.555
_cell_length_c       15.6644
_cell_angle_alpha    90
_cell_angle_beta     100.696
_cell_angle_gamma    90

_symmetry_space_group_name_H-M    "P 1"
_symmetry_Int_Tables_number       1

loop_
  _symmetry_equiv_pos_as_xyz
  'x, y, z'

loop_
  _atom_site_type_symbol
  _atom_site_label
  _atom_site_symmetry_multiplicity
  _atom_site_fract_x
  _atom_site_fract_y
  _atom_site_fract_z
  _atom_site_occupancy
  _atom_site_charge
Co  Co1       1.0  0.14298  0.91883  0.08551  1.0000 0.7146535683
Co  Co2       1.0  0.35702  0.41883  0.91449  1.0000 0.7146535683
Co  Co3       1.0  0.85702  0.08117  0.91449  1.0000 0.7156325746
Co  Co4       1.0  0.64298  0.58117  0.08551  1.0000 0.7156325746
H   H1        1.0  0.11230  0.61340  0.87860  1.0000 0.3336242605
H   H2        1.0  0.38770  0.11340  0.12140  1.0000 0.3336242605
H   H3        1.0  0.88770  0.38660  0.12140  1.0000 0.3336242605
H   H4        1.0  0.61230  0.88660  0.87860  1.0000 0.3336242605
H   H5        1.0  0.05800  0.73310  0.92250  1.0000 0.3029865269
H   H6        1.0  0.44200  0.23310  0.07750  1.0000 0.3029865269
H   H7        1.0  0.94200  0.26690  0.07750  1.0000 0.3029865269
H   H8        1.0  0.55800  0.76690  0.92250  1.0000 0.3029865269
H   H9        1.0  0.45350  0.02050  0.35520  1.0000 0.1183028948
H   H10       1.0  0.04650  0.52050  0.64480  1.0000 0.1183028948
H   H11       1.0  0.54650  0.97950  0.64480  1.0000 0.1183028948
H   H12       1.0  0.95350  0.47950  0.35520  1.0000 0.1183028948
H   H13       1.0  0.38240  0.87390  0.58080  1.0000 0.1183028948
H   H14       1.0  0.11760  0.37390  0.41920  1.0000 0.1183028948
H   H15       1.0  0.61760  0.12610  0.41920  1.0000 0.1183028948
H   H16       1.0  0.88240  0.62610  0.58080  1.0000 0.1183028948
H   H17       1.0  0.19530  0.75320  0.50770  1.0000 0.1183028948
H   H18       1.0  0.30470  0.25320  0.49230  1.0000 0.1183028948
H   H19       1.0  0.80470  0.24680  0.49230  1.0000 0.1183028948
H   H20       1.0  0.69530  0.74680  0.50770  1.0000 0.1183028948
H   H21       1.0  0.12980  0.77840  0.35830  1.0000 0.1183028948
H   H22       1.0  0.37020  0.27840  0.64170  1.0000 0.1183028948
H   H23       1.0  0.87020  0.22160  0.64170  1.0000 0.1183028948
H   H24       1.0  0.62980  0.72160  0.35830  1.0000 0.1183028948
H   H25       1.0  0.44390  0.80200  0.12410  1.0000 0.1284464206
H   H26       1.0  0.05610  0.30200  0.87590  1.0000 0.1284464206
H   H27       1.0  0.55610  0.19800  0.87590  1.0000 0.1284464206
H   H28       1.0  0.94390  0.69800  0.12410  1.0000 0.1284464206
C   C1        1.0  0.24920  0.91360  0.24610  1.0000 0.5476597715
C   C2        1.0  0.25080  0.41360  0.75390  1.0000 0.5476597715
C   C3        1.0  0.75080  0.08640  0.75390  1.0000 0.5476597715
C   C4        1.0  0.74920  0.58640  0.24610  1.0000 0.5476597715
C   C5        1.0  0.28680  0.90050  0.34270  1.0000 -0.0123371433
C   C6        1.0  0.21320  0.40050  0.65730  1.0000 -0.0123371433
C   C7        1.0  0.71320  0.09950  0.65730  1.0000 -0.0123371433
C   C8        1.0  0.78680  0.59950  0.34270  1.0000 -0.0123371433
C   C9        1.0  0.40140  0.96810  0.38680  1.0000 -0.156546576
C   C10       1.0  0.09860  0.46810  0.61320  1.0000 -0.156546576
C   C11       1.0  0.59860  0.03190  0.61320  1.0000 -0.156546576
C   C12       1.0  0.90140  0.53190  0.38680  1.0000 -0.156546576
C   C13       1.0  0.44110  0.96060  0.47620  1.0000 0.0564301582
C   C14       1.0  0.05890  0.46060  0.52380  1.0000 0.0564301582
C   C15       1.0  0.55890  0.03940  0.52380  1.0000 0.0564301582
C   C16       1.0  0.94110  0.53940  0.47620  1.0000 0.0564301582
C   C17       1.0  0.36000  0.88030  0.52060  1.0000 -0.1453304086
C   C18       1.0  0.14000  0.38030  0.47940  1.0000 -0.1453304086
C   C19       1.0  0.64000  0.11970  0.47940  1.0000 -0.1453304086
C   C20       1.0  0.86000  0.61970  0.52060  1.0000 -0.1453304086
C   C21       1.0  0.24580  0.80920  0.47690  1.0000 -0.0928290133
C   C22       1.0  0.25420  0.30920  0.52310  1.0000 -0.0928290133
C   C23       1.0  0.75420  0.19080  0.52310  1.0000 -0.0928290133
C   C24       1.0  0.74580  0.69080  0.47690  1.0000 -0.0928290133
C   C25       1.0  0.20790  0.82220  0.38750  1.0000 -0.114137983
C   C26       1.0  0.29210  0.32220  0.61250  1.0000 -0.114137983
C   C27       1.0  0.79210  0.17780  0.61250  1.0000 -0.114137983
C   C28       1.0  0.70790  0.67780  0.38750  1.0000 -0.114137983
C   C29       1.0  0.39680  0.75300  0.07660  1.0000 0.1533969212
C   C30       1.0  0.10320  0.25300  0.92340  1.0000 0.1533969212
C   C31       1.0  0.60320  0.24700  0.92340  1.0000 0.1533969212
C   C32       1.0  0.89680  0.74700  0.07660  1.0000 0.1533969212
C   C33       1.0  0.24220  0.68690  0.97400  1.0000 0.5070467759
C   C34       1.0  0.25780  0.18690  0.02600  1.0000 0.5070467759
C   C35       1.0  0.75780  0.31310  0.02600  1.0000 0.5070467759
C   C36       1.0  0.74220  0.81310  0.97400  1.0000 0.5070467759
N   N1        1.0  0.44950  0.64970  0.04040  1.0000 -0.2343381177
N   N2        1.0  0.05050  0.14970  0.95960  1.0000 -0.2343381177
N   N3        1.0  0.55050  0.35030  0.95960  1.0000 -0.2343381177
N   N4        1.0  0.94950  0.85030  0.04040  1.0000 -0.2343381177
N   N5        1.0  0.34860  0.60390  0.97240  1.0000 -0.3477098253
N   N6        1.0  0.15140  0.10390  0.02760  1.0000 -0.3477098253
N   N7        1.0  0.65140  0.39610  0.02760  1.0000 -0.3477098253
N   N8        1.0  0.84860  0.89610  0.97240  1.0000 -0.3477098253
N   N9        1.0  0.26710  0.78290  0.03900  1.0000 -0.4438675921
N   N10       1.0  0.23290  0.28290  0.96100  1.0000 -0.4438675921
N   N11       1.0  0.73290  0.21710  0.96100  1.0000 -0.4438675921
N   N12       1.0  0.76710  0.71710  0.03900  1.0000 -0.4438675921
N   N13       1.0  0.12320  0.67660  0.91830  1.0000 -0.6182913166
N   N14       1.0  0.37680  0.17660  0.08170  1.0000 -0.6182913166
N   N15       1.0  0.87680  0.32340  0.08170  1.0000 -0.6182913166
N   N16       1.0  0.62320  0.82340  0.91830  1.0000 -0.6182913166
O   O1        1.0  0.13540  0.86480  0.20790  1.0000 -0.5137049239
O   O2        1.0  0.36460  0.36480  0.79210  1.0000 -0.5137049239
O   O3        1.0  0.86460  0.13520  0.79210  1.0000 -0.5137049239
O   O4        1.0  0.63540  0.63520  0.20790  1.0000 -0.5137049239
O   O5        1.0  0.32770  0.97090  0.20435  1.0000 -0.5388525854
O   O6        1.0  0.17230  0.47090  0.79565  1.0000 -0.5388525854
O   O7        1.0  0.67230  0.02910  0.79565  1.0000 -0.5388525854
O   O8        1.0  0.82770  0.52910  0.20435  1.0000 -0.5388525854
