# DDEC6 charges by PACMAN v1.1 (https://github.com/mtap-research/PACMAN-charge/)
data_2015[Cd][nuc]3[FSR]1
_chemical_formula_sum              "Cd4 H144 C192 N48"
_cell_length_a       15.8664
_cell_length_b       15.8664
_cell_length_c       21.7986
_cell_angle_alpha    90
_cell_angle_beta     90
_cell_angle_gamma    90

_symmetry_space_group_name_H-M    "P 1"
_symmetry_Int_Tables_number       1

loop_
  _symmetry_equiv_pos_as_xyz
  'x, y, z'

loop_
  _atom_site_type_symbol
  _atom_site_label
  _atom_site_symmetry_multiplicity
  _atom_site_fract_x
  _atom_site_fract_y
  _atom_site_fract_z
  _atom_site_occupancy
  _atom_site_charge
Cd  Cd1       1.0  0.44092  0.44092  0.50000  1.0000 0.6450341671
Cd  Cd2       1.0  0.05908  0.94092  0.25000  1.0000 0.6450341671
Cd  Cd3       1.0  0.94092  0.05908  0.75000  1.0000 0.6450341671
Cd  Cd4       1.0  0.55908  0.55908  0.00000  1.0000 0.6450341671
H   H1        1.0  0.76030  0.99410  0.82220  1.0000 0.0992445587
H   H2        1.0  0.50590  0.26030  0.57220  1.0000 0.0992445587
H   H3        1.0  0.26030  0.50590  0.42780  1.0000 0.0992445587
H   H4        1.0  0.23970  0.00590  0.32220  1.0000 0.0992445587
H   H5        1.0  0.00590  0.23970  0.67780  1.0000 0.0992445587
H   H6        1.0  0.99410  0.76030  0.17780  1.0000 0.0992445587
H   H7        1.0  0.49410  0.73970  0.07220  1.0000 0.0992445587
H   H8        1.0  0.73970  0.49410  0.92780  1.0000 0.0992445587
H   H9        1.0  0.65430  0.89690  0.81420  1.0000 0.1243797272
H   H10       1.0  0.60310  0.15430  0.56420  1.0000 0.1243797272
H   H11       1.0  0.15430  0.60310  0.43580  1.0000 0.1243797272
H   H12       1.0  0.34570  0.10310  0.31420  1.0000 0.1243797272
H   H13       1.0  0.10310  0.34570  0.68580  1.0000 0.1243797272
H   H14       1.0  0.89690  0.65430  0.18580  1.0000 0.1243797272
H   H15       1.0  0.39690  0.84570  0.06420  1.0000 0.1243797272
H   H16       1.0  0.84570  0.39690  0.93580  1.0000 0.1243797272
H   H17       1.0  0.73340  0.84800  0.64270  1.0000 0.1293534455
H   H18       1.0  0.65200  0.23340  0.39270  1.0000 0.1293534455
H   H19       1.0  0.23340  0.65200  0.60730  1.0000 0.1293534455
H   H20       1.0  0.26660  0.15200  0.14270  1.0000 0.1293534455
H   H21       1.0  0.15200  0.26660  0.85730  1.0000 0.1293534455
H   H22       1.0  0.84800  0.73340  0.35730  1.0000 0.1293534455
H   H23       1.0  0.34800  0.76660  0.89270  1.0000 0.1293534455
H   H24       1.0  0.76660  0.34800  0.10730  1.0000 0.1293534455
H   H25       1.0  0.83830  0.94470  0.65710  1.0000 0.0992445587
H   H26       1.0  0.55530  0.33830  0.40710  1.0000 0.0992445587
H   H27       1.0  0.33830  0.55530  0.59290  1.0000 0.0992445587
H   H28       1.0  0.16170  0.05530  0.15710  1.0000 0.0992445587
H   H29       1.0  0.05530  0.16170  0.84290  1.0000 0.0992445587
H   H30       1.0  0.94470  0.83830  0.34290  1.0000 0.0992445587
H   H31       1.0  0.44470  0.66170  0.90710  1.0000 0.0992445587
H   H32       1.0  0.66170  0.44470  0.09290  1.0000 0.0992445587
H   H33       1.0  0.54040  0.82590  0.79250  1.0000 0.1105946154
H   H34       1.0  0.67410  0.04040  0.54250  1.0000 0.1105946154
H   H35       1.0  0.04040  0.67410  0.45750  1.0000 0.1105946154
H   H36       1.0  0.45960  0.17410  0.29250  1.0000 0.1105946154
H   H37       1.0  0.17410  0.45960  0.70750  1.0000 0.1105946154
H   H38       1.0  0.82590  0.54040  0.20750  1.0000 0.1105946154
H   H39       1.0  0.32590  0.95960  0.04250  1.0000 0.1105946154
H   H40       1.0  0.95960  0.32590  0.95750  1.0000 0.1105946154
H   H41       1.0  0.44270  0.72030  0.78280  1.0000 0.1105946154
H   H42       1.0  0.77970  0.94270  0.53280  1.0000 0.1105946154
H   H43       1.0  0.94270  0.77970  0.46720  1.0000 0.1105946154
H   H44       1.0  0.55730  0.27970  0.28280  1.0000 0.1105946154
H   H45       1.0  0.27970  0.55730  0.71720  1.0000 0.1105946154
H   H46       1.0  0.72030  0.44270  0.21720  1.0000 0.1105946154
H   H47       1.0  0.22030  0.05730  0.03280  1.0000 0.1105946154
H   H48       1.0  0.05730  0.22030  0.96720  1.0000 0.1105946154
H   H49       1.0  0.45800  0.61710  0.70900  1.0000 0.1105946154
H   H50       1.0  0.88290  0.95800  0.45900  1.0000 0.1105946154
H   H51       1.0  0.95800  0.88290  0.54100  1.0000 0.1105946154
H   H52       1.0  0.54200  0.38290  0.20900  1.0000 0.1105946154
H   H53       1.0  0.38290  0.54200  0.79100  1.0000 0.1105946154
H   H54       1.0  0.61710  0.45800  0.29100  1.0000 0.1105946154
H   H55       1.0  0.11710  0.04200  0.95900  1.0000 0.1105946154
H   H56       1.0  0.04200  0.11710  0.04100  1.0000 0.1105946154
H   H57       1.0  0.67330  0.72700  0.65280  1.0000 0.0992445587
H   H58       1.0  0.77300  0.17330  0.40280  1.0000 0.0992445587
H   H59       1.0  0.17330  0.77300  0.59720  1.0000 0.0992445587
H   H60       1.0  0.32670  0.27300  0.15280  1.0000 0.0992445587
H   H61       1.0  0.27300  0.32670  0.84720  1.0000 0.0992445587
H   H62       1.0  0.72700  0.67330  0.34720  1.0000 0.0992445587
H   H63       1.0  0.22700  0.82670  0.90280  1.0000 0.0992445587
H   H64       1.0  0.82670  0.22700  0.09720  1.0000 0.0992445587
H   H65       1.0  0.70310  0.50390  0.45590  1.0000 0.1105946154
H   H66       1.0  0.99610  0.20310  0.20590  1.0000 0.1105946154
H   H67       1.0  0.20310  0.99610  0.79410  1.0000 0.1105946154
H   H68       1.0  0.29690  0.49610  0.95590  1.0000 0.1105946154
H   H69       1.0  0.49610  0.29690  0.04410  1.0000 0.1105946154
H   H70       1.0  0.50390  0.70310  0.54410  1.0000 0.1105946154
H   H71       1.0  0.00390  0.79690  0.70590  1.0000 0.1105946154
H   H72       1.0  0.79690  0.00390  0.29410  1.0000 0.1105946154
H   H73       1.0  0.80030  0.41090  0.41300  1.0000 0.1105946154
H   H74       1.0  0.08910  0.30030  0.16300  1.0000 0.1105946154
H   H75       1.0  0.30030  0.08910  0.83700  1.0000 0.1105946154
H   H76       1.0  0.19970  0.58910  0.91300  1.0000 0.1105946154
H   H77       1.0  0.58910  0.19970  0.08700  1.0000 0.1105946154
H   H78       1.0  0.41090  0.80030  0.58700  1.0000 0.1105946154
H   H79       1.0  0.91090  0.69970  0.66300  1.0000 0.1105946154
H   H80       1.0  0.69970  0.91090  0.33700  1.0000 0.1105946154
H   H81       1.0  0.84940  0.29740  0.46860  1.0000 0.0992445587
H   H82       1.0  0.20260  0.34940  0.21860  1.0000 0.0992445587
H   H83       1.0  0.34940  0.20260  0.78140  1.0000 0.0992445587
H   H84       1.0  0.15060  0.70260  0.96860  1.0000 0.0992445587
H   H85       1.0  0.70260  0.15060  0.03140  1.0000 0.0992445587
H   H86       1.0  0.29740  0.84940  0.53140  1.0000 0.0992445587
H   H87       1.0  0.79740  0.65060  0.71860  1.0000 0.0992445587
H   H88       1.0  0.65060  0.79740  0.28140  1.0000 0.0992445587
H   H89       1.0  0.69990  0.36440  0.60900  1.0000 0.1105946154
H   H90       1.0  0.13560  0.19990  0.35900  1.0000 0.1105946154
H   H91       1.0  0.19990  0.13560  0.64100  1.0000 0.1105946154
H   H92       1.0  0.30010  0.63560  0.10900  1.0000 0.1105946154
H   H93       1.0  0.63560  0.30010  0.89100  1.0000 0.1105946154
H   H94       1.0  0.36440  0.69990  0.39100  1.0000 0.1105946154
H   H95       1.0  0.86440  0.80010  0.85900  1.0000 0.1105946154
H   H96       1.0  0.80010  0.86440  0.14100  1.0000 0.1105946154
H   H97       1.0  0.71800  0.24580  0.64550  1.0000 0.1293534455
H   H98       1.0  0.25420  0.21800  0.39550  1.0000 0.1293534455
H   H99       1.0  0.21800  0.25420  0.60450  1.0000 0.1293534455
H   H100      1.0  0.28200  0.75420  0.14550  1.0000 0.1293534455
H   H101      1.0  0.75420  0.28200  0.85450  1.0000 0.1293534455
H   H102      1.0  0.24580  0.71800  0.35450  1.0000 0.1293534455
H   H103      1.0  0.74580  0.78200  0.89550  1.0000 0.1293534455
H   H104      1.0  0.78200  0.74580  0.10450  1.0000 0.1293534455
H   H105      1.0  0.77240  0.14340  0.70700  1.0000 0.0992445587
H   H106      1.0  0.35660  0.27240  0.45700  1.0000 0.0992445587
H   H107      1.0  0.27240  0.35660  0.54300  1.0000 0.0992445587
H   H108      1.0  0.22760  0.85660  0.20700  1.0000 0.0992445587
H   H109      1.0  0.85660  0.22760  0.79300  1.0000 0.0992445587
H   H110      1.0  0.14340  0.77240  0.29300  1.0000 0.0992445587
H   H111      1.0  0.64340  0.72760  0.95700  1.0000 0.0992445587
H   H112      1.0  0.72760  0.64340  0.04300  1.0000 0.0992445587
H   H113      1.0  0.96360  0.11030  0.59840  1.0000 0.0992445587
H   H114      1.0  0.38970  0.46360  0.34840  1.0000 0.0992445587
H   H115      1.0  0.46360  0.38970  0.65160  1.0000 0.0992445587
H   H116      1.0  0.03640  0.88970  0.09840  1.0000 0.0992445587
H   H117      1.0  0.88970  0.03640  0.90160  1.0000 0.0992445587
H   H118      1.0  0.11030  0.96360  0.40160  1.0000 0.0992445587
H   H119      1.0  0.61030  0.53640  0.84840  1.0000 0.0992445587
H   H120      1.0  0.53640  0.61030  0.15160  1.0000 0.0992445587
H   H121      1.0  0.91520  0.21380  0.53290  1.0000 0.1293534455
H   H122      1.0  0.28620  0.41520  0.28290  1.0000 0.1293534455
H   H123      1.0  0.41520  0.28620  0.71710  1.0000 0.1293534455
H   H124      1.0  0.08480  0.78620  0.03290  1.0000 0.1293534455
H   H125      1.0  0.78620  0.08480  0.96710  1.0000 0.1293534455
H   H126      1.0  0.21380  0.91520  0.46710  1.0000 0.1293534455
H   H127      1.0  0.71380  0.58480  0.78290  1.0000 0.1293534455
H   H128      1.0  0.58480  0.71380  0.21710  1.0000 0.1293534455
H   H129      1.0  0.76120  0.53340  0.62080  1.0000 0.2498837515
H   H130      1.0  0.96660  0.26120  0.37080  1.0000 0.2498837515
H   H131      1.0  0.26120  0.96660  0.62920  1.0000 0.2498837515
H   H132      1.0  0.23880  0.46660  0.12080  1.0000 0.2498837515
H   H133      1.0  0.46660  0.23880  0.87920  1.0000 0.2498837515
H   H134      1.0  0.53340  0.76120  0.37920  1.0000 0.2498837515
H   H135      1.0  0.03340  0.73880  0.87080  1.0000 0.2498837515
H   H136      1.0  0.73880  0.03340  0.12920  1.0000 0.2498837515
H   H137      1.0  0.74190  0.61500  0.59100  1.0000 0.2498837515
H   H138      1.0  0.88500  0.24190  0.34100  1.0000 0.2498837515
H   H139      1.0  0.24190  0.88500  0.65900  1.0000 0.2498837515
H   H140      1.0  0.25810  0.38500  0.09100  1.0000 0.2498837515
H   H141      1.0  0.38500  0.25810  0.90900  1.0000 0.2498837515
H   H142      1.0  0.61500  0.74190  0.40900  1.0000 0.2498837515
H   H143      1.0  0.11500  0.75810  0.84100  1.0000 0.2498837515
H   H144      1.0  0.75810  0.11500  0.15900  1.0000 0.2498837515
C   C1        1.0  0.75600  0.96290  0.78620  1.0000 0.0610663958
C   C2        1.0  0.53710  0.25600  0.53620  1.0000 0.0610663958
C   C3        1.0  0.25600  0.53710  0.46380  1.0000 0.0610663958
C   C4        1.0  0.24400  0.03710  0.28620  1.0000 0.0610663958
C   C5        1.0  0.03710  0.24400  0.71380  1.0000 0.0610663958
C   C6        1.0  0.96290  0.75600  0.21380  1.0000 0.0610663958
C   C7        1.0  0.46290  0.74400  0.03620  1.0000 0.0610663958
C   C8        1.0  0.74400  0.46290  0.96380  1.0000 0.0610663958
C   C9        1.0  0.69130  0.90450  0.78160  1.0000 -0.2102350246
C   C10       1.0  0.59550  0.19130  0.53160  1.0000 -0.2102350246
C   C11       1.0  0.19130  0.59550  0.46840  1.0000 -0.2102350246
C   C12       1.0  0.30870  0.09550  0.28160  1.0000 -0.2102350246
C   C13       1.0  0.09550  0.30870  0.71840  1.0000 -0.2102350246
C   C14       1.0  0.90450  0.69130  0.21840  1.0000 -0.2102350246
C   C15       1.0  0.40450  0.80870  0.03160  1.0000 -0.2102350246
C   C16       1.0  0.80870  0.40450  0.96840  1.0000 -0.2102350246
C   C17       1.0  0.68150  0.85680  0.72810  1.0000 0.1105946154
C   C18       1.0  0.64320  0.18150  0.47810  1.0000 0.1105946154
C   C19       1.0  0.18150  0.64320  0.52190  1.0000 0.1105946154
C   C20       1.0  0.31850  0.14320  0.22810  1.0000 0.1105946154
C   C21       1.0  0.14320  0.31850  0.77190  1.0000 0.1105946154
C   C22       1.0  0.85680  0.68150  0.27190  1.0000 0.1105946154
C   C23       1.0  0.35680  0.81850  0.97810  1.0000 0.1105946154
C   C24       1.0  0.81850  0.35680  0.02190  1.0000 0.1105946154
C   C25       1.0  0.73830  0.87530  0.68020  1.0000 -0.2029416358
C   C26       1.0  0.62470  0.23830  0.43020  1.0000 -0.2029416358
C   C27       1.0  0.23830  0.62470  0.56980  1.0000 -0.2029416358
C   C28       1.0  0.26170  0.12470  0.18020  1.0000 -0.2029416358
C   C29       1.0  0.12470  0.26170  0.81980  1.0000 -0.2029416358
C   C30       1.0  0.87530  0.73830  0.31980  1.0000 -0.2029416358
C   C31       1.0  0.37530  0.76170  0.93020  1.0000 -0.2029416358
C   C32       1.0  0.76170  0.37530  0.06980  1.0000 -0.2029416358
C   C33       1.0  0.80140  0.93410  0.68930  1.0000 0.0610663958
C   C34       1.0  0.56590  0.30140  0.43930  1.0000 0.0610663958
C   C35       1.0  0.30140  0.56590  0.56070  1.0000 0.0610663958
C   C36       1.0  0.19860  0.06590  0.18930  1.0000 0.0610663958
C   C37       1.0  0.06590  0.19860  0.81070  1.0000 0.0610663958
C   C38       1.0  0.93410  0.80140  0.31070  1.0000 0.0610663958
C   C39       1.0  0.43410  0.69860  0.93930  1.0000 0.0610663958
C   C40       1.0  0.69860  0.43410  0.06070  1.0000 0.0610663958
C   C41       1.0  0.61640  0.79040  0.72260  1.0000 0.0673987572
C   C42       1.0  0.70960  0.11640  0.47260  1.0000 0.0673987572
C   C43       1.0  0.11640  0.70960  0.52740  1.0000 0.0673987572
C   C44       1.0  0.38360  0.20960  0.22260  1.0000 0.0673987572
C   C45       1.0  0.20960  0.38360  0.77740  1.0000 0.0673987572
C   C46       1.0  0.79040  0.61640  0.27740  1.0000 0.0673987572
C   C47       1.0  0.29040  0.88360  0.97260  1.0000 0.0673987572
C   C48       1.0  0.88360  0.29040  0.02740  1.0000 0.0673987572
C   C49       1.0  0.54720  0.78540  0.76200  1.0000 -0.1615686396
C   C50       1.0  0.71460  0.04720  0.51200  1.0000 -0.1615686396
C   C51       1.0  0.04720  0.71460  0.48800  1.0000 -0.1615686396
C   C52       1.0  0.45280  0.21460  0.26200  1.0000 -0.1615686396
C   C53       1.0  0.21460  0.45280  0.73800  1.0000 -0.1615686396
C   C54       1.0  0.78540  0.54720  0.23800  1.0000 -0.1615686396
C   C55       1.0  0.28540  0.95280  0.01200  1.0000 -0.1615686396
C   C56       1.0  0.95280  0.28540  0.98800  1.0000 -0.1615686396
C   C57       1.0  0.48900  0.72150  0.75660  1.0000 -0.1106538845
C   C58       1.0  0.77850  0.98900  0.50660  1.0000 -0.1106538845
C   C59       1.0  0.98900  0.77850  0.49340  1.0000 -0.1106538845
C   C60       1.0  0.51100  0.27850  0.25660  1.0000 -0.1106538845
C   C61       1.0  0.27850  0.51100  0.74340  1.0000 -0.1106538845
C   C62       1.0  0.72150  0.48900  0.24340  1.0000 -0.1106538845
C   C63       1.0  0.22150  0.01100  0.00660  1.0000 -0.1106538845
C   C64       1.0  0.01100  0.22150  0.99340  1.0000 -0.1106538845
C   C65       1.0  0.49830  0.65930  0.71280  1.0000 -0.1615686396
C   C66       1.0  0.84070  0.99830  0.46280  1.0000 -0.1615686396
C   C67       1.0  0.99830  0.84070  0.53720  1.0000 -0.1615686396
C   C68       1.0  0.50170  0.34070  0.21280  1.0000 -0.1615686396
C   C69       1.0  0.34070  0.50170  0.78720  1.0000 -0.1615686396
C   C70       1.0  0.65930  0.49830  0.28720  1.0000 -0.1615686396
C   C71       1.0  0.15930  0.00170  0.96280  1.0000 -0.1615686396
C   C72       1.0  0.00170  0.15930  0.03720  1.0000 -0.1615686396
C   C73       1.0  0.56880  0.66000  0.67420  1.0000 0.0307742526
C   C74       1.0  0.84000  0.06880  0.42420  1.0000 0.0307742526
C   C75       1.0  0.06880  0.84000  0.57580  1.0000 0.0307742526
C   C76       1.0  0.43120  0.34000  0.17420  1.0000 0.0353126071
C   C77       1.0  0.34000  0.43120  0.82580  1.0000 0.0353126071
C   C78       1.0  0.66000  0.56880  0.32580  1.0000 0.0353126071
C   C79       1.0  0.16000  0.93120  0.92420  1.0000 0.0353126071
C   C80       1.0  0.93120  0.16000  0.07580  1.0000 0.0353126071
C   C81       1.0  0.62690  0.72580  0.67890  1.0000 -0.2029416358
C   C82       1.0  0.77420  0.12690  0.42890  1.0000 -0.2029416358
C   C83       1.0  0.12690  0.77420  0.57110  1.0000 -0.2029416358
C   C84       1.0  0.37310  0.27420  0.17890  1.0000 -0.2029416358
C   C85       1.0  0.27420  0.37310  0.82110  1.0000 -0.2029416358
C   C86       1.0  0.72580  0.62690  0.32110  1.0000 -0.2029416358
C   C87       1.0  0.22580  0.87310  0.92890  1.0000 -0.2029416358
C   C88       1.0  0.87310  0.22580  0.07110  1.0000 -0.2029416358
C   C89       1.0  0.57680  0.59170  0.62934  1.0000 0.1782355487
C   C90       1.0  0.90830  0.07680  0.37934  1.0000 0.1782355487
C   C91       1.0  0.07680  0.90830  0.62066  1.0000 0.1782355487
C   C92       1.0  0.42320  0.40830  0.12934  1.0000 0.1782355487
C   C93       1.0  0.40830  0.42320  0.87066  1.0000 0.1782355487
C   C94       1.0  0.59170  0.57680  0.37066  1.0000 0.1782355487
C   C95       1.0  0.09170  0.92320  0.87934  1.0000 0.1782355487
C   C96       1.0  0.92320  0.09170  0.12066  1.0000 0.1782355487
C   C97       1.0  0.62850  0.49720  0.56697  1.0000 0.162381367
C   C98       1.0  0.00280  0.12850  0.31697  1.0000 0.162381367
C   C99       1.0  0.12850  0.00280  0.68303  1.0000 0.162381367
C   C100      1.0  0.37150  0.50280  0.06697  1.0000 0.162381367
C   C101      1.0  0.50280  0.37150  0.93303  1.0000 0.162381367
C   C102      1.0  0.49720  0.62850  0.43303  1.0000 0.162381367
C   C103      1.0  0.99720  0.87150  0.81697  1.0000 0.162381367
C   C104      1.0  0.87150  0.99720  0.18303  1.0000 0.162381367
C   C105      1.0  0.69110  0.44120  0.53705  1.0000 0.0239781418
C   C106      1.0  0.05880  0.19110  0.28705  1.0000 0.0239781418
C   C107      1.0  0.19110  0.05880  0.71295  1.0000 0.0239781418
C   C108      1.0  0.30890  0.55880  0.03705  1.0000 0.0239781418
C   C109      1.0  0.55880  0.30890  0.96295  1.0000 0.0239781418
C   C110      1.0  0.44120  0.69110  0.46295  1.0000 0.0239781418
C   C111      1.0  0.94120  0.80890  0.78705  1.0000 0.0239781418
C   C112      1.0  0.80890  0.94120  0.21295  1.0000 0.0239781418
C   C113      1.0  0.72170  0.45730  0.47790  1.0000 -0.1689701861
C   C114      1.0  0.04270  0.22170  0.22790  1.0000 -0.1689701861
C   C115      1.0  0.22170  0.04270  0.77210  1.0000 -0.1689701861
C   C116      1.0  0.27830  0.54270  0.97790  1.0000 -0.1689701861
C   C117      1.0  0.54270  0.27830  0.02210  1.0000 -0.1689701861
C   C118      1.0  0.45730  0.72170  0.52210  1.0000 -0.1689701861
C   C119      1.0  0.95730  0.77830  0.72790  1.0000 -0.1689701861
C   C120      1.0  0.77830  0.95730  0.27210  1.0000 -0.1689701861
C   C121      1.0  0.78070  0.40190  0.45260  1.0000 -0.1002095499
C   C122      1.0  0.09810  0.28070  0.20260  1.0000 -0.1002095499
C   C123      1.0  0.28070  0.09810  0.79740  1.0000 -0.1002095499
C   C124      1.0  0.21930  0.59810  0.95260  1.0000 -0.1002095499
C   C125      1.0  0.59810  0.21930  0.04740  1.0000 -0.1002095499
C   C126      1.0  0.40190  0.78070  0.54740  1.0000 -0.1002095499
C   C127      1.0  0.90190  0.71930  0.70260  1.0000 -0.1002095499
C   C128      1.0  0.71930  0.90190  0.29740  1.0000 -0.1002095499
C   C129      1.0  0.81030  0.33370  0.48610  1.0000 -0.1689701861
C   C130      1.0  0.16630  0.31030  0.23610  1.0000 -0.1689701861
C   C131      1.0  0.31030  0.16630  0.76390  1.0000 -0.1689701861
C   C132      1.0  0.18970  0.66630  0.98610  1.0000 -0.1689701861
C   C133      1.0  0.66630  0.18970  0.01390  1.0000 -0.1689701861
C   C134      1.0  0.33370  0.81030  0.51390  1.0000 -0.1689701861
C   C135      1.0  0.83370  0.68970  0.73610  1.0000 -0.1689701861
C   C136      1.0  0.68970  0.83370  0.26390  1.0000 -0.1689701861
C   C137      1.0  0.78200  0.31900  0.54570  1.0000 0.0673987572
C   C138      1.0  0.18100  0.28200  0.29570  1.0000 0.0673987572
C   C139      1.0  0.28200  0.18100  0.70430  1.0000 0.0673987572
C   C140      1.0  0.21800  0.68100  0.04570  1.0000 0.0673987572
C   C141      1.0  0.68100  0.21800  0.95430  1.0000 0.0673987572
C   C142      1.0  0.31900  0.78200  0.45430  1.0000 0.0673987572
C   C143      1.0  0.81900  0.71800  0.79570  1.0000 0.0673987572
C   C144      1.0  0.71800  0.81900  0.20430  1.0000 0.0673987572
C   C145      1.0  0.72070  0.37410  0.56970  1.0000 -0.2029416358
C   C146      1.0  0.12590  0.22070  0.31970  1.0000 -0.2029416358
C   C147      1.0  0.22070  0.12590  0.68030  1.0000 -0.2029416358
C   C148      1.0  0.27930  0.62590  0.06970  1.0000 -0.2029416358
C   C149      1.0  0.62590  0.27930  0.93030  1.0000 -0.2029416358
C   C150      1.0  0.37410  0.72070  0.43030  1.0000 -0.2029416358
C   C151      1.0  0.87410  0.77930  0.81970  1.0000 -0.2029416358
C   C152      1.0  0.77930  0.87410  0.18030  1.0000 -0.2029416358
C   C153      1.0  0.81230  0.24680  0.58280  1.0000 0.1105946154
C   C154      1.0  0.25320  0.31230  0.33280  1.0000 0.1105946154
C   C155      1.0  0.31230  0.25320  0.66720  1.0000 0.1105946154
C   C156      1.0  0.18770  0.75320  0.08280  1.0000 0.1105946154
C   C157      1.0  0.75320  0.18770  0.91720  1.0000 0.1105946154
C   C158      1.0  0.24680  0.81230  0.41720  1.0000 0.1105946154
C   C159      1.0  0.74680  0.68770  0.83280  1.0000 0.1105946154
C   C160      1.0  0.68770  0.74680  0.16720  1.0000 0.1105946154
C   C161      1.0  0.76930  0.22110  0.63540  1.0000 -0.2102350246
C   C162      1.0  0.27890  0.26930  0.38540  1.0000 -0.2102350246
C   C163      1.0  0.26930  0.27890  0.61460  1.0000 -0.2102350246
C   C164      1.0  0.23070  0.77890  0.13540  1.0000 -0.2102350246
C   C165      1.0  0.77890  0.23070  0.86460  1.0000 -0.2102350246
C   C166      1.0  0.22110  0.76930  0.36460  1.0000 -0.2102350246
C   C167      1.0  0.72110  0.73070  0.88540  1.0000 -0.2102350246
C   C168      1.0  0.73070  0.72110  0.11460  1.0000 -0.2102350246
C   C169      1.0  0.80270  0.15940  0.67240  1.0000 0.0307742526
C   C170      1.0  0.34060  0.30270  0.42240  1.0000 0.0307742526
C   C171      1.0  0.30270  0.34060  0.57760  1.0000 0.0307742526
C   C172      1.0  0.19730  0.84060  0.17240  1.0000 0.0307742526
C   C173      1.0  0.84060  0.19730  0.82760  1.0000 0.0307742526
C   C174      1.0  0.15940  0.80270  0.32760  1.0000 0.0307742526
C   C175      1.0  0.65940  0.69730  0.92240  1.0000 0.0307742526
C   C176      1.0  0.69730  0.65940  0.07760  1.0000 0.0307742526
C   C177      1.0  0.91500  0.13980  0.60890  1.0000 0.0673987572
C   C178      1.0  0.36020  0.41500  0.35890  1.0000 0.0673987572
C   C179      1.0  0.41500  0.36020  0.64110  1.0000 0.0673987572
C   C180      1.0  0.08500  0.86020  0.10890  1.0000 0.0673987572
C   C181      1.0  0.86020  0.08500  0.89110  1.0000 0.0673987572
C   C182      1.0  0.13980  0.91500  0.39110  1.0000 0.0673987572
C   C183      1.0  0.63980  0.58500  0.85890  1.0000 0.0673987572
C   C184      1.0  0.58500  0.63980  0.14110  1.0000 0.0673987572
C   C185      1.0  0.88580  0.20210  0.56880  1.0000 -0.2102350246
C   C186      1.0  0.29790  0.38580  0.31880  1.0000 -0.2102350246
C   C187      1.0  0.38580  0.29790  0.68120  1.0000 -0.2102350246
C   C188      1.0  0.11420  0.79790  0.06880  1.0000 -0.2102350246
C   C189      1.0  0.79790  0.11420  0.93120  1.0000 -0.2102350246
C   C190      1.0  0.20210  0.88580  0.43120  1.0000 -0.2102350246
C   C191      1.0  0.70210  0.61420  0.81880  1.0000 -0.2102350246
C   C192      1.0  0.61420  0.70210  0.18120  1.0000 -0.2102350246
N   N1        1.0  0.81260  0.97680  0.74193  1.0000 -0.2401489511
N   N2        1.0  0.52320  0.31260  0.49193  1.0000 -0.2401489511
N   N3        1.0  0.31260  0.52320  0.50807  1.0000 -0.2401489511
N   N4        1.0  0.18740  0.02320  0.24193  1.0000 -0.2401489511
N   N5        1.0  0.02320  0.18740  0.75807  1.0000 -0.2401489511
N   N6        1.0  0.97680  0.81260  0.25807  1.0000 -0.2401489511
N   N7        1.0  0.47680  0.68740  0.99193  1.0000 -0.2401489511
N   N8        1.0  0.68740  0.47680  0.00807  1.0000 -0.2401489511
N   N9        1.0  0.51290  0.55230  0.60443  1.0000 -0.2775055662
N   N10       1.0  0.94770  0.01290  0.35443  1.0000 -0.2775055662
N   N11       1.0  0.01290  0.94770  0.64557  1.0000 -0.2775055662
N   N12       1.0  0.48710  0.44770  0.10443  1.0000 -0.2775055662
N   N13       1.0  0.44770  0.48710  0.89557  1.0000 -0.2775055662
N   N14       1.0  0.55230  0.51290  0.39557  1.0000 -0.2775055662
N   N15       1.0  0.05230  0.98710  0.85443  1.0000 -0.2775055662
N   N16       1.0  0.98710  0.05230  0.14557  1.0000 -0.2775055662
N   N17       1.0  0.54580  0.49220  0.56505  1.0000 -0.2286195073
N   N18       1.0  0.00780  0.04580  0.31505  1.0000 -0.2286195073
N   N19       1.0  0.04580  0.00780  0.68495  1.0000 -0.2286195073
N   N20       1.0  0.45420  0.50780  0.06505  1.0000 -0.2286195073
N   N21       1.0  0.50780  0.45420  0.93495  1.0000 -0.2286195073
N   N22       1.0  0.49220  0.54580  0.43495  1.0000 -0.2286195073
N   N23       1.0  0.99220  0.95420  0.81505  1.0000 -0.2286195073
N   N24       1.0  0.95420  0.99220  0.18495  1.0000 -0.2286195073
N   N25       1.0  0.65010  0.55880  0.60694  1.0000 0.0496271762
N   N26       1.0  0.94120  0.15010  0.35694  1.0000 0.0496271762
N   N27       1.0  0.15010  0.94120  0.64306  1.0000 0.0496271762
N   N28       1.0  0.34990  0.44120  0.10694  1.0000 0.0496271762
N   N29       1.0  0.44120  0.34990  0.89306  1.0000 0.0496271762
N   N30       1.0  0.55880  0.65010  0.39306  1.0000 0.0496271762
N   N31       1.0  0.05880  0.84990  0.85694  1.0000 0.0496271762
N   N32       1.0  0.84990  0.05880  0.14306  1.0000 0.0496271762
N   N33       1.0  0.73270  0.58160  0.62480  1.0000 -0.5199911565
N   N34       1.0  0.91840  0.23270  0.37480  1.0000 -0.5199911565
N   N35       1.0  0.23270  0.91840  0.62520  1.0000 -0.5199911565
N   N36       1.0  0.26730  0.41840  0.12480  1.0000 -0.5199911565
N   N37       1.0  0.41840  0.26730  0.87520  1.0000 -0.5199911565
N   N38       1.0  0.58160  0.73270  0.37520  1.0000 -0.5199911565
N   N39       1.0  0.08160  0.76730  0.87480  1.0000 -0.5199911565
N   N40       1.0  0.76730  0.08160  0.12520  1.0000 -0.5199911565
N   N41       1.0  0.87680  0.12050  0.66150  1.0000 -0.2401489511
N   N42       1.0  0.37950  0.37680  0.41150  1.0000 -0.2401489511
N   N43       1.0  0.37680  0.37950  0.58850  1.0000 -0.2401489511
N   N44       1.0  0.12320  0.87950  0.16150  1.0000 -0.2401489511
N   N45       1.0  0.87950  0.12320  0.83850  1.0000 -0.2401489511
N   N46       1.0  0.12050  0.87680  0.33850  1.0000 -0.2401489511
N   N47       1.0  0.62050  0.62320  0.91150  1.0000 -0.2401489511
N   N48       1.0  0.62320  0.62050  0.08850  1.0000 -0.2401489511
