# DDEC6 charges by PACMAN v1.1 (https://github.com/mtap-research/PACMAN-charge/)
data_2015[Cu][wbl]3[FSR]1
_chemical_formula_sum              "Cu4 H104 C136 N16 O8"
_cell_length_a       13.0883
_cell_length_b       13.0883
_cell_length_c       26.7939
_cell_angle_alpha    90
_cell_angle_beta     90
_cell_angle_gamma    90

_symmetry_space_group_name_H-M    "P 1"
_symmetry_Int_Tables_number       1

loop_
  _symmetry_equiv_pos_as_xyz
  'x, y, z'

loop_
  _atom_site_type_symbol
  _atom_site_label
  _atom_site_symmetry_multiplicity
  _atom_site_fract_x
  _atom_site_fract_y
  _atom_site_fract_z
  _atom_site_occupancy
  _atom_site_charge
Cu  Cu1       1.0  0.50000  0.00000  0.28255  1.0000 0.1882465463
Cu  Cu2       1.0  0.00000  0.50000  0.78255  1.0000 0.1882465463
Cu  Cu3       1.0  0.50000  0.00000  0.71745  1.0000 0.1882465463
Cu  Cu4       1.0  0.00000  0.50000  0.21745  1.0000 0.1882465463
H   H1        1.0  0.41410  0.58680  0.43470  1.0000 0.1100673876
H   H2        1.0  0.41320  0.41410  0.93470  1.0000 0.1100673876
H   H3        1.0  0.41410  0.41320  0.56530  1.0000 0.1100673876
H   H4        1.0  0.58590  0.41320  0.43470  1.0000 0.1100673876
H   H5        1.0  0.41320  0.58590  0.06530  1.0000 0.1100673876
H   H6        1.0  0.58680  0.41410  0.06530  1.0000 0.1100673876
H   H7        1.0  0.58680  0.58590  0.93470  1.0000 0.1100673876
H   H8        1.0  0.58590  0.58680  0.56530  1.0000 0.1100673876
H   H9        1.0  0.48920  0.68180  0.38340  1.0000 0.1282417334
H   H10       1.0  0.31820  0.48920  0.88340  1.0000 0.1282417334
H   H11       1.0  0.48920  0.31820  0.61660  1.0000 0.1282417334
H   H12       1.0  0.51080  0.31820  0.38340  1.0000 0.1282417334
H   H13       1.0  0.31820  0.51080  0.11660  1.0000 0.1282417334
H   H14       1.0  0.68180  0.48920  0.11660  1.0000 0.1282417334
H   H15       1.0  0.68180  0.51080  0.88340  1.0000 0.1282417334
H   H16       1.0  0.51080  0.68180  0.61660  1.0000 0.1282417334
H   H17       1.0  0.52290  0.78170  0.31430  1.0000 0.1008391262
H   H18       1.0  0.21830  0.52290  0.81430  1.0000 0.1008391262
H   H19       1.0  0.52290  0.21830  0.68570  1.0000 0.1008391262
H   H20       1.0  0.47710  0.21830  0.31430  1.0000 0.1008391262
H   H21       1.0  0.21830  0.47710  0.18570  1.0000 0.1008391262
H   H22       1.0  0.78170  0.52290  0.18570  1.0000 0.1008391262
H   H23       1.0  0.78170  0.47710  0.81430  1.0000 0.1008391262
H   H24       1.0  0.47710  0.78170  0.68570  1.0000 0.1008391262
H   H25       1.0  0.34430  0.83850  0.51130  1.0000 0.1008391262
H   H26       1.0  0.16150  0.34430  0.01130  1.0000 0.1008391262
H   H27       1.0  0.34430  0.16150  0.48870  1.0000 0.1008391262
H   H28       1.0  0.65570  0.16150  0.51130  1.0000 0.1008391262
H   H29       1.0  0.16150  0.65570  0.98870  1.0000 0.1008391262
H   H30       1.0  0.83850  0.34430  0.98870  1.0000 0.1008391262
H   H31       1.0  0.83850  0.65570  0.01130  1.0000 0.1008391262
H   H32       1.0  0.65570  0.83850  0.48870  1.0000 0.1008391262
H   H33       1.0  0.32950  0.91230  0.44100  1.0000 0.1282417334
H   H34       1.0  0.08770  0.32950  0.94100  1.0000 0.1282417334
H   H35       1.0  0.32950  0.08770  0.55900  1.0000 0.1282417334
H   H36       1.0  0.67050  0.08770  0.44100  1.0000 0.1282417334
H   H37       1.0  0.08770  0.67050  0.05900  1.0000 0.1282417334
H   H38       1.0  0.91230  0.32950  0.05900  1.0000 0.1282417334
H   H39       1.0  0.91230  0.67050  0.94100  1.0000 0.1282417334
H   H40       1.0  0.67050  0.91230  0.55900  1.0000 0.1282417334
H   H41       1.0  0.36900  0.00830  0.37120  1.0000 0.1008391262
H   H42       1.0  0.99170  0.36900  0.87120  1.0000 0.1008391262
H   H43       1.0  0.36900  0.99170  0.62880  1.0000 0.1008391262
H   H44       1.0  0.63100  0.99170  0.37120  1.0000 0.1008391262
H   H45       1.0  0.99170  0.63100  0.12880  1.0000 0.1008391262
H   H46       1.0  0.00830  0.36900  0.12880  1.0000 0.1008391262
H   H47       1.0  0.00830  0.63100  0.87120  1.0000 0.1008391262
H   H48       1.0  0.63100  0.00830  0.62880  1.0000 0.1008391262
H   H49       1.0  0.11000  0.59290  0.69930  1.0000 0.1100673876
H   H50       1.0  0.40710  0.11000  0.19930  1.0000 0.1100673876
H   H51       1.0  0.11000  0.40710  0.30070  1.0000 0.1100673876
H   H52       1.0  0.89000  0.40710  0.69930  1.0000 0.1100673876
H   H53       1.0  0.40710  0.89000  0.80070  1.0000 0.1100673876
H   H54       1.0  0.59290  0.11000  0.80070  1.0000 0.1100673876
H   H55       1.0  0.59290  0.89000  0.19930  1.0000 0.1100673876
H   H56       1.0  0.89000  0.59290  0.30070  1.0000 0.1100673876
H   H57       1.0  0.29320  0.74200  0.57810  1.0000 0.1100673876
H   H58       1.0  0.25800  0.29320  0.07810  1.0000 0.1100673876
H   H59       1.0  0.29320  0.25800  0.42190  1.0000 0.1100673876
H   H60       1.0  0.70680  0.25800  0.57810  1.0000 0.1100673876
H   H61       1.0  0.25800  0.70680  0.92190  1.0000 0.1100673876
H   H62       1.0  0.74200  0.29320  0.92190  1.0000 0.1100673876
H   H63       1.0  0.74200  0.70680  0.07810  1.0000 0.1100673876
H   H64       1.0  0.70680  0.74200  0.42190  1.0000 0.1100673876
H   H65       1.0  0.10630  0.31020  0.74640  1.0000 0.1008391262
H   H66       1.0  0.68980  0.10630  0.24640  1.0000 0.1008391262
H   H67       1.0  0.10630  0.68980  0.25360  1.0000 0.1008391262
H   H68       1.0  0.89370  0.68980  0.74640  1.0000 0.1008391262
H   H69       1.0  0.68980  0.89370  0.75360  1.0000 0.1008391262
H   H70       1.0  0.31020  0.10630  0.75360  1.0000 0.1008391262
H   H71       1.0  0.31020  0.89370  0.24640  1.0000 0.1008391262
H   H72       1.0  0.89370  0.31020  0.25360  1.0000 0.1008391262
H   H73       1.0  0.18220  0.63120  0.61660  1.0000 0.1100673876
H   H74       1.0  0.36880  0.18220  0.11660  1.0000 0.1100673876
H   H75       1.0  0.18220  0.36880  0.38340  1.0000 0.1100673876
H   H76       1.0  0.81780  0.36880  0.61660  1.0000 0.1100673876
H   H77       1.0  0.36880  0.81780  0.88340  1.0000 0.1100673876
H   H78       1.0  0.63120  0.18220  0.88340  1.0000 0.1100673876
H   H79       1.0  0.63120  0.81780  0.11660  1.0000 0.1100673876
H   H80       1.0  0.81780  0.63120  0.38340  1.0000 0.1100673876
H   H81       1.0  0.28950  0.62750  0.64280  1.0000 0.1008391262
H   H82       1.0  0.37250  0.28950  0.14280  1.0000 0.1008391262
H   H83       1.0  0.28950  0.37250  0.35720  1.0000 0.1008391262
H   H84       1.0  0.71050  0.37250  0.64280  1.0000 0.1008391262
H   H85       1.0  0.37250  0.71050  0.85720  1.0000 0.1008391262
H   H86       1.0  0.62750  0.28950  0.85720  1.0000 0.1008391262
H   H87       1.0  0.62750  0.71050  0.14280  1.0000 0.1008391262
H   H88       1.0  0.71050  0.62750  0.35720  1.0000 0.1008391262
H   H89       1.0  0.21440  0.26260  0.68460  1.0000 0.1223824999
H   H90       1.0  0.73740  0.21440  0.18460  1.0000 0.1223824999
H   H91       1.0  0.21440  0.73740  0.31540  1.0000 0.1223824999
H   H92       1.0  0.78560  0.73740  0.68460  1.0000 0.1223824999
H   H93       1.0  0.73740  0.78560  0.81540  1.0000 0.1223824999
H   H94       1.0  0.26260  0.21440  0.81540  1.0000 0.1223824999
H   H95       1.0  0.26260  0.78560  0.18460  1.0000 0.1223824999
H   H96       1.0  0.78560  0.26260  0.31540  1.0000 0.1223824999
H   H97       1.0  0.27900  0.38150  0.62940  1.0000 0.1223824999
H   H98       1.0  0.61850  0.27900  0.12940  1.0000 0.1223824999
H   H99       1.0  0.27900  0.61850  0.37060  1.0000 0.1223824999
H   H100      1.0  0.72100  0.61850  0.62940  1.0000 0.1223824999
H   H101      1.0  0.61850  0.72100  0.87060  1.0000 0.1223824999
H   H102      1.0  0.38150  0.27900  0.87060  1.0000 0.1223824999
H   H103      1.0  0.38150  0.72100  0.12940  1.0000 0.1223824999
H   H104      1.0  0.72100  0.38150  0.37060  1.0000 0.1223824999
C   C1        1.0  0.38590  0.61760  0.46281  1.0000 -0.2093959733
C   C2        1.0  0.38240  0.38590  0.96281  1.0000 -0.2093959733
C   C3        1.0  0.38590  0.38240  0.53719  1.0000 -0.2093959733
C   C4        1.0  0.61410  0.38240  0.46281  1.0000 -0.2093959733
C   C5        1.0  0.38240  0.61410  0.03719  1.0000 -0.2093959733
C   C6        1.0  0.61760  0.38590  0.03719  1.0000 -0.2093959733
C   C7        1.0  0.61760  0.61410  0.96281  1.0000 -0.2093959733
C   C8        1.0  0.61410  0.61760  0.53719  1.0000 -0.2093959733
C   C9        1.0  0.35100  0.55570  0.50227  1.0000 -0.0050518879
C   C10       1.0  0.44430  0.35100  0.00227  1.0000 -0.0050518879
C   C11       1.0  0.35100  0.44430  0.49773  1.0000 -0.0050518879
C   C12       1.0  0.64900  0.44430  0.50227  1.0000 -0.0050518879
C   C13       1.0  0.44430  0.64900  0.99773  1.0000 -0.0050518879
C   C14       1.0  0.55570  0.35100  0.99773  1.0000 -0.0050518879
C   C15       1.0  0.55570  0.64900  0.00227  1.0000 -0.0050518879
C   C16       1.0  0.64900  0.55570  0.49773  1.0000 -0.0050518879
C   C17       1.0  0.40620  0.78680  0.42098  1.0000 0.1100673876
C   C18       1.0  0.21320  0.40620  0.92098  1.0000 0.1100673876
C   C19       1.0  0.40620  0.21320  0.57902  1.0000 0.1100673876
C   C20       1.0  0.59380  0.21320  0.42098  1.0000 0.1100673876
C   C21       1.0  0.21320  0.59380  0.07902  1.0000 0.1100673876
C   C22       1.0  0.78680  0.40620  0.07902  1.0000 0.1100673876
C   C23       1.0  0.78680  0.59380  0.92098  1.0000 0.1100673876
C   C24       1.0  0.59380  0.78680  0.57902  1.0000 0.1100673876
C   C25       1.0  0.37950  0.72290  0.46472  1.0000 0.0490405724
C   C26       1.0  0.27710  0.37950  0.96472  1.0000 0.0490405724
C   C27       1.0  0.37950  0.27710  0.53528  1.0000 0.0490405724
C   C28       1.0  0.62050  0.27710  0.46472  1.0000 0.0490405724
C   C29       1.0  0.27710  0.62050  0.03528  1.0000 0.0490405724
C   C30       1.0  0.72290  0.37950  0.03528  1.0000 0.0490405724
C   C31       1.0  0.72290  0.62050  0.96472  1.0000 0.0490405724
C   C32       1.0  0.62050  0.72290  0.53528  1.0000 0.0490405724
C   C33       1.0  0.46400  0.74820  0.38184  1.0000 -0.2093959733
C   C34       1.0  0.25180  0.46400  0.88184  1.0000 -0.2093959733
C   C35       1.0  0.46400  0.25180  0.61816  1.0000 -0.2093959733
C   C36       1.0  0.53600  0.25180  0.38184  1.0000 -0.2093959733
C   C37       1.0  0.25180  0.53600  0.11816  1.0000 -0.2093959733
C   C38       1.0  0.74820  0.46400  0.11816  1.0000 -0.2093959733
C   C39       1.0  0.74820  0.53600  0.88184  1.0000 -0.2093959733
C   C40       1.0  0.53600  0.74820  0.61816  1.0000 -0.2093959733
C   C41       1.0  0.48440  0.80870  0.34031  1.0000 0.0339362358
C   C42       1.0  0.19130  0.48440  0.84031  1.0000 0.0339362358
C   C43       1.0  0.48440  0.19130  0.65969  1.0000 0.0339362358
C   C44       1.0  0.51560  0.19130  0.34031  1.0000 0.0339362358
C   C45       1.0  0.19130  0.51560  0.15969  1.0000 0.0339362358
C   C46       1.0  0.80870  0.48440  0.15969  1.0000 0.0339362358
C   C47       1.0  0.80870  0.51560  0.84031  1.0000 0.0339362358
C   C48       1.0  0.51560  0.80870  0.65969  1.0000 0.0339362358
C   C49       1.0  0.31600  0.60520  0.54613  1.0000 0.1882465463
C   C50       1.0  0.39480  0.31600  0.04613  1.0000 0.1882465463
C   C51       1.0  0.31600  0.39480  0.45387  1.0000 0.1882465463
C   C52       1.0  0.68400  0.39480  0.54613  1.0000 0.1882465463
C   C53       1.0  0.39480  0.68400  0.95387  1.0000 0.1882465463
C   C54       1.0  0.60520  0.31600  0.95387  1.0000 0.1882465463
C   C55       1.0  0.60520  0.68400  0.04613  1.0000 0.1882465463
C   C56       1.0  0.68400  0.60520  0.45387  1.0000 0.1882465463
C   C57       1.0  0.34590  0.76770  0.50886  1.0000 -0.1609839344
C   C58       1.0  0.23230  0.34590  0.00886  1.0000 -0.1609839344
C   C59       1.0  0.34590  0.23230  0.49114  1.0000 -0.1609839344
C   C60       1.0  0.65410  0.23230  0.50886  1.0000 -0.1609839344
C   C61       1.0  0.23230  0.65410  0.99114  1.0000 -0.1609839344
C   C62       1.0  0.76770  0.34590  0.99114  1.0000 -0.1609839344
C   C63       1.0  0.76770  0.65410  0.00886  1.0000 -0.1609839344
C   C64       1.0  0.65410  0.76770  0.49114  1.0000 -0.1609839344
C   C65       1.0  0.37010  0.88410  0.41606  1.0000 -0.217413693
C   C66       1.0  0.11590  0.37010  0.91606  1.0000 -0.217413693
C   C67       1.0  0.37010  0.11590  0.58394  1.0000 -0.217413693
C   C68       1.0  0.62990  0.11590  0.41606  1.0000 -0.217413693
C   C69       1.0  0.11590  0.62990  0.08394  1.0000 -0.217413693
C   C70       1.0  0.88410  0.37010  0.08394  1.0000 -0.217413693
C   C71       1.0  0.88410  0.62990  0.91606  1.0000 -0.217413693
C   C72       1.0  0.62990  0.88410  0.58394  1.0000 -0.217413693
C   C73       1.0  0.39370  0.94180  0.37360  1.0000 0.0490405724
C   C74       1.0  0.05820  0.39370  0.87360  1.0000 0.0490405724
C   C75       1.0  0.39370  0.05820  0.62640  1.0000 0.0490405724
C   C76       1.0  0.60630  0.05820  0.37360  1.0000 0.0490405724
C   C77       1.0  0.05820  0.60630  0.12640  1.0000 0.0490405724
C   C78       1.0  0.94180  0.39370  0.12640  1.0000 0.0490405724
C   C79       1.0  0.94180  0.60630  0.87360  1.0000 0.0490405724
C   C80       1.0  0.60630  0.94180  0.62640  1.0000 0.0490405724
C   C81       1.0  0.13350  0.52610  0.69648  1.0000 -0.0308325564
C   C82       1.0  0.47390  0.13350  0.19648  1.0000 -0.0308325564
C   C83       1.0  0.13350  0.47390  0.30352  1.0000 -0.0308325564
C   C84       1.0  0.86650  0.47390  0.69648  1.0000 -0.0308325564
C   C85       1.0  0.47390  0.86650  0.80352  1.0000 -0.0308325564
C   C86       1.0  0.52610  0.13350  0.80352  1.0000 -0.0308325564
C   C87       1.0  0.52610  0.86650  0.19648  1.0000 -0.0308325564
C   C88       1.0  0.86650  0.52610  0.30352  1.0000 -0.0308325564
C   C89       1.0  0.20100  0.50350  0.65944  1.0000 0.0559633306
C   C90       1.0  0.49650  0.20100  0.15944  1.0000 0.0559633306
C   C91       1.0  0.20100  0.49650  0.34056  1.0000 0.0559633306
C   C92       1.0  0.79900  0.49650  0.65944  1.0000 0.0559633306
C   C93       1.0  0.49650  0.79900  0.84056  1.0000 0.0559633306
C   C94       1.0  0.50350  0.20100  0.84056  1.0000 0.0559633306
C   C95       1.0  0.50350  0.79900  0.15944  1.0000 0.0559633306
C   C96       1.0  0.79900  0.50350  0.34056  1.0000 0.0559633306
C   C97       1.0  0.31490  0.71000  0.54902  1.0000 -0.2446376303
C   C98       1.0  0.29000  0.31490  0.04902  1.0000 -0.2446376303
C   C99       1.0  0.31490  0.29000  0.45098  1.0000 -0.2446376303
C   C100      1.0  0.68510  0.29000  0.54902  1.0000 -0.2446376303
C   C101      1.0  0.29000  0.68510  0.95098  1.0000 -0.2446376303
C   C102      1.0  0.71000  0.31490  0.95098  1.0000 -0.2446376303
C   C103      1.0  0.71000  0.68510  0.04902  1.0000 -0.2446376303
C   C104      1.0  0.68510  0.71000  0.45098  1.0000 -0.2446376303
C   C105      1.0  0.13020  0.35930  0.72410  1.0000 0.0014665529
C   C106      1.0  0.64070  0.13020  0.22410  1.0000 0.0014665529
C   C107      1.0  0.13020  0.64070  0.27590  1.0000 0.0014665529
C   C108      1.0  0.86980  0.64070  0.72410  1.0000 0.0014665529
C   C109      1.0  0.64070  0.86980  0.77590  1.0000 0.0014665529
C   C110      1.0  0.35930  0.13020  0.77590  1.0000 0.0014665529
C   C111      1.0  0.35930  0.86980  0.22410  1.0000 0.0014665529
C   C112      1.0  0.86980  0.35930  0.27590  1.0000 0.0014665529
C   C113      1.0  0.23840  0.58680  0.62570  1.0000 -0.0997345367
C   C114      1.0  0.41320  0.23840  0.12570  1.0000 -0.0997345367
C   C115      1.0  0.23840  0.41320  0.37430  1.0000 -0.0997345367
C   C116      1.0  0.76160  0.41320  0.62570  1.0000 -0.0997345367
C   C117      1.0  0.41320  0.76160  0.87430  1.0000 -0.0997345367
C   C118      1.0  0.58680  0.23840  0.87430  1.0000 -0.0997345367
C   C119      1.0  0.58680  0.76160  0.12570  1.0000 -0.0997345367
C   C120      1.0  0.76160  0.58680  0.37430  1.0000 -0.0997345367
C   C121      1.0  0.19530  0.33080  0.68740  1.0000 -0.1609839344
C   C122      1.0  0.66920  0.19530  0.18740  1.0000 -0.1609839344
C   C123      1.0  0.19530  0.66920  0.31260  1.0000 -0.1609839344
C   C124      1.0  0.80470  0.66920  0.68740  1.0000 -0.1609839344
C   C125      1.0  0.66920  0.80470  0.81260  1.0000 -0.1609839344
C   C126      1.0  0.33080  0.19530  0.81260  1.0000 -0.1609839344
C   C127      1.0  0.33080  0.80470  0.18740  1.0000 -0.1609839344
C   C128      1.0  0.80470  0.33080  0.31260  1.0000 -0.1609839344
C   C129      1.0  0.23340  0.40070  0.65440  1.0000 -0.1129665993
C   C130      1.0  0.59930  0.23340  0.15440  1.0000 -0.1129665993
C   C131      1.0  0.23340  0.59930  0.34560  1.0000 -0.1129665993
C   C132      1.0  0.76660  0.59930  0.65440  1.0000 -0.1129665993
C   C133      1.0  0.59930  0.76660  0.84560  1.0000 -0.1129665993
C   C134      1.0  0.40070  0.23340  0.84560  1.0000 -0.1129665993
C   C135      1.0  0.40070  0.76660  0.15440  1.0000 -0.1129665993
C   C136      1.0  0.76660  0.40070  0.34560  1.0000 -0.1129665993
N   N1        1.0  0.44990  0.90490  0.33688  1.0000 -0.2024983683
N   N2        1.0  0.09510  0.44990  0.83688  1.0000 -0.2024983683
N   N3        1.0  0.44990  0.09510  0.66312  1.0000 -0.2024983683
N   N4        1.0  0.55010  0.09510  0.33688  1.0000 -0.2024983683
N   N5        1.0  0.09510  0.55010  0.16312  1.0000 -0.2024983683
N   N6        1.0  0.90490  0.44990  0.16312  1.0000 -0.2024983683
N   N7        1.0  0.90490  0.55010  0.83688  1.0000 -0.2024983683
N   N8        1.0  0.55010  0.90490  0.66312  1.0000 -0.2024983683
N   N9        1.0  0.09920  0.45590  0.72918  1.0000 -0.2024983683
N   N10       1.0  0.54410  0.09920  0.22918  1.0000 -0.2024983683
N   N11       1.0  0.09920  0.54410  0.27082  1.0000 -0.2024983683
N   N12       1.0  0.90080  0.54410  0.72918  1.0000 -0.2024983683
N   N13       1.0  0.54410  0.90080  0.77082  1.0000 -0.2024983683
N   N14       1.0  0.45590  0.09920  0.77082  1.0000 -0.2024983683
N   N15       1.0  0.45590  0.90080  0.22918  1.0000 -0.2024983683
N   N16       1.0  0.90080  0.45590  0.27082  1.0000 -0.2024983683
O   O1        1.0  0.28050  0.54320  0.58323  1.0000 -0.1712046632
O   O2        1.0  0.45680  0.28050  0.08323  1.0000 -0.1712046632
O   O3        1.0  0.28050  0.45680  0.41677  1.0000 -0.1712046632
O   O4        1.0  0.71950  0.45680  0.58323  1.0000 -0.1712046632
O   O5        1.0  0.45680  0.71950  0.91677  1.0000 -0.1712046632
O   O6        1.0  0.54320  0.28050  0.91677  1.0000 -0.1712046632
O   O7        1.0  0.54320  0.71950  0.08323  1.0000 -0.1712046632
O   O8        1.0  0.71950  0.54320  0.41677  1.0000 -0.1712046632
