# DDEC6 charges by PACMAN v1.1 (https://github.com/mtap-research/PACMAN-charge/)
data_2016[Zn][ths]3[FSR]8
_chemical_formula_sum              "Zn12 H96 C144 I24 N48"
_cell_length_a       19.2013
_cell_length_b       19.2013
_cell_length_c       30.6904
_cell_angle_alpha    78.784
_cell_angle_beta     101.216
_cell_angle_gamma    133.5

_symmetry_space_group_name_H-M    "P 1"
_symmetry_Int_Tables_number       1

loop_
  _symmetry_equiv_pos_as_xyz
  'x, y, z'

loop_
  _atom_site_type_symbol
  _atom_site_label
  _atom_site_symmetry_multiplicity
  _atom_site_fract_x
  _atom_site_fract_y
  _atom_site_fract_z
  _atom_site_occupancy
  _atom_site_charge
Zn  Zn1       1.0  0.69763  0.54181  0.59608  1.0000 0.4670792541
Zn  Zn2       1.0  0.45819  0.30237  0.09608  1.0000 0.4670792541
Zn  Zn3       1.0  0.03926  0.67962  0.78314  1.0000 0.4511807172
Zn  Zn4       1.0  0.32038  0.96074  0.28314  1.0000 0.4511807172
Zn  Zn5       1.0  0.96554  0.21418  0.93697  1.0000 0.4670792541
Zn  Zn6       1.0  0.78582  0.03446  0.43697  1.0000 0.4670792541
Zn  Zn7       1.0  0.54181  0.69763  0.90392  1.0000 0.4670792541
Zn  Zn8       1.0  0.30237  0.45819  0.40392  1.0000 0.4670792541
Zn  Zn9       1.0  0.67962  0.03926  0.71686  1.0000 0.4511807172
Zn  Zn10      1.0  0.96074  0.32038  0.21686  1.0000 0.4511807172
Zn  Zn11      1.0  0.21418  0.96554  0.56303  1.0000 0.4670792541
Zn  Zn12      1.0  0.03446  0.78582  0.06303  1.0000 0.4670792541
H   H1        1.0  0.23430  0.75430  0.82360  1.0000 0.1085020383
H   H2        1.0  0.24570  0.76570  0.32360  1.0000 0.1085020383
H   H3        1.0  0.39380  0.89100  0.82280  1.0000 0.1385826254
H   H4        1.0  0.10900  0.60620  0.32280  1.0000 0.1385826254
H   H5        1.0  0.16320  0.88020  0.74090  1.0000 0.1017504278
H   H6        1.0  0.11980  0.83680  0.24090  1.0000 0.1017504278
H   H7        1.0  0.54040  0.50640  0.06830  1.0000 0.1085020383
H   H8        1.0  0.49360  0.45960  0.56830  1.0000 0.1085020383
H   H9        1.0  0.76290  0.37750  0.72050  1.0000 0.1307881367
H   H10       1.0  0.62250  0.23710  0.22050  1.0000 0.1307881367
H   H11       1.0  0.94420  0.31720  0.85400  1.0000 0.1085020383
H   H12       1.0  0.68280  0.05580  0.35400  1.0000 0.1085020383
H   H13       1.0  0.65310  0.63930  0.02350  1.0000 0.1385826254
H   H14       1.0  0.36070  0.34690  0.52350  1.0000 0.1385826254
H   H15       1.0  0.63090  0.03870  0.87070  1.0000 0.1385826254
H   H16       1.0  0.96130  0.36910  0.37070  1.0000 0.1385826254
H   H17       1.0  0.79730  0.49110  0.66400  1.0000 0.1085020383
H   H18       1.0  0.50890  0.20270  0.16400  1.0000 0.1085020383
H   H19       1.0  0.94340  0.58400  0.86960  1.0000 0.1017504278
H   H20       1.0  0.41600  0.05660  0.36960  1.0000 0.1017504278
H   H21       1.0  0.90360  0.04380  0.00360  1.0000 0.1085020383
H   H22       1.0  0.95620  0.09640  0.50360  1.0000 0.1085020383
H   H23       1.0  0.86900  0.59280  0.91590  1.0000 0.1307881367
H   H24       1.0  0.40720  0.13100  0.41590  1.0000 0.1307881367
H   H25       1.0  0.52600  0.34400  0.62950  1.0000 0.1017504278
H   H26       1.0  0.65600  0.47400  0.12950  1.0000 0.1017504278
H   H27       1.0  0.56020  0.34820  0.01990  1.0000 0.1085020383
H   H28       1.0  0.65180  0.43980  0.51990  1.0000 0.1085020383
H   H29       1.0  0.94700  0.83000  0.84020  1.0000 0.1307881367
H   H30       1.0  0.17000  0.05300  0.34020  1.0000 0.1385826254
H   H31       1.0  0.75680  0.06920  0.91820  1.0000 0.1017504278
H   H32       1.0  0.93080  0.24320  0.41820  1.0000 0.1017504278
H   H33       1.0  0.01600  0.81200  0.79550  1.0000 0.1017504278
H   H34       1.0  0.18800  0.98400  0.29550  1.0000 0.1017504278
H   H35       1.0  0.67740  0.47800  0.97530  1.0000 0.1385826254
H   H36       1.0  0.52200  0.32260  0.47530  1.0000 0.1385826254
H   H37       1.0  0.32120  0.02140  0.73720  1.0000 0.1385826254
H   H38       1.0  0.97860  0.67880  0.23720  1.0000 0.1385826254
H   H39       1.0  0.82560  0.29740  0.80560  1.0000 0.1307881367
H   H40       1.0  0.70260  0.17440  0.30560  1.0000 0.1307881367
H   H41       1.0  0.48350  0.22470  0.68400  1.0000 0.1307881367
H   H42       1.0  0.77530  0.51650  0.18400  1.0000 0.1307881367
H   H43       1.0  0.85810  0.89690  0.00590  1.0000 0.1385826254
H   H44       1.0  0.10310  0.14190  0.50590  1.0000 0.1385826254
H   H45       1.0  0.92780  0.08840  0.87540  1.0000 0.1085020383
H   H46       1.0  0.91160  0.07220  0.37540  1.0000 0.1085020383
H   H47       1.0  0.88890  0.94610  0.87490  1.0000 0.1385826254
H   H48       1.0  0.05390  0.11110  0.37490  1.0000 0.1385826254
H   H49       1.0  0.75430  0.23430  0.67640  1.0000 0.1085020383
H   H50       1.0  0.76570  0.24570  0.17640  1.0000 0.1085020383
H   H51       1.0  0.89100  0.39380  0.67720  1.0000 0.1385826254
H   H52       1.0  0.60620  0.10900  0.17720  1.0000 0.1385826254
H   H53       1.0  0.88020  0.16320  0.75910  1.0000 0.1017504278
H   H54       1.0  0.83680  0.11980  0.25910  1.0000 0.1017504278
H   H55       1.0  0.50640  0.54040  0.43170  1.0000 0.1085020383
H   H56       1.0  0.45960  0.49360  0.93170  1.0000 0.1085020383
H   H57       1.0  0.37750  0.76290  0.77950  1.0000 0.1307881367
H   H58       1.0  0.23710  0.62250  0.27950  1.0000 0.1307881367
H   H59       1.0  0.31720  0.94420  0.64600  1.0000 0.1085020383
H   H60       1.0  0.05580  0.68280  0.14600  1.0000 0.1085020383
H   H61       1.0  0.63930  0.65310  0.47650  1.0000 0.1385826254
H   H62       1.0  0.34690  0.36070  0.97650  1.0000 0.1385826254
H   H63       1.0  0.03870  0.63090  0.62930  1.0000 0.1385826254
H   H64       1.0  0.36910  0.96130  0.12930  1.0000 0.1385826254
H   H65       1.0  0.49110  0.79730  0.83600  1.0000 0.1085020383
H   H66       1.0  0.20270  0.50890  0.33600  1.0000 0.1085020383
H   H67       1.0  0.58400  0.94340  0.63040  1.0000 0.1017504278
H   H68       1.0  0.05660  0.41600  0.13040  1.0000 0.1017504278
H   H69       1.0  0.04380  0.90360  0.49640  1.0000 0.1085020383
H   H70       1.0  0.09640  0.95620  0.99640  1.0000 0.1085020383
H   H71       1.0  0.59280  0.86900  0.58410  1.0000 0.1307881367
H   H72       1.0  0.13100  0.40720  0.08410  1.0000 0.1307881367
H   H73       1.0  0.34400  0.52600  0.87050  1.0000 0.1017504278
H   H74       1.0  0.47400  0.65600  0.37050  1.0000 0.1017504278
H   H75       1.0  0.34820  0.56020  0.48010  1.0000 0.1085020383
H   H76       1.0  0.43980  0.65180  0.98010  1.0000 0.1085020383
H   H77       1.0  0.83000  0.94700  0.65980  1.0000 0.1307881367
H   H78       1.0  0.05300  0.17000  0.15980  1.0000 0.1385826254
H   H79       1.0  0.06920  0.75680  0.58180  1.0000 0.1017504278
H   H80       1.0  0.24320  0.93080  0.08180  1.0000 0.1017504278
H   H81       1.0  0.81200  0.01600  0.70450  1.0000 0.1017504278
H   H82       1.0  0.98400  0.18800  0.20450  1.0000 0.1017504278
H   H83       1.0  0.47800  0.67740  0.52470  1.0000 0.1385826254
H   H84       1.0  0.32260  0.52200  0.02470  1.0000 0.1385826254
H   H85       1.0  0.02140  0.32120  0.76280  1.0000 0.1385826254
H   H86       1.0  0.67880  0.97860  0.26280  1.0000 0.1385826254
H   H87       1.0  0.29740  0.82560  0.69440  1.0000 0.1307881367
H   H88       1.0  0.17440  0.70260  0.19440  1.0000 0.1307881367
H   H89       1.0  0.22470  0.48350  0.81600  1.0000 0.1307881367
H   H90       1.0  0.51650  0.77530  0.31600  1.0000 0.1307881367
H   H91       1.0  0.89690  0.85810  0.49410  1.0000 0.1385826254
H   H92       1.0  0.14190  0.10310  0.99410  1.0000 0.1385826254
H   H93       1.0  0.08840  0.92780  0.62460  1.0000 0.1085020383
H   H94       1.0  0.07220  0.91160  0.12460  1.0000 0.1085020383
H   H95       1.0  0.94610  0.88890  0.62510  1.0000 0.1385826254
H   H96       1.0  0.11110  0.05390  0.12510  1.0000 0.1385826254
C   C1        1.0  0.59211  0.21189  0.74570  1.0000 0.3706140383
C   C2        1.0  0.78811  0.40789  0.24570  1.0000 0.3706140383
C   C3        1.0  0.61816  0.28784  0.70950  1.0000 0.0598304264
C   C4        1.0  0.71216  0.38184  0.20950  1.0000 0.0598304264
C   C5        1.0  0.63628  0.15212  0.80250  1.0000 0.3706140383
C   C6        1.0  0.84788  0.36372  0.30250  1.0000 0.3750203534
C   C7        1.0  0.71389  0.16591  0.83350  1.0000 0.0598304264
C   C8        1.0  0.83409  0.28611  0.33350  1.0000 0.0598304264
C   C9        1.0  0.75599  0.65821  0.96680  1.0000 0.3706140383
C   C10       1.0  0.34179  0.24401  0.46680  1.0000 0.3706140383
C   C11       1.0  0.25200  0.80880  0.80600  1.0000 0.0820702621
C   C12       1.0  0.19120  0.74800  0.30600  1.0000 0.0820702621
C   C13       1.0  0.48024  0.06456  0.77900  1.0000 0.3627071364
C   C14       1.0  0.93544  0.51976  0.27900  1.0000 0.3627071364
C   C15       1.0  0.85533  0.72207  0.91320  1.0000 0.3706140383
C   C16       1.0  0.27793  0.14467  0.41320  1.0000 0.3706140383
C   C17       1.0  0.34810  0.89090  0.80580  1.0000 -0.1626365574
C   C18       1.0  0.10910  0.65190  0.30580  1.0000 -0.1626365574
C   C19       1.0  0.87071  0.90609  0.94080  1.0000 0.0598304264
C   C20       1.0  0.09391  0.12929  0.44080  1.0000 0.0598304264
C   C21       1.0  0.68048  0.57412  0.99510  1.0000 0.0598304264
C   C22       1.0  0.42588  0.31952  0.49510  1.0000 0.0598304264
C   C23       1.0  0.21070  0.88270  0.75760  1.0000 0.0699842548
C   C24       1.0  0.11730  0.78930  0.25760  1.0000 0.0699842548
C   C25       1.0  0.84375  0.81325  0.94110  1.0000 0.3627071364
C   C26       1.0  0.18675  0.15625  0.44110  1.0000 0.3627071364
C   C27       1.0  0.56835  0.50085  0.04940  1.0000 0.0598304264
C   C28       1.0  0.49915  0.43165  0.54940  1.0000 0.0699842548
C   C29       1.0  0.71310  0.36910  0.70240  1.0000 -0.1483674178
C   C30       1.0  0.63090  0.28690  0.20240  1.0000 -0.1483674178
C   C31       1.0  0.89967  0.71233  0.88350  1.0000 0.0699842548
C   C32       1.0  0.28767  0.10033  0.38350  1.0000 0.0699842548
C   C33       1.0  0.88030  0.26110  0.85750  1.0000 0.0699842548
C   C34       1.0  0.73890  0.11970  0.35750  1.0000 0.0699842548
C   C35       1.0  0.63660  0.58120  0.02280  1.0000 -0.1394348906
C   C36       1.0  0.41880  0.36340  0.52280  1.0000 -0.1394348906
C   C37       1.0  0.69390  0.09670  0.86700  1.0000 -0.1394348906
C   C38       1.0  0.90330  0.30610  0.36700  1.0000 -0.130048059
C   C39       1.0  0.73310  0.43710  0.66840  1.0000 0.0820702621
C   C40       1.0  0.56290  0.26690  0.16840  1.0000 0.0820702621
C   C41       1.0  0.37640  0.97360  0.78050  1.0000 0.0699842548
C   C42       1.0  0.02640  0.62360  0.28050  1.0000 0.0699842548
C   C43       1.0  0.94370  0.63350  0.86380  1.0000 0.0889428279
C   C44       1.0  0.36650  0.05630  0.36380  1.0000 0.0889428279
C   C45       1.0  0.90040  0.02360  0.97750  1.0000 0.0889428279
C   C46       1.0  0.97640  0.09960  0.47750  1.0000 0.0889428279
C   C47       1.0  0.89900  0.63840  0.89180  1.0000 -0.130048059
C   C48       1.0  0.36160  0.10100  0.39180  1.0000 -0.130048059
C   C49       1.0  0.57450  0.35090  0.64810  1.0000 0.0820702621
C   C50       1.0  0.64910  0.42550  0.14810  1.0000 0.0820702621
C   C51       1.0  0.58040  0.40780  0.02120  1.0000 0.0820702621
C   C52       1.0  0.59220  0.41960  0.52120  1.0000 0.0820702621
C   C53       1.0  0.94510  0.77930  0.84660  1.0000 -0.1394348906
C   C54       1.0  0.22070  0.05490  0.34660  1.0000 -0.1394348906
C   C55       1.0  0.77040  0.11540  0.89510  1.0000 0.1017504278
C   C56       1.0  0.88460  0.22960  0.39510  1.0000 0.1017504278
C   C57       1.0  0.98680  0.76820  0.82030  1.0000 0.0820702621
C   C58       1.0  0.23180  0.01320  0.32030  1.0000 0.0820702621
C   C59       1.0  0.65070  0.48570  0.99400  1.0000 -0.1394348906
C   C60       1.0  0.51430  0.34930  0.49400  1.0000 -0.1394348906
C   C61       1.0  0.30560  0.96820  0.75540  1.0000 -0.1483674178
C   C62       1.0  0.03180  0.69440  0.25540  1.0000 -0.1483674178
C   C63       1.0  0.80970  0.24990  0.82830  1.0000 -0.1483674178
C   C64       1.0  0.75010  0.19030  0.32830  1.0000 -0.1483674178
C   C65       1.0  0.54830  0.27910  0.68100  1.0000 -0.1394348906
C   C66       1.0  0.72090  0.45170  0.18100  1.0000 -0.1394348906
C   C67       1.0  0.87390  0.93570  0.97930  1.0000 -0.1483674178
C   C68       1.0  0.06430  0.12610  0.47930  1.0000 -0.1483674178
C   C69       1.0  0.91550  0.05010  0.90200  1.0000 0.0820702621
C   C70       1.0  0.94990  0.08450  0.40200  1.0000 0.0820702621
C   C71       1.0  0.89140  0.96460  0.90140  1.0000 -0.1394348906
C   C72       1.0  0.03540  0.10860  0.40140  1.0000 -0.1394348906
C   C73       1.0  0.21189  0.59211  0.75430  1.0000 0.3706140383
C   C74       1.0  0.40789  0.78811  0.25430  1.0000 0.3706140383
C   C75       1.0  0.28784  0.61816  0.79050  1.0000 0.0598304264
C   C76       1.0  0.38184  0.71216  0.29050  1.0000 0.0598304264
C   C77       1.0  0.15212  0.63628  0.69750  1.0000 0.3706140383
C   C78       1.0  0.36372  0.84788  0.19750  1.0000 0.3706140383
C   C79       1.0  0.16591  0.71389  0.66650  1.0000 0.0598304264
C   C80       1.0  0.28611  0.83409  0.16650  1.0000 0.0598304264
C   C81       1.0  0.65821  0.75599  0.53320  1.0000 0.3706140383
C   C82       1.0  0.24401  0.34179  0.03320  1.0000 0.3706140383
C   C83       1.0  0.80880  0.25200  0.69400  1.0000 0.0820702621
C   C84       1.0  0.74800  0.19120  0.19400  1.0000 0.0820702621
C   C85       1.0  0.06456  0.48024  0.72100  1.0000 0.3627071364
C   C86       1.0  0.51976  0.93544  0.22100  1.0000 0.3627071364
C   C87       1.0  0.72207  0.85533  0.58680  1.0000 0.3706140383
C   C88       1.0  0.14467  0.27793  0.08680  1.0000 0.3706140383
C   C89       1.0  0.89090  0.34810  0.69420  1.0000 -0.1626365574
C   C90       1.0  0.65190  0.10910  0.19420  1.0000 -0.1626365574
C   C91       1.0  0.90609  0.87071  0.55920  1.0000 0.0598304264
C   C92       1.0  0.12929  0.09391  0.05920  1.0000 0.0598304264
C   C93       1.0  0.57412  0.68048  0.50490  1.0000 0.0598304264
C   C94       1.0  0.31952  0.42588  0.00490  1.0000 0.0598304264
C   C95       1.0  0.88270  0.21070  0.74240  1.0000 0.0699842548
C   C96       1.0  0.78930  0.11730  0.24240  1.0000 0.0699842548
C   C97       1.0  0.81325  0.84375  0.55890  1.0000 0.3627071364
C   C98       1.0  0.15625  0.18675  0.05890  1.0000 0.3627071364
C   C99       1.0  0.50085  0.56835  0.45060  1.0000 0.0699842548
C   C100      1.0  0.43165  0.49915  0.95060  1.0000 0.0699842548
C   C101      1.0  0.36910  0.71310  0.79760  1.0000 -0.1483674178
C   C102      1.0  0.28690  0.63090  0.29760  1.0000 -0.1483674178
C   C103      1.0  0.71233  0.89967  0.61650  1.0000 0.0699842548
C   C104      1.0  0.10033  0.28767  0.11650  1.0000 0.0699842548
C   C105      1.0  0.26110  0.88030  0.64250  1.0000 0.0699842548
C   C106      1.0  0.11970  0.73890  0.14250  1.0000 0.0699842548
C   C107      1.0  0.58120  0.63660  0.47720  1.0000 -0.1394348906
C   C108      1.0  0.36340  0.41880  0.97720  1.0000 -0.1394348906
C   C109      1.0  0.09670  0.69390  0.63300  1.0000 -0.1394348906
C   C110      1.0  0.30610  0.90330  0.13300  1.0000 -0.1394348906
C   C111      1.0  0.43710  0.73310  0.83160  1.0000 0.0820702621
C   C112      1.0  0.26690  0.56290  0.33160  1.0000 0.0820702621
C   C113      1.0  0.97360  0.37640  0.71950  1.0000 0.0699842548
C   C114      1.0  0.62360  0.02640  0.21950  1.0000 0.0699842548
C   C115      1.0  0.63350  0.94370  0.63620  1.0000 0.0889428279
C   C116      1.0  0.05630  0.36650  0.13620  1.0000 0.0889428279
C   C117      1.0  0.02360  0.90040  0.52250  1.0000 0.0889428279
C   C118      1.0  0.09960  0.97640  0.02250  1.0000 0.0889428279
C   C119      1.0  0.63840  0.89900  0.60820  1.0000 -0.130048059
C   C120      1.0  0.10100  0.36160  0.10820  1.0000 -0.130048059
C   C121      1.0  0.35090  0.57450  0.85190  1.0000 0.0820702621
C   C122      1.0  0.42550  0.64910  0.35190  1.0000 0.0820702621
C   C123      1.0  0.40780  0.58040  0.47880  1.0000 0.0820702621
C   C124      1.0  0.41960  0.59220  0.97880  1.0000 0.0820702621
C   C125      1.0  0.77930  0.94510  0.65340  1.0000 -0.1394348906
C   C126      1.0  0.05490  0.22070  0.15340  1.0000 -0.1394348906
C   C127      1.0  0.11540  0.77040  0.60490  1.0000 0.1017504278
C   C128      1.0  0.22960  0.88460  0.10490  1.0000 0.1017504278
C   C129      1.0  0.76820  0.98680  0.67970  1.0000 0.0820702621
C   C130      1.0  0.01320  0.23180  0.17970  1.0000 0.0820702621
C   C131      1.0  0.48570  0.65070  0.50600  1.0000 -0.1394348906
C   C132      1.0  0.34930  0.51430  0.00600  1.0000 -0.1394348906
C   C133      1.0  0.96820  0.30560  0.74460  1.0000 -0.1483674178
C   C134      1.0  0.69440  0.03180  0.24460  1.0000 -0.1483674178
C   C135      1.0  0.24990  0.80970  0.67170  1.0000 -0.1483674178
C   C136      1.0  0.19030  0.75010  0.17170  1.0000 -0.1483674178
C   C137      1.0  0.27910  0.54830  0.81900  1.0000 -0.1394348906
C   C138      1.0  0.45170  0.72090  0.31900  1.0000 -0.1394348906
C   C139      1.0  0.93570  0.87390  0.52070  1.0000 -0.1483674178
C   C140      1.0  0.12610  0.06430  0.02070  1.0000 -0.1483674178
C   C141      1.0  0.05010  0.91550  0.59800  1.0000 0.0820702621
C   C142      1.0  0.08450  0.94990  0.09800  1.0000 0.0820702621
C   C143      1.0  0.96460  0.89140  0.59860  1.0000 -0.1394348906
C   C144      1.0  0.10860  0.03540  0.09860  1.0000 -0.1394348906
I   I1        1.0  0.67050  0.62250  0.63801  1.0000 -0.4381729232
I   I2        1.0  0.37750  0.32950  0.13801  1.0000 -0.4381729232
I   I3        1.0  0.02059  0.53473  0.81375  1.0000 -0.4381729232
I   I4        1.0  0.46527  0.97941  0.31375  1.0000 -0.4381729232
I   I5        1.0  0.95917  0.68699  0.70766  1.0000 -0.4381729232
I   I6        1.0  0.31301  0.04083  0.20766  1.0000 -0.4381729232
I   I7        1.0  0.85103  0.62433  0.56256  1.0000 -0.4381729232
I   I8        1.0  0.37567  0.14897  0.06256  1.0000 -0.4381729232
I   I9        1.0  0.12605  0.33251  0.90304  1.0000 -0.4653416143
I   I10       1.0  0.66749  0.87395  0.40304  1.0000 -0.4653416143
I   I11       1.0  0.93883  0.22995  0.01082  1.0000 -0.4488467888
I   I12       1.0  0.77005  0.06117  0.51082  1.0000 -0.4488467888
I   I13       1.0  0.62250  0.67050  0.86199  1.0000 -0.4381729232
I   I14       1.0  0.32950  0.37750  0.36199  1.0000 -0.4381729232
I   I15       1.0  0.53473  0.02059  0.68625  1.0000 -0.4381729232
I   I16       1.0  0.97941  0.46527  0.18625  1.0000 -0.4381729232
I   I17       1.0  0.68699  0.95917  0.79234  1.0000 -0.4381729232
I   I18       1.0  0.04083  0.31301  0.29234  1.0000 -0.4381729232
I   I19       1.0  0.62433  0.85103  0.93744  1.0000 -0.4381729232
I   I20       1.0  0.14897  0.37567  0.43744  1.0000 -0.4381729232
I   I21       1.0  0.33251  0.12605  0.59696  1.0000 -0.4628812538
I   I22       1.0  0.87395  0.66749  0.09696  1.0000 -0.4628812538
I   I23       1.0  0.22995  0.93883  0.48918  1.0000 -0.4488467888
I   I24       1.0  0.06117  0.77005  0.98918  1.0000 -0.4488467888
N   N1        1.0  0.54082  0.41498  0.04892  1.0000 -0.1902611002
N   N2        1.0  0.58502  0.45918  0.54892  1.0000 -0.1902611002
N   N3        1.0  0.18377  0.80343  0.78250  1.0000 -0.1773925291
N   N4        1.0  0.19657  0.81623  0.28250  1.0000 -0.1773925291
N   N5        1.0  0.92192  0.08088  0.94000  1.0000 -0.1902611002
N   N6        1.0  0.91912  0.07808  0.44000  1.0000 -0.1902611002
N   N7        1.0  0.49902  0.13458  0.74840  1.0000 -0.3910473278
N   N8        1.0  0.86542  0.50098  0.24840  1.0000 -0.3910473278
N   N9        1.0  0.86152  0.19508  0.89080  1.0000 -0.1902611002
N   N10       1.0  0.80492  0.13848  0.39080  1.0000 -0.1902611002
N   N11       1.0  0.66538  0.42962  0.64130  1.0000 -0.1773925291
N   N12       1.0  0.57038  0.33462  0.14130  1.0000 -0.1773925291
N   N13       1.0  0.78328  0.74272  0.97046  1.0000 -0.3910473278
N   N14       1.0  0.25728  0.21672  0.47046  1.0000 -0.3910473278
N   N15       1.0  0.66386  0.22514  0.77180  1.0000 -0.3910473278
N   N16       1.0  0.77486  0.33614  0.27180  1.0000 -0.3910473278
N   N17       1.0  0.98708  0.69712  0.82870  1.0000 -0.1902611002
N   N18       1.0  0.30288  0.01292  0.32870  1.0000 -0.1902611002
N   N19       1.0  0.79069  0.64371  0.93976  1.0000 -0.3910473278
N   N20       1.0  0.35629  0.20931  0.43976  1.0000 -0.3910473278
N   N21       1.0  0.88235  0.80745  0.91146  1.0000 -0.3910473278
N   N22       1.0  0.19255  0.11765  0.41146  1.0000 -0.3910473278
N   N23       1.0  0.54502  0.06898  0.80710  1.0000 -0.3910473278
N   N24       1.0  0.93102  0.45498  0.30710  1.0000 -0.3910473278
N   N25       1.0  0.41498  0.54082  0.45108  1.0000 -0.1902611002
N   N26       1.0  0.45918  0.58502  0.95108  1.0000 -0.1902611002
N   N27       1.0  0.80343  0.18377  0.71750  1.0000 -0.1773925291
N   N28       1.0  0.81623  0.19657  0.21750  1.0000 -0.1773925291
N   N29       1.0  0.08088  0.92192  0.56000  1.0000 -0.1902611002
N   N30       1.0  0.07808  0.91912  0.06000  1.0000 -0.1902611002
N   N31       1.0  0.13458  0.49902  0.75160  1.0000 -0.3910473278
N   N32       1.0  0.50098  0.86542  0.25160  1.0000 -0.3910473278
N   N33       1.0  0.19508  0.86152  0.60920  1.0000 -0.1902611002
N   N34       1.0  0.13848  0.80492  0.10920  1.0000 -0.1902611002
N   N35       1.0  0.42962  0.66538  0.85870  1.0000 -0.1773925291
N   N36       1.0  0.33462  0.57038  0.35870  1.0000 -0.1773925291
N   N37       1.0  0.74272  0.78328  0.52954  1.0000 -0.3910473278
N   N38       1.0  0.21672  0.25728  0.02954  1.0000 -0.3910473278
N   N39       1.0  0.22514  0.66386  0.72820  1.0000 -0.3910473278
N   N40       1.0  0.33614  0.77486  0.22820  1.0000 -0.3910473278
N   N41       1.0  0.69712  0.98708  0.67130  1.0000 -0.1902611002
N   N42       1.0  0.01292  0.30288  0.17130  1.0000 -0.1902611002
N   N43       1.0  0.64371  0.79069  0.56024  1.0000 -0.3910473278
N   N44       1.0  0.20931  0.35629  0.06024  1.0000 -0.3953507559
N   N45       1.0  0.80745  0.88235  0.58854  1.0000 -0.3910473278
N   N46       1.0  0.11765  0.19255  0.08854  1.0000 -0.3910473278
N   N47       1.0  0.06898  0.54502  0.69290  1.0000 -0.3910473278
N   N48       1.0  0.45498  0.93102  0.19290  1.0000 -0.3910473278
