# DDEC6 charges by PACMAN v1.1 (https://github.com/mtap-research/PACMAN-charge/)
data_2016[Zn][ths]3[FSR]2
_chemical_formula_sum              "Zn12 H96 C144 I24 N48"
_cell_length_a       18.9159
_cell_length_b       18.9159
_cell_length_c       31.043
_cell_angle_alpha    79.6046
_cell_angle_beta     100.395
_cell_angle_gamma    134.129

_symmetry_space_group_name_H-M    "P 1"
_symmetry_Int_Tables_number       1

loop_
  _symmetry_equiv_pos_as_xyz
  'x, y, z'

loop_
  _atom_site_type_symbol
  _atom_site_label
  _atom_site_symmetry_multiplicity
  _atom_site_fract_x
  _atom_site_fract_y
  _atom_site_fract_z
  _atom_site_occupancy
  _atom_site_charge
Zn  Zn1       1.0  0.71536  0.54798  0.09243  1.0000 0.4693652959
Zn  Zn2       1.0  0.45202  0.28464  0.59243  1.0000 0.4693652959
Zn  Zn3       1.0  0.03287  0.69523  0.26885  1.0000 0.4430661694
Zn  Zn4       1.0  0.30477  0.96713  0.76885  1.0000 0.4430661694
Zn  Zn5       1.0  0.97401  0.22567  0.44090  1.0000 0.4693652959
Zn  Zn6       1.0  0.77433  0.02599  0.94090  1.0000 0.4693652959
Zn  Zn7       1.0  0.54798  0.71536  0.40757  1.0000 0.4693652959
Zn  Zn8       1.0  0.28464  0.45202  0.90757  1.0000 0.4693652959
Zn  Zn9       1.0  0.69523  0.03287  0.23115  1.0000 0.4430661694
Zn  Zn10      1.0  0.96713  0.30477  0.73115  1.0000 0.4430661694
Zn  Zn11      1.0  0.22567  0.97401  0.05910  1.0000 0.4693652959
Zn  Zn12      1.0  0.02599  0.77433  0.55910  1.0000 0.4693652959
H   H1        1.0  0.82400  0.51040  0.16340  1.0000 0.1102316496
H   H2        1.0  0.48960  0.17600  0.66340  1.0000 0.1102316496
H   H3        1.0  0.54430  0.34410  0.12460  1.0000 0.1038109924
H   H4        1.0  0.65590  0.45570  0.62460  1.0000 0.1038109924
H   H5        1.0  0.78770  0.40150  0.22260  1.0000 0.1309420463
H   H6        1.0  0.59850  0.21230  0.72260  1.0000 0.1309420463
H   H7        1.0  0.49970  0.22850  0.18120  1.0000 0.1309420463
H   H8        1.0  0.77150  0.50030  0.68120  1.0000 0.1309420463
H   H9        1.0  0.33510  0.04490  0.23790  1.0000 0.1382636781
H   H10       1.0  0.95510  0.66490  0.73790  1.0000 0.1382636781
H   H11       1.0  0.39010  0.90110  0.32510  1.0000 0.1382636781
H   H12       1.0  0.09890  0.60990  0.82510  1.0000 0.1382636781
H   H13       1.0  0.63400  0.06280  0.37880  1.0000 0.1382636781
H   H14       1.0  0.93720  0.36600  0.87880  1.0000 0.1382636781
H   H15       1.0  0.84290  0.30190  0.30460  1.0000 0.1240908027
H   H16       1.0  0.69810  0.15710  0.80460  1.0000 0.1240908027
H   H17       1.0  0.17030  0.90290  0.23640  1.0000 0.1038109924
H   H18       1.0  0.09710  0.82970  0.73640  1.0000 0.1038109924
H   H19       1.0  0.22580  0.75940  0.31590  1.0000 0.1102316496
H   H20       1.0  0.24060  0.77420  0.81590  1.0000 0.1102316496
H   H21       1.0  0.75790  0.08950  0.42630  1.0000 0.1102316496
H   H22       1.0  0.91050  0.24210  0.92630  1.0000 0.1102316496
H   H23       1.0  0.95970  0.32010  0.35360  1.0000 0.1102316496
H   H24       1.0  0.67990  0.04030  0.85360  1.0000 0.1102316496
H   H25       1.0  0.94420  0.09920  0.38250  1.0000 0.1102316496
H   H26       1.0  0.90080  0.05580  0.88250  1.0000 0.1102316496
H   H27       1.0  0.90100  0.04840  0.50650  1.0000 0.1102316496
H   H28       1.0  0.95160  0.09900  0.00650  1.0000 0.1102316496
H   H29       1.0  0.91120  0.95900  0.38270  1.0000 0.1382636781
H   H30       1.0  0.04100  0.08880  0.88270  1.0000 0.1382636781
H   H31       1.0  0.85730  0.90010  0.50980  1.0000 0.1382636781
H   H32       1.0  0.09990  0.14270  0.00980  1.0000 0.1382636781
H   H33       1.0  0.02400  0.86660  0.37070  1.0000 0.1309420463
H   H34       1.0  0.13340  0.97600  0.87070  1.0000 0.1309420463
H   H35       1.0  0.80310  0.57230  0.38030  1.0000 0.1382636781
H   H36       1.0  0.42770  0.19690  0.88030  1.0000 0.1382636781
H   H37       1.0  0.65020  0.63060  0.52250  1.0000 0.1382636781
H   H38       1.0  0.36940  0.34980  0.02250  1.0000 0.1382636781
H   H39       1.0  0.68520  0.47500  0.47430  1.0000 0.1382636781
H   H40       1.0  0.52500  0.31480  0.97430  1.0000 0.1382636781
H   H41       1.0  0.08540  0.85000  0.31910  1.0000 0.1038109924
H   H42       1.0  0.15000  0.91460  0.81910  1.0000 0.1038109924
H   H43       1.0  0.87920  0.56860  0.33260  1.0000 0.1102316496
H   H44       1.0  0.43140  0.12080  0.83260  1.0000 0.1102316496
H   H45       1.0  0.53380  0.49160  0.56650  1.0000 0.1102316496
H   H46       1.0  0.50840  0.46620  0.06650  1.0000 0.1102316496
H   H47       1.0  0.57250  0.34210  0.52030  1.0000 0.1102316496
H   H48       1.0  0.65790  0.42750  0.02030  1.0000 0.1102316496
H   H49       1.0  0.51040  0.82400  0.33660  1.0000 0.1102316496
H   H50       1.0  0.17600  0.48960  0.83660  1.0000 0.1102316496
H   H51       1.0  0.34410  0.54430  0.37540  1.0000 0.1038109924
H   H52       1.0  0.45570  0.65590  0.87540  1.0000 0.1038109924
H   H53       1.0  0.40150  0.78770  0.27740  1.0000 0.1309420463
H   H54       1.0  0.21230  0.59850  0.77740  1.0000 0.1309420463
H   H55       1.0  0.22850  0.49970  0.31880  1.0000 0.1309420463
H   H56       1.0  0.50030  0.77150  0.81880  1.0000 0.1309420463
H   H57       1.0  0.04490  0.33510  0.26210  1.0000 0.1382636781
H   H58       1.0  0.66490  0.95510  0.76210  1.0000 0.1382636781
H   H59       1.0  0.90110  0.39010  0.17490  1.0000 0.1382636781
H   H60       1.0  0.60990  0.09890  0.67490  1.0000 0.1382636781
H   H61       1.0  0.06280  0.63400  0.12120  1.0000 0.1382636781
H   H62       1.0  0.36600  0.93720  0.62120  1.0000 0.1382636781
H   H63       1.0  0.30190  0.84290  0.19540  1.0000 0.1240908027
H   H64       1.0  0.15710  0.69810  0.69540  1.0000 0.1240908027
H   H65       1.0  0.90290  0.17030  0.26360  1.0000 0.1038109924
H   H66       1.0  0.82970  0.09710  0.76360  1.0000 0.1038109924
H   H67       1.0  0.75940  0.22580  0.18410  1.0000 0.1102316496
H   H68       1.0  0.77420  0.24060  0.68410  1.0000 0.1102316496
H   H69       1.0  0.08950  0.75790  0.07370  1.0000 0.1102316496
H   H70       1.0  0.24210  0.91050  0.57370  1.0000 0.1102316496
H   H71       1.0  0.32010  0.95970  0.14640  1.0000 0.1102316496
H   H72       1.0  0.04030  0.67990  0.64640  1.0000 0.1102316496
H   H73       1.0  0.09920  0.94420  0.11750  1.0000 0.1102316496
H   H74       1.0  0.05580  0.90080  0.61750  1.0000 0.1102316496
H   H75       1.0  0.04840  0.90100  0.99350  1.0000 0.1102316496
H   H76       1.0  0.09900  0.95160  0.49350  1.0000 0.1102316496
H   H77       1.0  0.95900  0.91120  0.11730  1.0000 0.1382636781
H   H78       1.0  0.08880  0.04100  0.61730  1.0000 0.1382636781
H   H79       1.0  0.90010  0.85730  0.99020  1.0000 0.1382636781
H   H80       1.0  0.14270  0.09990  0.49020  1.0000 0.1382636781
H   H81       1.0  0.86660  0.02400  0.12930  1.0000 0.1309420463
H   H82       1.0  0.97600  0.13340  0.62930  1.0000 0.1309420463
H   H83       1.0  0.57230  0.80310  0.11970  1.0000 0.1382636781
H   H84       1.0  0.19690  0.42770  0.61970  1.0000 0.1382636781
H   H85       1.0  0.63060  0.65020  0.97750  1.0000 0.1382636781
H   H86       1.0  0.34980  0.36940  0.47750  1.0000 0.1382636781
H   H87       1.0  0.47500  0.68520  0.02570  1.0000 0.1382636781
H   H88       1.0  0.31480  0.52500  0.52570  1.0000 0.1382636781
H   H89       1.0  0.85000  0.08540  0.18090  1.0000 0.1038109924
H   H90       1.0  0.91460  0.15000  0.68090  1.0000 0.1038109924
H   H91       1.0  0.56860  0.87920  0.16740  1.0000 0.1102316496
H   H92       1.0  0.12080  0.43140  0.66740  1.0000 0.1102316496
H   H93       1.0  0.49160  0.53380  0.93350  1.0000 0.1102316496
H   H94       1.0  0.46620  0.50840  0.43350  1.0000 0.1102316496
H   H95       1.0  0.34210  0.57250  0.97970  1.0000 0.1102316496
H   H96       1.0  0.42750  0.65790  0.47970  1.0000 0.1102316496
C   C1        1.0  0.75820  0.45360  0.16760  1.0000 0.0796163771
C   C2        1.0  0.54640  0.24180  0.66760  1.0000 0.0796163771
C   C3        1.0  0.59340  0.35520  0.14470  1.0000 0.0796163771
C   C4        1.0  0.64480  0.40660  0.64470  1.0000 0.0796163771
C   C5        1.0  0.73710  0.38810  0.20280  1.0000 -0.1598405848
C   C6        1.0  0.61190  0.26290  0.70280  1.0000 -0.1598405848
C   C7        1.0  0.56600  0.28540  0.17850  1.0000 -0.139287874
C   C8        1.0  0.71460  0.43400  0.67850  1.0000 -0.139287874
C   C9        1.0  0.63870  0.30070  0.20890  1.0000 0.0615834683
C   C10       1.0  0.69930  0.36130  0.70890  1.0000 0.0615834683
C   C11       1.0  0.60990  0.22550  0.24570  1.0000 0.3715448798
C   C12       1.0  0.77450  0.39010  0.74570  1.0000 0.3715448798
C   C13       1.0  0.48920  0.07960  0.28160  1.0000 0.3601508857
C   C14       1.0  0.92040  0.51080  0.78160  1.0000 0.3601508857
C   C15       1.0  0.64850  0.16670  0.30480  1.0000 0.3715448798
C   C16       1.0  0.83330  0.35150  0.80480  1.0000 0.3715448798
C   C17       1.0  0.38340  0.99060  0.28210  1.0000 0.0695955624
C   C18       1.0  0.00940  0.61660  0.78210  1.0000 0.0695955624
C   C19       1.0  0.72480  0.17920  0.33630  1.0000 0.0544790336
C   C20       1.0  0.82080  0.27520  0.83630  1.0000 0.0544790336
C   C21       1.0  0.31440  0.98840  0.25490  1.0000 -0.1505467538
C   C22       1.0  0.01160  0.68560  0.75490  1.0000 -0.1505467538
C   C23       1.0  0.34750  0.90290  0.30590  1.0000 -0.1598405848
C   C24       1.0  0.09710  0.65250  0.80590  1.0000 -0.1598405848
C   C25       1.0  0.69980  0.11580  0.37300  1.0000 -0.139287874
C   C26       1.0  0.88420  0.30020  0.87300  1.0000 -0.139287874
C   C27       1.0  0.82390  0.25750  0.32910  1.0000 -0.1505467538
C   C28       1.0  0.74250  0.17610  0.82910  1.0000 -0.1505467538
C   C29       1.0  0.21590  0.90250  0.25350  1.0000 0.0796163771
C   C30       1.0  0.09750  0.78410  0.75350  1.0000 0.0796163771
C   C31       1.0  0.24830  0.81850  0.30110  1.0000 0.0796163771
C   C32       1.0  0.18150  0.75170  0.80110  1.0000 0.0796163771
C   C33       1.0  0.77500  0.13280  0.40150  1.0000 0.0903203757
C   C34       1.0  0.86720  0.22500  0.90150  1.0000 0.0903203757
C   C35       1.0  0.89340  0.26820  0.35890  1.0000 0.0695955624
C   C36       1.0  0.73180  0.10660  0.85890  1.0000 0.0796163771
C   C37       1.0  0.92830  0.05950  0.40860  1.0000 0.0796163771
C   C38       1.0  0.94050  0.07170  0.90860  1.0000 0.0796163771
C   C39       1.0  0.90190  0.02910  0.48120  1.0000 0.0796163771
C   C40       1.0  0.97090  0.09810  0.98120  1.0000 0.0796163771
C   C41       1.0  0.90720  0.97500  0.40820  1.0000 -0.139287874
C   C42       1.0  0.02500  0.09280  0.90820  1.0000 -0.139287874
C   C43       1.0  0.87630  0.94030  0.48370  1.0000 -0.1505467538
C   C44       1.0  0.05970  0.12370  0.98370  1.0000 -0.1505467538
C   C45       1.0  0.87980  0.91280  0.44590  1.0000 0.0615834683
C   C46       1.0  0.08720  0.12020  0.94590  1.0000 0.0615834683
C   C47       1.0  0.85320  0.81860  0.44530  1.0000 0.3752406658
C   C48       1.0  0.18140  0.14680  0.94530  1.0000 0.3752406658
C   C49       1.0  0.86180  0.72720  0.41310  1.0000 0.3715448798
C   C50       1.0  0.27280  0.13820  0.91310  1.0000 0.3715448798
C   C51       1.0  0.76010  0.65790  0.46630  1.0000 0.3715448798
C   C52       1.0  0.34210  0.23990  0.96630  1.0000 0.3715448798
C   C53       1.0  0.90410  0.72010  0.38080  1.0000 0.0695955624
C   C54       1.0  0.27990  0.09590  0.88080  1.0000 0.0695955624
C   C55       1.0  0.68240  0.56980  0.49410  1.0000 0.0615834683
C   C56       1.0  0.43020  0.31760  0.99410  1.0000 0.0615834683
C   C57       1.0  0.99080  0.80440  0.36250  1.0000 -0.1255137204
C   C58       1.0  0.19560  0.00920  0.86250  1.0000 -0.1255137204
C   C59       1.0  0.86100  0.63080  0.36870  1.0000 -0.139287874
C   C60       1.0  0.36920  0.13900  0.86870  1.0000 -0.139287874
C   C61       1.0  0.63540  0.57260  0.52150  1.0000 -0.1505467538
C   C62       1.0  0.42740  0.36460  0.02150  1.0000 -0.1505467538
C   C63       1.0  0.65640  0.48040  0.49320  1.0000 -0.139287874
C   C64       1.0  0.51960  0.34360  0.99320  1.0000 -0.139287874
C   C65       1.0  0.02690  0.79370  0.33130  1.0000 0.0615834683
C   C66       1.0  0.20630  0.97310  0.83130  1.0000 0.0615834683
C   C67       1.0  0.90590  0.62990  0.33870  1.0000 0.0903203757
C   C68       1.0  0.37010  0.09410  0.83870  1.0000 0.0903203757
C   C69       1.0  0.56510  0.48850  0.54810  1.0000 0.0796163771
C   C70       1.0  0.51150  0.43490  0.04810  1.0000 0.0796163771
C   C71       1.0  0.58800  0.40060  0.52050  1.0000 0.0695955624
C   C72       1.0  0.59940  0.41200  0.02050  1.0000 0.0695955624
C   C73       1.0  0.45360  0.75820  0.33240  1.0000 0.0796163771
C   C74       1.0  0.24180  0.54640  0.83240  1.0000 0.0796163771
C   C75       1.0  0.35520  0.59340  0.35530  1.0000 0.0796163771
C   C76       1.0  0.40660  0.64480  0.85530  1.0000 0.0796163771
C   C77       1.0  0.38810  0.73710  0.29720  1.0000 -0.1598405848
C   C78       1.0  0.26290  0.61190  0.79720  1.0000 -0.1598405848
C   C79       1.0  0.28540  0.56600  0.32150  1.0000 -0.139287874
C   C80       1.0  0.43400  0.71460  0.82150  1.0000 -0.139287874
C   C81       1.0  0.30070  0.63870  0.29110  1.0000 0.0615834683
C   C82       1.0  0.36130  0.69930  0.79110  1.0000 0.0615834683
C   C83       1.0  0.22550  0.60990  0.25430  1.0000 0.3715448798
C   C84       1.0  0.39010  0.77450  0.75430  1.0000 0.3715448798
C   C85       1.0  0.07960  0.48920  0.21840  1.0000 0.3601508857
C   C86       1.0  0.51080  0.92040  0.71840  1.0000 0.3601508857
C   C87       1.0  0.16670  0.64850  0.19520  1.0000 0.3715448798
C   C88       1.0  0.35150  0.83330  0.69520  1.0000 0.3715448798
C   C89       1.0  0.99060  0.38340  0.21790  1.0000 0.0695955624
C   C90       1.0  0.61660  0.00940  0.71790  1.0000 0.0695955624
C   C91       1.0  0.17920  0.72480  0.16370  1.0000 0.0544790336
C   C92       1.0  0.27520  0.82080  0.66370  1.0000 0.0615834683
C   C93       1.0  0.98840  0.31440  0.24510  1.0000 -0.1505467538
C   C94       1.0  0.68560  0.01160  0.74510  1.0000 -0.1505467538
C   C95       1.0  0.90290  0.34750  0.19410  1.0000 -0.1598405848
C   C96       1.0  0.65250  0.09710  0.69410  1.0000 -0.1598405848
C   C97       1.0  0.11580  0.69980  0.12700  1.0000 -0.139287874
C   C98       1.0  0.30020  0.88420  0.62700  1.0000 -0.139287874
C   C99       1.0  0.25750  0.82390  0.17090  1.0000 -0.1505467538
C   C100      1.0  0.17610  0.74250  0.67090  1.0000 -0.1505467538
C   C101      1.0  0.90250  0.21590  0.24650  1.0000 0.0695955624
C   C102      1.0  0.78410  0.09750  0.74650  1.0000 0.0695955624
C   C103      1.0  0.81850  0.24830  0.19890  1.0000 0.0796163771
C   C104      1.0  0.75170  0.18150  0.69890  1.0000 0.0796163771
C   C105      1.0  0.13280  0.77500  0.09850  1.0000 0.0903203757
C   C106      1.0  0.22500  0.86720  0.59850  1.0000 0.0903203757
C   C107      1.0  0.26820  0.89340  0.14110  1.0000 0.0695955624
C   C108      1.0  0.10660  0.73180  0.64110  1.0000 0.0695955624
C   C109      1.0  0.05950  0.92830  0.09140  1.0000 0.0796163771
C   C110      1.0  0.07170  0.94050  0.59140  1.0000 0.0796163771
C   C111      1.0  0.02910  0.90190  0.01880  1.0000 0.0796163771
C   C112      1.0  0.09810  0.97090  0.51880  1.0000 0.0796163771
C   C113      1.0  0.97500  0.90720  0.09180  1.0000 -0.139287874
C   C114      1.0  0.09280  0.02500  0.59180  1.0000 -0.139287874
C   C115      1.0  0.94030  0.87630  0.01630  1.0000 -0.1505467538
C   C116      1.0  0.12370  0.05970  0.51630  1.0000 -0.1505467538
C   C117      1.0  0.91280  0.87980  0.05410  1.0000 0.0615834683
C   C118      1.0  0.12020  0.08720  0.55410  1.0000 0.0615834683
C   C119      1.0  0.81860  0.85320  0.05470  1.0000 0.3752406658
C   C120      1.0  0.14680  0.18140  0.55470  1.0000 0.3752406658
C   C121      1.0  0.72720  0.86180  0.08690  1.0000 0.3715448798
C   C122      1.0  0.13820  0.27280  0.58690  1.0000 0.3715448798
C   C123      1.0  0.65790  0.76010  0.03370  1.0000 0.3715448798
C   C124      1.0  0.23990  0.34210  0.53370  1.0000 0.3715448798
C   C125      1.0  0.72010  0.90410  0.11920  1.0000 0.0695955624
C   C126      1.0  0.09590  0.27990  0.61920  1.0000 0.0695955624
C   C127      1.0  0.56980  0.68240  0.00590  1.0000 0.0615834683
C   C128      1.0  0.31760  0.43020  0.50590  1.0000 0.0615834683
C   C129      1.0  0.80440  0.99080  0.13750  1.0000 -0.1255137204
C   C130      1.0  0.00920  0.19560  0.63750  1.0000 -0.1255137204
C   C131      1.0  0.63080  0.86100  0.13130  1.0000 -0.139287874
C   C132      1.0  0.13900  0.36920  0.63130  1.0000 -0.139287874
C   C133      1.0  0.57260  0.63540  0.97850  1.0000 -0.1505467538
C   C134      1.0  0.36460  0.42740  0.47850  1.0000 -0.1505467538
C   C135      1.0  0.48040  0.65640  0.00680  1.0000 -0.139287874
C   C136      1.0  0.34360  0.51960  0.50680  1.0000 -0.139287874
C   C137      1.0  0.79370  0.02690  0.16870  1.0000 0.0615834683
C   C138      1.0  0.97310  0.20630  0.66870  1.0000 0.0615834683
C   C139      1.0  0.62990  0.90590  0.16130  1.0000 0.0903203757
C   C140      1.0  0.09410  0.37010  0.66130  1.0000 0.0903203757
C   C141      1.0  0.48850  0.56510  0.95190  1.0000 0.0796163771
C   C142      1.0  0.43490  0.51150  0.45190  1.0000 0.0796163771
C   C143      1.0  0.40060  0.58800  0.97950  1.0000 0.0695955624
C   C144      1.0  0.41200  0.59940  0.47950  1.0000 0.0695955624
I   I1        1.0  0.86676  0.62594  0.05554  1.0000 -0.4453718542
I   I2        1.0  0.37406  0.13324  0.55554  1.0000 -0.4453718542
I   I3        1.0  0.68153  0.62865  0.13106  1.0000 -0.438312914
I   I4        1.0  0.37135  0.31847  0.63106  1.0000 -0.438312914
I   I5        1.0  0.97110  0.72560  0.19512  1.0000 -0.4246326117
I   I6        1.0  0.27440  0.02890  0.69512  1.0000 -0.4246326117
I   I7        1.0  0.99652  0.53702  0.29116  1.0000 -0.438312914
I   I8        1.0  0.46298  0.00348  0.79116  1.0000 -0.438312914
I   I9        1.0  0.13477  0.34085  0.40304  1.0000 -0.4656191646
I   I10       1.0  0.65915  0.86523  0.90304  1.0000 -0.4656191646
I   I11       1.0  0.94762  0.24550  0.51316  1.0000 -0.438312914
I   I12       1.0  0.75450  0.05238  0.01316  1.0000 -0.4453718542
I   I13       1.0  0.62594  0.86676  0.44446  1.0000 -0.4453718542
I   I14       1.0  0.13324  0.37406  0.94446  1.0000 -0.4453718542
I   I15       1.0  0.62865  0.68153  0.36894  1.0000 -0.438312914
I   I16       1.0  0.31847  0.37135  0.86894  1.0000 -0.438312914
I   I17       1.0  0.72560  0.97110  0.30488  1.0000 -0.4246326117
I   I18       1.0  0.02890  0.27440  0.80488  1.0000 -0.4246326117
I   I19       1.0  0.53702  0.99652  0.20884  1.0000 -0.438312914
I   I20       1.0  0.00348  0.46298  0.70884  1.0000 -0.438312914
I   I21       1.0  0.34085  0.13477  0.09696  1.0000 -0.4656191646
I   I22       1.0  0.86523  0.65915  0.59696  1.0000 -0.464843589
I   I23       1.0  0.24550  0.94762  0.98684  1.0000 -0.438312914
I   I24       1.0  0.05238  0.75450  0.48684  1.0000 -0.438312914
N   N1        1.0  0.54210  0.40390  0.54770  1.0000 -0.190138169
N   N2        1.0  0.59610  0.45790  0.04770  1.0000 -0.190138169
N   N3        1.0  0.68790  0.43930  0.13880  1.0000 -0.1790673103
N   N4        1.0  0.56070  0.31210  0.63880  1.0000 -0.1790673103
N   N5        1.0  0.51300  0.14820  0.24890  1.0000 -0.3924672483
N   N6        1.0  0.85180  0.48700  0.74890  1.0000 -0.3924672483
N   N7        1.0  0.68070  0.23730  0.27190  1.0000 -0.3832181721
N   N8        1.0  0.76270  0.31930  0.77190  1.0000 -0.3832181721
N   N9        1.0  0.55290  0.08610  0.31090  1.0000 -0.3924672483
N   N10       1.0  0.91390  0.44710  0.81090  1.0000 -0.3924672483
N   N11       1.0  0.18390  0.81930  0.27570  1.0000 -0.1790673103
N   N12       1.0  0.18070  0.81610  0.77570  1.0000 -0.1790673103
N   N13       1.0  0.87020  0.20760  0.39510  1.0000 -0.1790673103
N   N14       1.0  0.79240  0.12980  0.89510  1.0000 -0.1790673103
N   N15       1.0  0.98150  0.70650  0.31830  1.0000 -0.190138169
N   N16       1.0  0.29350  0.01850  0.81830  1.0000 -0.190138169
N   N17       1.0  0.92770  0.08910  0.44460  1.0000 -0.190138169
N   N18       1.0  0.91090  0.07230  0.94460  1.0000 -0.190138169
N   N19       1.0  0.89420  0.81600  0.41510  1.0000 -0.3989244579
N   N20       1.0  0.18400  0.10580  0.91510  1.0000 -0.3989244579
N   N21       1.0  0.78900  0.74380  0.47280  1.0000 -0.3924672483
N   N22       1.0  0.25620  0.21100  0.97280  1.0000 -0.3924672483
N   N23       1.0  0.79230  0.64550  0.43730  1.0000 -0.3832181721
N   N24       1.0  0.35450  0.20770  0.93730  1.0000 -0.3832181721
N   N25       1.0  0.40390  0.54210  0.95230  1.0000 -0.190138169
N   N26       1.0  0.45790  0.59610  0.45230  1.0000 -0.190138169
N   N27       1.0  0.43930  0.68790  0.36120  1.0000 -0.1790673103
N   N28       1.0  0.31210  0.56070  0.86120  1.0000 -0.1790673103
N   N29       1.0  0.14820  0.51300  0.25110  1.0000 -0.3924672483
N   N30       1.0  0.48700  0.85180  0.75110  1.0000 -0.3924672483
N   N31       1.0  0.23730  0.68070  0.22810  1.0000 -0.3832181721
N   N32       1.0  0.31930  0.76270  0.72810  1.0000 -0.3832181721
N   N33       1.0  0.08610  0.55290  0.18910  1.0000 -0.3924672483
N   N34       1.0  0.44710  0.91390  0.68910  1.0000 -0.3924672483
N   N35       1.0  0.81930  0.18390  0.22430  1.0000 -0.1790673103
N   N36       1.0  0.81610  0.18070  0.72430  1.0000 -0.1790673103
N   N37       1.0  0.20760  0.87020  0.10490  1.0000 -0.1790673103
N   N38       1.0  0.12980  0.79240  0.60490  1.0000 -0.1790673103
N   N39       1.0  0.70650  0.98150  0.18170  1.0000 -0.190138169
N   N40       1.0  0.01850  0.29350  0.68170  1.0000 -0.190138169
N   N41       1.0  0.08910  0.92770  0.05540  1.0000 -0.190138169
N   N42       1.0  0.07230  0.91090  0.55540  1.0000 -0.190138169
N   N43       1.0  0.81600  0.89420  0.08490  1.0000 -0.3989244579
N   N44       1.0  0.10580  0.18400  0.58490  1.0000 -0.3989244579
N   N45       1.0  0.74380  0.78900  0.02720  1.0000 -0.3924672483
N   N46       1.0  0.21100  0.25620  0.52720  1.0000 -0.3924672483
N   N47       1.0  0.64550  0.79230  0.06270  1.0000 -0.3832181721
N   N48       1.0  0.20770  0.35450  0.56270  1.0000 -0.3832181721
