# DDEC6 charges by PACMAN v1.1 (https://github.com/mtap-research/PACMAN-charge/)
data_2016[Co][pcu]3[FSR]2
_chemical_formula_sum              "Co2 H40 C64 N8 O14"
_cell_length_a       10.142
_cell_length_b       13.222
_cell_length_c       14.872
_cell_angle_alpha    109.018
_cell_angle_beta     101.882
_cell_angle_gamma    98.999

_symmetry_space_group_name_H-M    "P 1"
_symmetry_Int_Tables_number       1

loop_
  _symmetry_equiv_pos_as_xyz
  'x, y, z'

loop_
  _atom_site_type_symbol
  _atom_site_label
  _atom_site_symmetry_multiplicity
  _atom_site_fract_x
  _atom_site_fract_y
  _atom_site_fract_z
  _atom_site_occupancy
  _atom_site_charge
Co  Co1       1.0  0.53003  0.51470  0.14843  1.0000 0.8508879142
Co  Co2       1.0  0.46997  0.48530  0.85157  1.0000 0.8508879142
H   H1        1.0  0.80580  0.69320  0.24780  1.0000 0.1189597352
H   H2        1.0  0.19420  0.30680  0.75220  1.0000 0.1189597352
H   H3        1.0  0.89180  0.87580  0.34020  1.0000 0.1472459271
H   H4        1.0  0.10820  0.12420  0.65980  1.0000 0.1472459271
H   H5        1.0  0.49970  0.90470  0.31170  1.0000 0.1472459271
H   H6        1.0  0.50030  0.09530  0.68830  1.0000 0.1472459271
H   H7        1.0  0.42820  0.72240  0.22400  1.0000 0.1189597352
H   H8        1.0  0.57180  0.27760  0.77600  1.0000 0.1189597352
H   H9        1.0  0.03120  0.28760  0.45790  1.0000 0.1189597352
H   H10       1.0  0.96880  0.71240  0.54210  1.0000 0.1189597352
H   H11       1.0  0.04960  0.46050  0.56810  1.0000 0.140037098
H   H12       1.0  0.95040  0.53950  0.43190  1.0000 0.140037098
H   H13       1.0  0.78120  0.32940  0.68640  1.0000 0.1472459271
H   H14       1.0  0.21880  0.67060  0.31360  1.0000 0.1472459271
H   H15       1.0  0.75720  0.15870  0.57210  1.0000 0.1277563817
H   H16       1.0  0.24280  0.84130  0.42790  1.0000 0.1277563817
H   H17       1.0  0.17970  0.56040  0.73080  1.0000 0.1472459271
H   H18       1.0  0.82030  0.43960  0.26920  1.0000 0.1472459271
H   H19       1.0  0.32000  0.73470  0.78840  1.0000 0.1277563817
H   H20       1.0  0.68000  0.26530  0.21160  1.0000 0.1277563817
H   H21       1.0  0.99140  0.86410  0.80940  1.0000 0.1277563817
H   H22       1.0  0.00860  0.13590  0.19060  1.0000 0.1277563817
H   H23       1.0  0.85030  0.69060  0.74410  1.0000 0.140037098
H   H24       1.0  0.14970  0.30940  0.25590  1.0000 0.140037098
H   H25       1.0  0.47830  0.12010  0.92270  1.0000 0.1472459271
H   H26       1.0  0.52170  0.87990  0.07730  1.0000 0.1472459271
H   H27       1.0  0.57900  0.29950  0.00910  1.0000 0.1108088317
H   H28       1.0  0.42100  0.70050  0.99090  1.0000 0.1108088317
H   H29       1.0  0.27430  0.34270  0.12290  1.0000 0.1108088317
H   H30       1.0  0.72570  0.65730  0.87710  1.0000 0.1108088317
H   H31       1.0  0.16740  0.16060  0.04490  1.0000 0.1472459271
H   H32       1.0  0.83260  0.83940  0.95510  1.0000 0.1472459271
H   H33       1.0  0.69030  0.46660  0.44530  1.0000 0.1277563817
H   H34       1.0  0.30970  0.53340  0.55470  1.0000 0.1277563817
H   H35       1.0  0.32370  0.53950  0.40370  1.0000 0.1277563817
H   H36       1.0  0.67630  0.46050  0.59630  1.0000 0.1277563817
H   H37       1.0  0.95890  0.52990  0.15250  1.0000 0.1189597352
H   H38       1.0  0.04110  0.47010  0.84750  1.0000 0.1189597352
H   H39       1.0  0.18020  0.53410  0.13730  1.0000 0.1277563817
H   H40       1.0  0.81980  0.46590  0.86270  1.0000 0.1277563817
C   C1        1.0  0.74330  0.73680  0.26100  1.0000 0.0863082649
C   C2        1.0  0.25670  0.26320  0.73900  1.0000 0.0863082649
C   C3        1.0  0.79630  0.84660  0.31660  1.0000 -0.1888754992
C   C4        1.0  0.20370  0.15340  0.68340  1.0000 -0.1888754992
C   C5        1.0  0.70580  0.91370  0.33710  1.0000 0.28696761
C   C6        1.0  0.29420  0.08630  0.66290  1.0000 0.28696761
C   C7        1.0  0.56490  0.86330  0.30000  1.0000 -0.1888754992
C   C8        1.0  0.43510  0.13670  0.70000  1.0000 -0.1888754992
C   C9        1.0  0.52320  0.75400  0.24680  1.0000 0.0863082649
C   C10       1.0  0.47680  0.24600  0.75320  1.0000 0.0863082649
C   C11       1.0  0.87560  0.09430  0.42490  1.0000 0.4527156648
C   C12       1.0  0.12440  0.90570  0.57510  1.0000 0.4552664059
C   C13       1.0  0.97820  0.29620  0.50280  1.0000 -0.0692605074
C   C14       1.0  0.02180  0.70380  0.49720  1.0000 -0.0692605074
C   C15       1.0  0.99120  0.39950  0.56910  1.0000 -0.2072795434
C   C16       1.0  0.00880  0.60050  0.43090  1.0000 -0.2072795434
C   C17       1.0  0.91590  0.41130  0.63750  1.0000 0.2410827028
C   C18       1.0  0.08410  0.58870  0.36250  1.0000 0.2410827028
C   C19       1.0  0.83010  0.32110  0.63900  1.0000 -0.1888754992
C   C20       1.0  0.16990  0.67890  0.36100  1.0000 -0.1888754992
C   C21       1.0  0.81660  0.21910  0.57080  1.0000 -0.0692605074
C   C22       1.0  0.18340  0.78090  0.42920  1.0000 -0.0692605074
C   C23       1.0  0.88840  0.20300  0.50010  1.0000 -0.0267028054
C   C24       1.0  0.11160  0.79700  0.49990  1.0000 -0.0267028054
C   C25       1.0  0.00120  0.60990  0.73140  1.0000 0.2410827028
C   C26       1.0  0.99880  0.39010  0.26860  1.0000 0.2410827028
C   C27       1.0  0.14220  0.62170  0.74570  1.0000 -0.1888754992
C   C28       1.0  0.85780  0.37830  0.25430  1.0000 -0.1888754992
C   C29       1.0  0.22540  0.72590  0.78220  1.0000 -0.0692605074
C   C30       1.0  0.77460  0.27410  0.21780  1.0000 -0.0692605074
C   C31       1.0  0.17350  0.81850  0.81010  1.0000 -0.0110067182
C   C32       1.0  0.82650  0.18150  0.18990  1.0000 -0.0110067182
C   C33       1.0  0.02960  0.80330  0.79370  1.0000 -0.0692605074
C   C34       1.0  0.97040  0.19670  0.20630  1.0000 -0.075320105
C   C35       1.0  0.94580  0.70020  0.75490  1.0000 -0.2001191604
C   C36       1.0  0.05420  0.29980  0.24510  1.0000 -0.2001191604
C   C37       1.0  0.27270  0.92900  0.85320  1.0000 0.4527156648
C   C38       1.0  0.72730  0.07100  0.14680  1.0000 0.4527156648
C   C39       1.0  0.30680  0.11790  0.97200  1.0000 0.28696761
C   C40       1.0  0.69320  0.88210  0.02800  1.0000 0.28696761
C   C41       1.0  0.43410  0.16340  0.96360  1.0000 -0.1888754992
C   C42       1.0  0.56590  0.83660  0.03640  1.0000 -0.1888754992
C   C43       1.0  0.49300  0.27150  0.01560  1.0000 0.0838260424
C   C44       1.0  0.50700  0.72850  0.98440  1.0000 0.0863082649
C   C45       1.0  0.31730  0.29710  0.08280  1.0000 0.0838260424
C   C46       1.0  0.68270  0.70290  0.91720  1.0000 0.0838260424
C   C47       1.0  0.25110  0.18760  0.03470  1.0000 -0.2001191604
C   C48       1.0  0.74890  0.81240  0.96530  1.0000 -0.2001191604
C   C49       1.0  0.51540  0.50670  0.31190  1.0000 0.5379895466
C   C50       1.0  0.48460  0.49330  0.68810  1.0000 0.5379895466
C   C51       1.0  0.50760  0.50260  0.40870  1.0000 -0.0110067182
C   C52       1.0  0.49240  0.49740  0.59130  1.0000 -0.0110067182
C   C53       1.0  0.61270  0.48000  0.46680  1.0000 -0.1002525069
C   C54       1.0  0.38730  0.52000  0.53320  1.0000 -0.1002525069
C   C55       1.0  0.39560  0.52320  0.44230  1.0000 -0.0943764364
C   C56       1.0  0.60440  0.47680  0.55770  1.0000 -0.0943764364
C   C57       1.0  0.97550  0.51770  0.09110  1.0000 -0.1002525069
C   C58       1.0  0.02450  0.48230  0.90890  1.0000 -0.1002525069
C   C59       1.0  0.10770  0.52050  0.08190  1.0000 -0.1002525069
C   C60       1.0  0.89230  0.47950  0.91810  1.0000 -0.1002525069
C   C61       1.0  0.13420  0.50360  0.99190  1.0000 -0.0173744475
C   C62       1.0  0.86580  0.49640  0.00810  1.0000 -0.0173744475
C   C63       1.0  0.27980  0.51200  0.98250  1.0000 0.573566963
C   C64       1.0  0.72020  0.48800  0.01750  1.0000 0.573566963
N   N1        1.0  0.60780  0.68790  0.22440  1.0000 -0.2437122864
N   N2        1.0  0.39220  0.31210  0.77560  1.0000 -0.2437122864
N   N3        1.0  0.74450  0.02530  0.39640  1.0000 -0.4509281469
N   N4        1.0  0.25550  0.97470  0.60360  1.0000 -0.4509281469
N   N5        1.0  0.23270  0.00960  0.92150  1.0000 -0.4509281469
N   N6        1.0  0.76730  0.99040  0.07850  1.0000 -0.4509281469
N   N7        1.0  0.43920  0.34170  0.07540  1.0000 -0.2506447984
N   N8        1.0  0.56080  0.65830  0.92460  1.0000 -0.2506447984
O   O1        1.0  0.96910  0.06800  0.39080  1.0000 -0.4441012991
O   O2        1.0  0.03090  0.93200  0.60920  1.0000 -0.4441012991
O   O3        1.0  0.90860  0.51040  0.70330  1.0000 -0.2001191604
O   O4        1.0  0.09140  0.48960  0.29670  1.0000 -0.2001191604
O   O5        1.0  0.38150  0.94390  0.83310  1.0000 -0.4441012991
O   O6        1.0  0.61850  0.05610  0.16690  1.0000 -0.4441012991
O   O7        1.0  0.62150  0.49380  0.28310  1.0000 -0.5081294281
O   O8        1.0  0.37850  0.50620  0.71690  1.0000 -0.5081294281
O   O9        1.0  0.41310  0.52180  0.25770  1.0000 -0.5299876583
O   O10       1.0  0.58690  0.47820  0.74230  1.0000 -0.5299876583
O   O11       1.0  0.37520  0.54440  0.06050  1.0000 -0.5484744114
O   O12       1.0  0.62480  0.45560  0.93950  1.0000 -0.5484744114
O   O13       1.0  0.29640  0.48830  0.89720  1.0000 -0.5299876583
O   O14       1.0  0.70360  0.51170  0.10280  1.0000 -0.5299876583
