# DDEC6 charges by PACMAN v1.1 (https://github.com/mtap-research/PACMAN-charge/)
data_2016[Zn][ths]3[FSR]10
_chemical_formula_sum              "Zn12 H96 C144 I24 N48"
_cell_length_a       18.3675
_cell_length_b       18.3675
_cell_length_c       31.9521
_cell_angle_alpha    81.6152
_cell_angle_beta     98.3848
_cell_angle_gamma    133.006

_symmetry_space_group_name_H-M    "P 1"
_symmetry_Int_Tables_number       1

loop_
  _symmetry_equiv_pos_as_xyz
  'x, y, z'

loop_
  _atom_site_type_symbol
  _atom_site_label
  _atom_site_symmetry_multiplicity
  _atom_site_fract_x
  _atom_site_fract_y
  _atom_site_fract_z
  _atom_site_occupancy
  _atom_site_charge
Zn  Zn1       1.0  0.69189  0.03325  0.22841  1.0000 0.4370826972
Zn  Zn2       1.0  0.96675  0.30811  0.72841  1.0000 0.4370826972
Zn  Zn3       1.0  0.23657  0.98307  0.06414  1.0000 0.4630214242
Zn  Zn4       1.0  0.01693  0.76343  0.56414  1.0000 0.4630214242
Zn  Zn5       1.0  0.53790  0.72346  0.40581  1.0000 0.4630214242
Zn  Zn6       1.0  0.27654  0.46210  0.90581  1.0000 0.4630214242
Zn  Zn7       1.0  0.03325  0.69189  0.27159  1.0000 0.4370826972
Zn  Zn8       1.0  0.30811  0.96675  0.77159  1.0000 0.4370826972
Zn  Zn9       1.0  0.98307  0.23657  0.43586  1.0000 0.4630214242
Zn  Zn10      1.0  0.76343  0.01693  0.93586  1.0000 0.4630214242
Zn  Zn11      1.0  0.72346  0.53790  0.09419  1.0000 0.4630214242
Zn  Zn12      1.0  0.46210  0.27654  0.59419  1.0000 0.4630214242
H   H1        1.0  0.91390  0.38970  0.16710  1.0000 0.1386404622
H   H2        1.0  0.61030  0.08610  0.66710  1.0000 0.1386404622
H   H3        1.0  0.36570  0.38210  0.47780  1.0000 0.1386404622
H   H4        1.0  0.61790  0.63430  0.97780  1.0000 0.1386404622
H   H5        1.0  0.10110  0.76050  0.07330  1.0000 0.1082606833
H   H6        1.0  0.23950  0.89890  0.57330  1.0000 0.1082606833
H   H7        1.0  0.89720  0.17200  0.26760  1.0000 0.1030614553
H   H8        1.0  0.82800  0.10280  0.76760  1.0000 0.1030614553
H   H9        1.0  0.39810  0.79170  0.27550  1.0000 0.132648855
H   H10       1.0  0.20830  0.60190  0.77550  1.0000 0.132648855
H   H11       1.0  0.50318  0.83018  0.33510  1.0000 0.1082606833
H   H12       1.0  0.16982  0.49682  0.83510  1.0000 0.1082606833
H   H13       1.0  0.04370  0.33830  0.26460  1.0000 0.1386404622
H   H14       1.0  0.66170  0.95630  0.76460  1.0000 0.1386404622
H   H15       1.0  0.30460  0.84580  0.19550  1.0000 0.1228235295
H   H16       1.0  0.15420  0.69540  0.69550  1.0000 0.1228235295
H   H17       1.0  0.47740  0.52380  0.43410  1.0000 0.1082606833
H   H18       1.0  0.47620  0.52260  0.93410  1.0000 0.1082606833
H   H19       1.0  0.32390  0.96610  0.14850  1.0000 0.1030614553
H   H20       1.0  0.03390  0.67610  0.64850  1.0000 0.1030614553
H   H21       1.0  0.15250  0.09710  0.48980  1.0000 0.1386404622
H   H22       1.0  0.90290  0.84750  0.98980  1.0000 0.1386404622
H   H23       1.0  0.10760  0.94260  0.49420  1.0000 0.1082606833
H   H24       1.0  0.05740  0.89240  0.99420  1.0000 0.1082606833
H   H25       1.0  0.04810  0.89950  0.61720  1.0000 0.1082606833
H   H26       1.0  0.10050  0.95190  0.11720  1.0000 0.1082606833
H   H27       1.0  0.09300  0.05400  0.61270  1.0000 0.132648855
H   H28       1.0  0.94600  0.90700  0.11270  1.0000 0.132648855
H   H29       1.0  0.39030  0.65190  0.46730  1.0000 0.1082606833
H   H30       1.0  0.34810  0.60970  0.96730  1.0000 0.1082606833
H   H31       1.0  0.27920  0.51500  0.51280  1.0000 0.1386404622
H   H32       1.0  0.48500  0.72080  0.01280  1.0000 0.1386404622
H   H33       1.0  0.07110  0.63450  0.11940  1.0000 0.132648855
H   H34       1.0  0.36550  0.92890  0.61940  1.0000 0.132648855
H   H35       1.0  0.23940  0.49880  0.30810  1.0000 0.132648855
H   H36       1.0  0.50120  0.76060  0.80810  1.0000 0.132648855
H   H37       1.0  0.35340  0.54600  0.36540  1.0000 0.1030614553
H   H38       1.0  0.45400  0.64660  0.86540  1.0000 0.1030614553
H   H39       1.0  0.76850  0.22270  0.17440  1.0000 0.1082606833
H   H40       1.0  0.77730  0.23150  0.67440  1.0000 0.1082606833
H   H41       1.0  0.19010  0.43590  0.61210  1.0000 0.1386404622
H   H42       1.0  0.56410  0.80990  0.11210  1.0000 0.1386404622
H   H43       1.0  0.12390  0.44190  0.66580  1.0000 0.1082606833
H   H44       1.0  0.55810  0.87610  0.16580  1.0000 0.1082606833
H   H45       1.0  0.97920  0.13800  0.62490  1.0000 0.1386404622
H   H46       1.0  0.86200  0.02080  0.12490  1.0000 0.1386404622
H   H47       1.0  0.91830  0.15190  0.67870  1.0000 0.1030614553
H   H48       1.0  0.84810  0.08170  0.17870  1.0000 0.1030614553
H   H49       1.0  0.38970  0.91390  0.33290  1.0000 0.1386404622
H   H50       1.0  0.08610  0.61030  0.83290  1.0000 0.1386404622
H   H51       1.0  0.38210  0.36570  0.02220  1.0000 0.1386404622
H   H52       1.0  0.63430  0.61790  0.52220  1.0000 0.1386404622
H   H53       1.0  0.76050  0.10110  0.42670  1.0000 0.1082606833
H   H54       1.0  0.89890  0.23950  0.92670  1.0000 0.1082606833
H   H55       1.0  0.17200  0.89720  0.23240  1.0000 0.1030614553
H   H56       1.0  0.10280  0.82800  0.73240  1.0000 0.1030614553
H   H57       1.0  0.79170  0.39810  0.22450  1.0000 0.132648855
H   H58       1.0  0.60190  0.20830  0.72450  1.0000 0.132648855
H   H59       1.0  0.83018  0.50318  0.16490  1.0000 0.1082606833
H   H60       1.0  0.49682  0.16982  0.66490  1.0000 0.1082606833
H   H61       1.0  0.33830  0.04370  0.23540  1.0000 0.1386404622
H   H62       1.0  0.95630  0.66170  0.73540  1.0000 0.1386404622
H   H63       1.0  0.84580  0.30460  0.30450  1.0000 0.1228235295
H   H64       1.0  0.69540  0.15420  0.80450  1.0000 0.1228235295
H   H65       1.0  0.52380  0.47740  0.06590  1.0000 0.1082606833
H   H66       1.0  0.52260  0.47620  0.56590  1.0000 0.1082606833
H   H67       1.0  0.96610  0.32390  0.35150  1.0000 0.1030614553
H   H68       1.0  0.67610  0.03390  0.85150  1.0000 0.1030614553
H   H69       1.0  0.09710  0.15250  0.01020  1.0000 0.1386404622
H   H70       1.0  0.84750  0.90290  0.51020  1.0000 0.1386404622
H   H71       1.0  0.94260  0.10760  0.00580  1.0000 0.1082606833
H   H72       1.0  0.89240  0.05740  0.50580  1.0000 0.1082606833
H   H73       1.0  0.89950  0.04810  0.88280  1.0000 0.1082606833
H   H74       1.0  0.95190  0.10050  0.38280  1.0000 0.1082606833
H   H75       1.0  0.05400  0.09300  0.88730  1.0000 0.132648855
H   H76       1.0  0.90700  0.94600  0.38730  1.0000 0.132648855
H   H77       1.0  0.65190  0.39030  0.03270  1.0000 0.1082606833
H   H78       1.0  0.60970  0.34810  0.53270  1.0000 0.1082606833
H   H79       1.0  0.51500  0.27920  0.98720  1.0000 0.1386404622
H   H80       1.0  0.72080  0.48500  0.48720  1.0000 0.1386404622
H   H81       1.0  0.63450  0.07110  0.38060  1.0000 0.132648855
H   H82       1.0  0.92890  0.36550  0.88060  1.0000 0.132648855
H   H83       1.0  0.49880  0.23940  0.19190  1.0000 0.132648855
H   H84       1.0  0.76060  0.50120  0.69190  1.0000 0.132648855
H   H85       1.0  0.54600  0.35340  0.13460  1.0000 0.1030614553
H   H86       1.0  0.64660  0.45400  0.63460  1.0000 0.1030614553
H   H87       1.0  0.22270  0.76850  0.32560  1.0000 0.1082606833
H   H88       1.0  0.23150  0.77730  0.82560  1.0000 0.1082606833
H   H89       1.0  0.43590  0.19010  0.88790  1.0000 0.1386404622
H   H90       1.0  0.80990  0.56410  0.38790  1.0000 0.1386404622
H   H91       1.0  0.44190  0.12390  0.83420  1.0000 0.1082606833
H   H92       1.0  0.87610  0.55810  0.33420  1.0000 0.1082606833
H   H93       1.0  0.13800  0.97920  0.87510  1.0000 0.1386404622
H   H94       1.0  0.02080  0.86200  0.37510  1.0000 0.1386404622
H   H95       1.0  0.15190  0.91830  0.82130  1.0000 0.1030614553
H   H96       1.0  0.08170  0.84810  0.32130  1.0000 0.1030614553
C   C1        1.0  0.91170  0.34630  0.18840  1.0000 -0.1498566068
C   C2        1.0  0.65370  0.08830  0.68840  1.0000 -0.1498566068
C   C3        1.0  0.36970  0.43670  0.47610  1.0000 -0.1498566068
C   C4        1.0  0.56330  0.63030  0.97610  1.0000 -0.1498566068
C   C5        1.0  0.14250  0.77770  0.09870  1.0000 0.0875124675
C   C6        1.0  0.22230  0.85750  0.59870  1.0000 0.0875124675
C   C7        1.0  0.90050  0.21730  0.24730  1.0000 0.0791969034
C   C8        1.0  0.78270  0.09950  0.74730  1.0000 0.0708851898
C   C9        1.0  0.18650  0.72690  0.16250  1.0000 0.0518316203
C   C10       1.0  0.27310  0.81350  0.66250  1.0000 0.0518316203
C   C11       1.0  0.38660  0.73980  0.29400  1.0000 -0.1552969101
C   C12       1.0  0.26020  0.61340  0.79400  1.0000 -0.1498566068
C   C13       1.0  0.99410  0.38190  0.21530  1.0000 0.0708851898
C   C14       1.0  0.61810  0.00590  0.71530  1.0000 0.0708851898
C   C15       1.0  0.17368  0.65052  0.19240  1.0000 0.3695072478
C   C16       1.0  0.34948  0.82632  0.69240  1.0000 0.3695072478
C   C17       1.0  0.44940  0.76220  0.32920  1.0000 0.0791969034
C   C18       1.0  0.23780  0.55060  0.82920  1.0000 0.0791969034
C   C19       1.0  0.98810  0.31590  0.24550  1.0000 -0.1498566068
C   C20       1.0  0.68410  0.01190  0.74550  1.0000 -0.1498566068
C   C21       1.0  0.08673  0.48987  0.21500  1.0000 0.3695072478
C   C22       1.0  0.51013  0.91327  0.71500  1.0000 0.3695072478
C   C23       1.0  0.23250  0.61150  0.24910  1.0000 0.375306916
C   C24       1.0  0.38850  0.76750  0.74910  1.0000 0.375306916
C   C25       1.0  0.30965  0.43295  0.49960  1.0000 0.0606258902
C   C26       1.0  0.56705  0.69035  0.99960  1.0000 0.0606258902
C   C27       1.0  0.26130  0.82650  0.17060  1.0000 -0.1498566068
C   C28       1.0  0.17350  0.73870  0.67060  1.0000 -0.1498566068
C   C29       1.0  0.30620  0.64080  0.28570  1.0000 0.0606258902
C   C30       1.0  0.35920  0.69380  0.78570  1.0000 0.0606258902
C   C31       1.0  0.43600  0.52140  0.45010  1.0000 0.0708851898
C   C32       1.0  0.47860  0.56400  0.95010  1.0000 0.0708851898
C   C33       1.0  0.13780  0.27720  0.58140  1.0000 0.3695072478
C   C34       1.0  0.72280  0.86220  0.08140  1.0000 0.3695072478
C   C35       1.0  0.27310  0.89790  0.14220  1.0000 0.0791969034
C   C36       1.0  0.10210  0.72690  0.64220  1.0000 0.0791969034
C   C37       1.0  0.23836  0.34544  0.52800  1.0000 0.3695072478
C   C38       1.0  0.65456  0.76164  0.02800  1.0000 0.3649972198
C   C39       1.0  0.12696  0.09004  0.55083  1.0000 0.0606258902
C   C40       1.0  0.90996  0.87304  0.05083  1.0000 0.0606258902
C   C41       1.0  0.13138  0.05702  0.51563  1.0000 -0.1498566068
C   C42       1.0  0.94298  0.86862  0.01563  1.0000 -0.1498566068
C   C43       1.0  0.10463  0.96517  0.51829  1.0000 0.0708851898
C   C44       1.0  0.03483  0.89537  0.01829  1.0000 0.0708851898
C   C45       1.0  0.06920  0.93960  0.59133  1.0000 0.0791969034
C   C46       1.0  0.06040  0.93080  0.09133  1.0000 0.0791969034
C   C47       1.0  0.09590  0.03130  0.58868  1.0000 -0.1308616414
C   C48       1.0  0.96870  0.90410  0.08868  1.0000 -0.1308616414
C   C49       1.0  0.38540  0.59660  0.46970  1.0000 0.0791969034
C   C50       1.0  0.40340  0.61460  0.96970  1.0000 0.0791969034
C   C51       1.0  0.31860  0.51500  0.49660  1.0000 -0.1308616414
C   C52       1.0  0.48500  0.68140  0.99660  1.0000 -0.1308616414
C   C53       1.0  0.12470  0.70230  0.12570  1.0000 -0.1401743074
C   C54       1.0  0.29770  0.87530  0.62570  1.0000 -0.1401743074
C   C55       1.0  0.29350  0.56750  0.31290  1.0000 -0.1401743074
C   C56       1.0  0.43250  0.70650  0.81290  1.0000 -0.1401743074
C   C57       1.0  0.36120  0.59640  0.34710  1.0000 0.0875124675
C   C58       1.0  0.40360  0.63880  0.84710  1.0000 0.0875124675
C   C59       1.0  0.82570  0.24670  0.19270  1.0000 0.0708851898
C   C60       1.0  0.75330  0.17430  0.69270  1.0000 0.0708851898
C   C61       1.0  0.14550  0.18310  0.54850  1.0000 0.3695072478
C   C62       1.0  0.81690  0.85450  0.04850  1.0000 0.3695072478
C   C63       1.0  0.13540  0.37580  0.62610  1.0000 -0.1401743074
C   C64       1.0  0.62420  0.86460  0.12610  1.0000 -0.1401743074
C   C65       1.0  0.09630  0.28610  0.61460  1.0000 0.0708851898
C   C66       1.0  0.71390  0.90370  0.11460  1.0000 0.0708851898
C   C67       1.0  0.09540  0.37860  0.65810  1.0000 0.0791969034
C   C68       1.0  0.62140  0.90460  0.15810  1.0000 0.0791969034
C   C69       1.0  0.01230  0.20210  0.63370  1.0000 -0.1401743074
C   C70       1.0  0.79790  0.98770  0.13370  1.0000 -0.1401743074
C   C71       1.0  0.97610  0.21070  0.66560  1.0000 0.0708851898
C   C72       1.0  0.78930  0.02390  0.16560  1.0000 0.0708851898
C   C73       1.0  0.34630  0.91170  0.31160  1.0000 -0.1552969101
C   C74       1.0  0.08830  0.65370  0.81160  1.0000 -0.1552969101
C   C75       1.0  0.43670  0.36970  0.02390  1.0000 -0.1498566068
C   C76       1.0  0.63030  0.56330  0.52390  1.0000 -0.1498566068
C   C77       1.0  0.77770  0.14250  0.40130  1.0000 0.0875124675
C   C78       1.0  0.85750  0.22230  0.90130  1.0000 0.0875124675
C   C79       1.0  0.21730  0.90050  0.25270  1.0000 0.0791969034
C   C80       1.0  0.09950  0.78270  0.75270  1.0000 0.0791969034
C   C81       1.0  0.72690  0.18650  0.33750  1.0000 0.0518316203
C   C82       1.0  0.81350  0.27310  0.83750  1.0000 0.0518316203
C   C83       1.0  0.73980  0.38660  0.20600  1.0000 -0.1498566068
C   C84       1.0  0.61340  0.26020  0.70600  1.0000 -0.1498566068
C   C85       1.0  0.38190  0.99410  0.28470  1.0000 0.0708851898
C   C86       1.0  0.00590  0.61810  0.78470  1.0000 0.0708851898
C   C87       1.0  0.65052  0.17368  0.30760  1.0000 0.3695072478
C   C88       1.0  0.82632  0.34948  0.80760  1.0000 0.3695072478
C   C89       1.0  0.76220  0.44940  0.17080  1.0000 0.0791969034
C   C90       1.0  0.55060  0.23780  0.67080  1.0000 0.0791969034
C   C91       1.0  0.31590  0.98810  0.25450  1.0000 -0.1498566068
C   C92       1.0  0.01190  0.68410  0.75450  1.0000 -0.1498566068
C   C93       1.0  0.48987  0.08673  0.28500  1.0000 0.3695072478
C   C94       1.0  0.91327  0.51013  0.78500  1.0000 0.3695072478
C   C95       1.0  0.61150  0.23250  0.25090  1.0000 0.3695072478
C   C96       1.0  0.76750  0.38850  0.75090  1.0000 0.3695072478
C   C97       1.0  0.43295  0.30965  0.00040  1.0000 0.0606258902
C   C98       1.0  0.69035  0.56705  0.50040  1.0000 0.0606258902
C   C99       1.0  0.82650  0.26130  0.32940  1.0000 -0.1498566068
C   C100      1.0  0.73870  0.17350  0.82940  1.0000 -0.1498566068
C   C101      1.0  0.64080  0.30620  0.21430  1.0000 0.0606258902
C   C102      1.0  0.69380  0.35920  0.71430  1.0000 0.0606258902
C   C103      1.0  0.52140  0.43600  0.04990  1.0000 0.0708851898
C   C104      1.0  0.56400  0.47860  0.54990  1.0000 0.0708851898
C   C105      1.0  0.27720  0.13780  0.91860  1.0000 0.3695072478
C   C106      1.0  0.86220  0.72280  0.41860  1.0000 0.3695072478
C   C107      1.0  0.89790  0.27310  0.35780  1.0000 0.0791969034
C   C108      1.0  0.72690  0.10210  0.85780  1.0000 0.0791969034
C   C109      1.0  0.34544  0.23836  0.97200  1.0000 0.3695072478
C   C110      1.0  0.76164  0.65456  0.47200  1.0000 0.3695072478
C   C111      1.0  0.09004  0.12696  0.94917  1.0000 0.0606258902
C   C112      1.0  0.87304  0.90996  0.44917  1.0000 0.0606258902
C   C113      1.0  0.05702  0.13138  0.98437  1.0000 -0.1498566068
C   C114      1.0  0.86862  0.94298  0.48437  1.0000 -0.1498566068
C   C115      1.0  0.96517  0.10463  0.98171  1.0000 0.0708851898
C   C116      1.0  0.89537  0.03483  0.48171  1.0000 0.0708851898
C   C117      1.0  0.93960  0.06920  0.90867  1.0000 0.0791969034
C   C118      1.0  0.93080  0.06040  0.40867  1.0000 0.0791969034
C   C119      1.0  0.03130  0.09590  0.91132  1.0000 -0.1308616414
C   C120      1.0  0.90410  0.96870  0.41132  1.0000 -0.1308616414
C   C121      1.0  0.59660  0.38540  0.03030  1.0000 0.0791969034
C   C122      1.0  0.61460  0.40340  0.53030  1.0000 0.0791969034
C   C123      1.0  0.51500  0.31860  0.00340  1.0000 -0.1308616414
C   C124      1.0  0.68140  0.48500  0.50340  1.0000 -0.1308616414
C   C125      1.0  0.70230  0.12470  0.37430  1.0000 -0.1401743074
C   C126      1.0  0.87530  0.29770  0.87430  1.0000 -0.1401743074
C   C127      1.0  0.56750  0.29350  0.18710  1.0000 -0.1401743074
C   C128      1.0  0.70650  0.43250  0.68710  1.0000 -0.1401743074
C   C129      1.0  0.59640  0.36120  0.15290  1.0000 0.0875124675
C   C130      1.0  0.63880  0.40360  0.65290  1.0000 0.0875124675
C   C131      1.0  0.24670  0.82570  0.30730  1.0000 0.0708851898
C   C132      1.0  0.17430  0.75330  0.80730  1.0000 0.0708851898
C   C133      1.0  0.18310  0.14550  0.95150  1.0000 0.3695072478
C   C134      1.0  0.85450  0.81690  0.45150  1.0000 0.3695072478
C   C135      1.0  0.37580  0.13540  0.87390  1.0000 -0.1401743074
C   C136      1.0  0.86460  0.62420  0.37390  1.0000 -0.1401743074
C   C137      1.0  0.28610  0.09630  0.88540  1.0000 0.0708851898
C   C138      1.0  0.90370  0.71390  0.38540  1.0000 0.0708851898
C   C139      1.0  0.37860  0.09540  0.84190  1.0000 0.0791969034
C   C140      1.0  0.90460  0.62140  0.34190  1.0000 0.0791969034
C   C141      1.0  0.20210  0.01230  0.86630  1.0000 -0.1401743074
C   C142      1.0  0.98770  0.79790  0.36630  1.0000 -0.1401743074
C   C143      1.0  0.21070  0.97610  0.83440  1.0000 0.0708851898
C   C144      1.0  0.02390  0.78930  0.33440  1.0000 0.0708851898
I   I1        1.0  0.53736  0.00834  0.20710  1.0000 -0.429528668
I   I2        1.0  0.99166  0.46264  0.70710  1.0000 -0.429528668
I   I3        1.0  0.33697  0.13819  0.10588  1.0000 -0.4626191291
I   I4        1.0  0.86181  0.66303  0.60588  1.0000 -0.4626191291
I   I5        1.0  0.28565  0.97953  0.99533  1.0000 -0.4440071864
I   I6        1.0  0.02047  0.71435  0.49533  1.0000 -0.4440071864
I   I7        1.0  0.71473  0.96451  0.29876  1.0000 -0.4107263717
I   I8        1.0  0.03549  0.28527  0.79876  1.0000 -0.4107263717
I   I9        1.0  0.59272  0.87278  0.43928  1.0000 -0.4513146642
I   I10       1.0  0.12722  0.40728  0.93928  1.0000 -0.4513146642
I   I11       1.0  0.64704  0.70568  0.37748  1.0000 -0.429528668
I   I12       1.0  0.29432  0.35296  0.87748  1.0000 -0.429528668
I   I13       1.0  0.00834  0.53736  0.29290  1.0000 -0.429528668
I   I14       1.0  0.46264  0.99166  0.79290  1.0000 -0.429528668
I   I15       1.0  0.13819  0.33697  0.39412  1.0000 -0.4626191291
I   I16       1.0  0.66303  0.86181  0.89412  1.0000 -0.4626191291
I   I17       1.0  0.97953  0.28565  0.50467  1.0000 -0.4513146642
I   I18       1.0  0.71435  0.02047  0.00467  1.0000 -0.4440071864
I   I19       1.0  0.96451  0.71473  0.20124  1.0000 -0.4107263717
I   I20       1.0  0.28527  0.03549  0.70124  1.0000 -0.4107263717
I   I21       1.0  0.87278  0.59272  0.06072  1.0000 -0.4513146642
I   I22       1.0  0.40728  0.12722  0.56072  1.0000 -0.4513146642
I   I23       1.0  0.70568  0.64704  0.12252  1.0000 -0.429528668
I   I24       1.0  0.35296  0.29432  0.62252  1.0000 -0.429528668
N   N1        1.0  0.82011  0.18289  0.22174  1.0000 -0.1796091232
N   N2        1.0  0.81711  0.17989  0.72174  1.0000 -0.1796091232
N   N3        1.0  0.44341  0.59999  0.44692  1.0000 -0.1886592428
N   N4        1.0  0.40001  0.55659  0.94692  1.0000 -0.1886592428
N   N5        1.0  0.21550  0.87450  0.10651  1.0000 -0.1796091232
N   N6        1.0  0.12550  0.78450  0.60651  1.0000 -0.1796091232
N   N7        1.0  0.21013  0.25847  0.52142  1.0000 -0.3835554528
N   N8        1.0  0.74153  0.78987  0.02142  1.0000 -0.3835554528
N   N9        1.0  0.09194  0.55406  0.18688  1.0000 -0.3907770323
N   N10       1.0  0.44594  0.90806  0.68688  1.0000 -0.3907770323
N   N11       1.0  0.20691  0.35969  0.55823  1.0000 -0.3907770323
N   N12       1.0  0.64031  0.79309  0.05823  1.0000 -0.3907770323
N   N13       1.0  0.43744  0.69156  0.35580  1.0000 -0.1736677135
N   N14       1.0  0.30844  0.56256  0.85580  1.0000 -0.1736677135
N   N15       1.0  0.15612  0.51348  0.24569  1.0000 -0.3907770323
N   N16       1.0  0.48652  0.84388  0.74569  1.0000 -0.3907770323
N   N17       1.0  0.07365  0.90655  0.55613  1.0000 -0.198215283
N   N18       1.0  0.09345  0.92635  0.05613  1.0000 -0.198215283
N   N19       1.0  0.24454  0.68326  0.22389  1.0000 -0.3835554528
N   N20       1.0  0.31674  0.75546  0.72389  1.0000 -0.3835554528
N   N21       1.0  0.10404  0.18736  0.57760  1.0000 -0.3973201397
N   N22       1.0  0.81264  0.89596  0.07760  1.0000 -0.3973201397
N   N23       1.0  0.01966  0.29874  0.67870  1.0000 -0.1796091232
N   N24       1.0  0.70126  0.98034  0.17870  1.0000 -0.1796091232
N   N25       1.0  0.18289  0.82011  0.27826  1.0000 -0.1796091232
N   N26       1.0  0.17989  0.81711  0.77826  1.0000 -0.1796091232
N   N27       1.0  0.59999  0.44341  0.05308  1.0000 -0.1886592428
N   N28       1.0  0.55659  0.40001  0.55308  1.0000 -0.1886592428
N   N29       1.0  0.87450  0.21550  0.39349  1.0000 -0.1796091232
N   N30       1.0  0.78450  0.12550  0.89349  1.0000 -0.1796091232
N   N31       1.0  0.25847  0.21013  0.97858  1.0000 -0.3835554528
N   N32       1.0  0.78987  0.74153  0.47858  1.0000 -0.3835554528
N   N33       1.0  0.55406  0.09194  0.31312  1.0000 -0.3907770323
N   N34       1.0  0.90806  0.44594  0.81312  1.0000 -0.3907770323
N   N35       1.0  0.35969  0.20691  0.94177  1.0000 -0.3907770323
N   N36       1.0  0.79309  0.64031  0.44177  1.0000 -0.3907770323
N   N37       1.0  0.69156  0.43744  0.14420  1.0000 -0.1736677135
N   N38       1.0  0.56256  0.30844  0.64420  1.0000 -0.1736677135
N   N39       1.0  0.51348  0.15612  0.25431  1.0000 -0.3907770323
N   N40       1.0  0.84388  0.48652  0.75431  1.0000 -0.3907770323
N   N41       1.0  0.90655  0.07365  0.94387  1.0000 -0.198215283
N   N42       1.0  0.92635  0.09345  0.44387  1.0000 -0.198215283
N   N43       1.0  0.68326  0.24454  0.27611  1.0000 -0.3835554528
N   N44       1.0  0.75546  0.31674  0.77611  1.0000 -0.3835554528
N   N45       1.0  0.18736  0.10404  0.92240  1.0000 -0.3973201397
N   N46       1.0  0.89596  0.81264  0.42240  1.0000 -0.3973201397
N   N47       1.0  0.29874  0.01966  0.82130  1.0000 -0.1796091232
N   N48       1.0  0.98034  0.70126  0.32130  1.0000 -0.1796091232
