# DDEC6 charges by PACMAN v1.1 (https://github.com/mtap-research/PACMAN-charge/)
data_2016[Zn][ths]3[FSR]3
_chemical_formula_sum              "Zn12 H96 C144 Br24 N48"
_cell_length_a       19.2346
_cell_length_b       19.2346
_cell_length_c       30.5
_cell_angle_alpha    78.6072
_cell_angle_beta     101.393
_cell_angle_gamma    135.282

_symmetry_space_group_name_H-M    "P 1"
_symmetry_Int_Tables_number       1

loop_
  _symmetry_equiv_pos_as_xyz
  'x, y, z'

loop_
  _atom_site_type_symbol
  _atom_site_label
  _atom_site_symmetry_multiplicity
  _atom_site_fract_x
  _atom_site_fract_y
  _atom_site_fract_z
  _atom_site_occupancy
  _atom_site_charge
Zn  Zn1       1.0  0.18350  0.52894  0.22863  1.0000 0.5148192991
Zn  Zn2       1.0  0.47106  0.81650  0.72863  1.0000 0.5148192991
Zn  Zn3       1.0  0.78105  0.94647  0.90476  1.0000 0.5393468914
Zn  Zn4       1.0  0.05353  0.21895  0.40476  1.0000 0.5393468914
Zn  Zn5       1.0  0.51644  0.27726  0.55905  1.0000 0.54533646
Zn  Zn6       1.0  0.72274  0.48356  0.05905  1.0000 0.5393468914
Zn  Zn7       1.0  0.52894  0.18350  0.27137  1.0000 0.5148192991
Zn  Zn8       1.0  0.81650  0.47106  0.77137  1.0000 0.5148192991
Zn  Zn9       1.0  0.94647  0.78105  0.59524  1.0000 0.5393468914
Zn  Zn10      1.0  0.21895  0.05353  0.09524  1.0000 0.5393468914
Zn  Zn11      1.0  0.27726  0.51644  0.94095  1.0000 0.5393468914
Zn  Zn12      1.0  0.48356  0.72274  0.44095  1.0000 0.5393468914
H   H1        1.0  0.73610  0.41950  0.57250  1.0000 0.1106160976
H   H2        1.0  0.58050  0.26390  0.07250  1.0000 0.1106160976
H   H3        1.0  0.86160  0.44760  0.62060  1.0000 0.139712121
H   H4        1.0  0.55240  0.13840  0.12060  1.0000 0.139712121
H   H5        1.0  0.65210  0.19670  0.69310  1.0000 0.1304321599
H   H6        1.0  0.80330  0.34790  0.19310  1.0000 0.1304321599
H   H7        1.0  0.53450  0.17850  0.64460  1.0000 0.1106160976
H   H8        1.0  0.82150  0.46550  0.14460  1.0000 0.1106160976
H   H9        1.0  0.10930  0.60890  0.67250  1.0000 0.139712121
H   H10       1.0  0.39110  0.89070  0.17250  1.0000 0.139712121
H   H11       1.0  0.27930  0.74970  0.67650  1.0000 0.1106160976
H   H12       1.0  0.25030  0.72070  0.17650  1.0000 0.1106160976
H   H13       1.0  0.32930  0.60690  0.76020  1.0000 0.1106160976
H   H14       1.0  0.39310  0.67070  0.26020  1.0000 0.1106160976
H   H15       1.0  0.16590  0.46610  0.76050  1.0000 0.139712121
H   H16       1.0  0.53390  0.83410  0.26050  1.0000 0.139712121
H   H17       1.0  0.95580  0.15720  0.87470  1.0000 0.1043487602
H   H18       1.0  0.84280  0.04420  0.37470  1.0000 0.1106160976
H   H19       1.0  0.99890  0.27850  0.81960  1.0000 0.139712121
H   H20       1.0  0.72150  0.00110  0.31960  1.0000 0.139712121
H   H21       1.0  0.71070  0.09850  0.77490  1.0000 0.1304321599
H   H22       1.0  0.90150  0.28930  0.27490  1.0000 0.1304321599
H   H23       1.0  0.67510  0.98190  0.83160  1.0000 0.1106160976
H   H24       1.0  0.01810  0.32490  0.33160  1.0000 0.1153392096
H   H25       1.0  0.98980  0.03340  0.93240  1.0000 0.1106160976
H   H26       1.0  0.96660  0.01020  0.43240  1.0000 0.1106160976
H   H27       1.0  0.12980  0.15500  0.97450  1.0000 0.139712121
H   H28       1.0  0.84500  0.87020  0.47450  1.0000 0.139712121
H   H29       1.0  0.96680  0.17340  0.02580  1.0000 0.139712121
H   H30       1.0  0.82660  0.03320  0.52580  1.0000 0.139712121
H   H31       1.0  0.83480  0.05640  0.98070  1.0000 0.1153392096
H   H32       1.0  0.94360  0.16520  0.48070  1.0000 0.1106160976
H   H33       1.0  0.32660  0.43980  0.16580  1.0000 0.139712121
H   H34       1.0  0.56020  0.67340  0.66580  1.0000 0.139712121
H   H35       1.0  0.31170  0.50410  0.21300  1.0000 0.1106160976
H   H36       1.0  0.49590  0.68830  0.71300  1.0000 0.1106160976
H   H37       1.0  0.08270  0.43370  0.14040  1.0000 0.1106160976
H   H38       1.0  0.56630  0.91730  0.64040  1.0000 0.1106160976
H   H39       1.0  0.09250  0.36630  0.09090  1.0000 0.139712121
H   H40       1.0  0.63370  0.90750  0.59090  1.0000 0.139712121
H   H41       1.0  0.38700  0.34480  0.99580  1.0000 0.139712121
H   H42       1.0  0.65520  0.61300  0.49580  1.0000 0.139712121
H   H43       1.0  0.53790  0.39590  0.99660  1.0000 0.1106160976
H   H44       1.0  0.60410  0.46210  0.49660  1.0000 0.1106160976
H   H45       1.0  0.61270  0.47670  0.11790  1.0000 0.1106160976
H   H46       1.0  0.52330  0.38730  0.61790  1.0000 0.1106160976
H   H47       1.0  0.46580  0.42980  0.12020  1.0000 0.139712121
H   H48       1.0  0.57020  0.53420  0.62020  1.0000 0.139712121
H   H49       1.0  0.41950  0.73610  0.92750  1.0000 0.1106160976
H   H50       1.0  0.26390  0.58050  0.42750  1.0000 0.1106160976
H   H51       1.0  0.44760  0.86160  0.87940  1.0000 0.139712121
H   H52       1.0  0.13840  0.55240  0.37940  1.0000 0.139712121
H   H53       1.0  0.19670  0.65210  0.80690  1.0000 0.1304321599
H   H54       1.0  0.34790  0.80330  0.30690  1.0000 0.1304321599
H   H55       1.0  0.17850  0.53450  0.85540  1.0000 0.1106160976
H   H56       1.0  0.46550  0.82150  0.35540  1.0000 0.1106160976
H   H57       1.0  0.60890  0.10930  0.82750  1.0000 0.139712121
H   H58       1.0  0.89070  0.39110  0.32750  1.0000 0.139712121
H   H59       1.0  0.74970  0.27930  0.82350  1.0000 0.1106160976
H   H60       1.0  0.72070  0.25030  0.32350  1.0000 0.1106160976
H   H61       1.0  0.60690  0.32930  0.73980  1.0000 0.1106160976
H   H62       1.0  0.67070  0.39310  0.23980  1.0000 0.1106160976
H   H63       1.0  0.46610  0.16590  0.73950  1.0000 0.139712121
H   H64       1.0  0.83410  0.53390  0.23950  1.0000 0.139712121
H   H65       1.0  0.15720  0.95580  0.62530  1.0000 0.1043487602
H   H66       1.0  0.04420  0.84280  0.12530  1.0000 0.1043487602
H   H67       1.0  0.27850  0.99890  0.68040  1.0000 0.139712121
H   H68       1.0  0.00110  0.72150  0.18040  1.0000 0.139712121
H   H69       1.0  0.09850  0.71070  0.72510  1.0000 0.1304321599
H   H70       1.0  0.28930  0.90150  0.22510  1.0000 0.1304321599
H   H71       1.0  0.98190  0.67510  0.66840  1.0000 0.1106160976
H   H72       1.0  0.32490  0.01810  0.16840  1.0000 0.1106160976
H   H73       1.0  0.03340  0.98980  0.56760  1.0000 0.1106160976
H   H74       1.0  0.01020  0.96660  0.06760  1.0000 0.1106160976
H   H75       1.0  0.15500  0.12980  0.52550  1.0000 0.139712121
H   H76       1.0  0.87020  0.84500  0.02550  1.0000 0.139712121
H   H77       1.0  0.17340  0.96680  0.47420  1.0000 0.139712121
H   H78       1.0  0.03320  0.82660  0.97420  1.0000 0.139712121
H   H79       1.0  0.05640  0.83480  0.51930  1.0000 0.1153392096
H   H80       1.0  0.16520  0.94360  0.01930  1.0000 0.1153392096
H   H81       1.0  0.43980  0.32660  0.33420  1.0000 0.139712121
H   H82       1.0  0.67340  0.56020  0.83420  1.0000 0.139712121
H   H83       1.0  0.50410  0.31170  0.28700  1.0000 0.1106160976
H   H84       1.0  0.68830  0.49590  0.78700  1.0000 0.1106160976
H   H85       1.0  0.43370  0.08270  0.35960  1.0000 0.1106160976
H   H86       1.0  0.91730  0.56630  0.85960  1.0000 0.1106160976
H   H87       1.0  0.36630  0.09250  0.40910  1.0000 0.139712121
H   H88       1.0  0.90750  0.63370  0.90910  1.0000 0.139712121
H   H89       1.0  0.34480  0.38700  0.50420  1.0000 0.139712121
H   H90       1.0  0.61300  0.65520  0.00420  1.0000 0.139712121
H   H91       1.0  0.39590  0.53790  0.50340  1.0000 0.1106160976
H   H92       1.0  0.46210  0.60410  0.00340  1.0000 0.1106160976
H   H93       1.0  0.47670  0.61270  0.38210  1.0000 0.1106160976
H   H94       1.0  0.38730  0.52330  0.88210  1.0000 0.1106160976
H   H95       1.0  0.42980  0.46580  0.37980  1.0000 0.139712121
H   H96       1.0  0.53420  0.57020  0.87980  1.0000 0.139712121
C   C1        1.0  0.71930  0.37470  0.59730  1.0000 0.1043487602
C   C2        1.0  0.62530  0.28070  0.09730  1.0000 0.1043487602
C   C3        1.0  0.79560  0.39220  0.62600  1.0000 -0.1328922461
C   C4        1.0  0.60780  0.20440  0.12600  1.0000 -0.1328922461
C   C5        1.0  0.77105  0.32575  0.66254  1.0000 0.0513482581
C   C6        1.0  0.67425  0.22895  0.16254  1.0000 0.0513482581
C   C7        1.0  0.67083  0.24357  0.66900  1.0000 -0.1429923915
C   C8        1.0  0.75643  0.32917  0.16900  1.0000 -0.1429923915
C   C9        1.0  0.60102  0.23278  0.63960  1.0000 0.0714314057
C   C10       1.0  0.76722  0.39898  0.13960  1.0000 0.0714314057
C   C11       1.0  0.84734  0.33886  0.69412  1.0000 0.3721126099
C   C12       1.0  0.66114  0.15266  0.19412  1.0000 0.3721126099
C   C13       1.0  0.00743  0.42897  0.71800  1.0000 0.3721126099
C   C14       1.0  0.57103  0.99257  0.21800  1.0000 0.3721126099
C   C15       1.0  0.88880  0.28080  0.75394  1.0000 0.3721126099
C   C16       1.0  0.71920  0.11120  0.25394  1.0000 0.3721126099
C   C17       1.0  0.11716  0.52124  0.71650  1.0000 0.0714314057
C   C18       1.0  0.47876  0.88284  0.21650  1.0000 0.0714314057
C   C19       1.0  0.15259  0.60701  0.69120  1.0000 -0.1578280706
C   C20       1.0  0.39299  0.84741  0.19120  1.0000 -0.1578280706
C   C21       1.0  0.25513  0.69187  0.69390  1.0000 0.0881701403
C   C22       1.0  0.30813  0.74487  0.19390  1.0000 0.0881701403
C   C23       1.0  0.28420  0.60780  0.74330  1.0000 0.0789607704
C   C24       1.0  0.39220  0.71580  0.24330  1.0000 0.0789607704
C   C25       1.0  0.18660  0.52280  0.74320  1.0000 -0.1578280706
C   C26       1.0  0.47720  0.81340  0.24320  1.0000 -0.1578280706
C   C27       1.0  0.90660  0.14560  0.85390  1.0000 0.0789607704
C   C28       1.0  0.85440  0.09340  0.35390  1.0000 0.0789607704
C   C29       1.0  0.93300  0.21860  0.82130  1.0000 -0.1429923915
C   C30       1.0  0.78140  0.06700  0.32130  1.0000 -0.1429923915
C   C31       1.0  0.86009  0.20231  0.79058  1.0000 0.0622862752
C   C32       1.0  0.79769  0.13991  0.29058  1.0000 0.0622862752
C   C33       1.0  0.76142  0.11138  0.79480  1.0000 -0.1578280706
C   C34       1.0  0.88862  0.23858  0.29480  1.0000 -0.1578280706
C   C35       1.0  0.74071  0.04169  0.82860  1.0000 0.0881701403
C   C36       1.0  0.95831  0.25929  0.32860  1.0000 0.0881701403
C   C37       1.0  0.98624  0.06396  0.95071  1.0000 0.0714314057
C   C38       1.0  0.93604  0.01376  0.45071  1.0000 0.0714314057
C   C39       1.0  0.07037  0.13563  0.97660  1.0000 -0.1578280706
C   C40       1.0  0.86437  0.92963  0.47660  1.0000 -0.1578280706
C   C41       1.0  0.06485  0.17855  0.00582  1.0000 0.0789607704
C   C42       1.0  0.82145  0.93515  0.50582  1.0000 0.0789607704
C   C43       1.0  0.97370  0.14690  0.00670  1.0000 -0.1429923915
C   C44       1.0  0.85310  0.02630  0.50670  1.0000 -0.1429923915
C   C45       1.0  0.89530  0.07710  0.97950  1.0000 0.0622862752
C   C46       1.0  0.92290  0.10470  0.47950  1.0000 0.0622862752
C   C47       1.0  0.15410  0.25690  0.03482  1.0000 0.377793615
C   C48       1.0  0.74310  0.84590  0.53482  1.0000 0.377793615
C   C49       1.0  0.31425  0.35175  0.05879  1.0000 0.3721126099
C   C50       1.0  0.64825  0.68575  0.55879  1.0000 0.3721126099
C   C51       1.0  0.21975  0.35305  0.09074  1.0000 0.3721126099
C   C52       1.0  0.64695  0.78025  0.59074  1.0000 0.3721126099
C   C53       1.0  0.21068  0.39372  0.12310  1.0000 0.0714314057
C   C54       1.0  0.60628  0.78932  0.62310  1.0000 0.0714314057
C   C55       1.0  0.27520  0.43680  0.15990  1.0000 -0.1429923915
C   C56       1.0  0.56320  0.72480  0.65990  1.0000 -0.145351703
C   C57       1.0  0.26600  0.47560  0.18820  1.0000 0.0622862752
C   C58       1.0  0.52440  0.73400  0.68820  1.0000 0.0622862752
C   C59       1.0  0.13260  0.43460  0.14590  1.0000 0.0789607704
C   C60       1.0  0.56540  0.86740  0.64590  1.0000 0.0789607704
C   C61       1.0  0.13800  0.39380  0.11590  1.0000 -0.1328922461
C   C62       1.0  0.60620  0.86200  0.61590  1.0000 -0.1328922461
C   C63       1.0  0.41069  0.38391  0.05758  1.0000 0.0622862752
C   C64       1.0  0.61609  0.58931  0.55758  1.0000 0.0622862752
C   C65       1.0  0.43230  0.37230  0.02080  1.0000 -0.1429923915
C   C66       1.0  0.62770  0.56770  0.52080  1.0000 -0.1429923915
C   C67       1.0  0.52261  0.40219  0.02180  1.0000 0.0789607704
C   C68       1.0  0.59781  0.47739  0.52180  1.0000 0.0789607704
C   C69       1.0  0.56670  0.44990  0.09310  1.0000 0.0881701403
C   C70       1.0  0.55010  0.43330  0.59310  1.0000 0.0881701403
C   C71       1.0  0.47910  0.42250  0.09460  1.0000 -0.1429923915
C   C72       1.0  0.57750  0.52090  0.59460  1.0000 -0.1429923915
C   C73       1.0  0.37470  0.71930  0.90270  1.0000 0.1043487602
C   C74       1.0  0.28070  0.62530  0.40270  1.0000 0.1043487602
C   C75       1.0  0.39220  0.79560  0.87400  1.0000 -0.1328922461
C   C76       1.0  0.20440  0.60780  0.37400  1.0000 -0.1328922461
C   C77       1.0  0.32575  0.77105  0.83746  1.0000 0.0513482581
C   C78       1.0  0.22895  0.67425  0.33746  1.0000 0.0513482581
C   C79       1.0  0.24357  0.67083  0.83100  1.0000 -0.1429923915
C   C80       1.0  0.32917  0.75643  0.33100  1.0000 -0.1429923915
C   C81       1.0  0.23278  0.60102  0.86040  1.0000 0.0714314057
C   C82       1.0  0.39898  0.76722  0.36040  1.0000 0.0714314057
C   C83       1.0  0.33886  0.84734  0.80588  1.0000 0.3721126099
C   C84       1.0  0.15266  0.66114  0.30588  1.0000 0.3721126099
C   C85       1.0  0.42897  0.00743  0.78200  1.0000 0.3721126099
C   C86       1.0  0.99257  0.57103  0.28200  1.0000 0.3721126099
C   C87       1.0  0.28080  0.88880  0.74606  1.0000 0.3721126099
C   C88       1.0  0.11120  0.71920  0.24606  1.0000 0.3721126099
C   C89       1.0  0.52124  0.11716  0.78350  1.0000 0.0714314057
C   C90       1.0  0.88284  0.47876  0.28350  1.0000 0.0714314057
C   C91       1.0  0.60701  0.15259  0.80880  1.0000 -0.1578280706
C   C92       1.0  0.84741  0.39299  0.30880  1.0000 -0.1578280706
C   C93       1.0  0.69187  0.25513  0.80610  1.0000 0.0881701403
C   C94       1.0  0.74487  0.30813  0.30610  1.0000 0.0881701403
C   C95       1.0  0.60780  0.28420  0.75670  1.0000 0.0789607704
C   C96       1.0  0.71580  0.39220  0.25670  1.0000 0.0789607704
C   C97       1.0  0.52280  0.18660  0.75680  1.0000 -0.1578280706
C   C98       1.0  0.81340  0.47720  0.25680  1.0000 -0.1578280706
C   C99       1.0  0.14560  0.90660  0.64610  1.0000 0.0789607704
C   C100      1.0  0.09340  0.85440  0.14610  1.0000 0.0789607704
C   C101      1.0  0.21860  0.93300  0.67870  1.0000 -0.1429923915
C   C102      1.0  0.06700  0.78140  0.17870  1.0000 -0.1429923915
C   C103      1.0  0.20231  0.86009  0.70942  1.0000 0.0622862752
C   C104      1.0  0.13991  0.79769  0.20942  1.0000 0.0622862752
C   C105      1.0  0.11138  0.76142  0.70520  1.0000 -0.1651904832
C   C106      1.0  0.23858  0.88862  0.20520  1.0000 -0.1651904832
C   C107      1.0  0.04169  0.74071  0.67140  1.0000 0.0881701403
C   C108      1.0  0.25929  0.95831  0.17140  1.0000 0.0881701403
C   C109      1.0  0.06396  0.98624  0.54929  1.0000 0.0714314057
C   C110      1.0  0.01376  0.93604  0.04929  1.0000 0.0714314057
C   C111      1.0  0.13563  0.07037  0.52340  1.0000 -0.1578280706
C   C112      1.0  0.92963  0.86437  0.02340  1.0000 -0.1578280706
C   C113      1.0  0.17855  0.06485  0.49418  1.0000 0.0789607704
C   C114      1.0  0.93515  0.82145  0.99418  1.0000 0.0789607704
C   C115      1.0  0.14690  0.97370  0.49330  1.0000 -0.1429923915
C   C116      1.0  0.02630  0.85310  0.99330  1.0000 -0.1429923915
C   C117      1.0  0.07710  0.89530  0.52050  1.0000 0.0622862752
C   C118      1.0  0.10470  0.92290  0.02050  1.0000 0.0622862752
C   C119      1.0  0.25690  0.15410  0.46518  1.0000 0.377793615
C   C120      1.0  0.84590  0.74310  0.96518  1.0000 0.377793615
C   C121      1.0  0.35175  0.31425  0.44121  1.0000 0.3721126099
C   C122      1.0  0.68575  0.64825  0.94121  1.0000 0.3721126099
C   C123      1.0  0.35305  0.21975  0.40926  1.0000 0.3721126099
C   C124      1.0  0.78025  0.64695  0.90926  1.0000 0.3721126099
C   C125      1.0  0.39372  0.21068  0.37690  1.0000 0.0714314057
C   C126      1.0  0.78932  0.60628  0.87690  1.0000 0.0714314057
C   C127      1.0  0.43680  0.27520  0.34010  1.0000 -0.145351703
C   C128      1.0  0.72480  0.56320  0.84010  1.0000 -0.145351703
C   C129      1.0  0.47560  0.26600  0.31180  1.0000 0.0622862752
C   C130      1.0  0.73400  0.52440  0.81180  1.0000 0.0622862752
C   C131      1.0  0.43460  0.13260  0.35410  1.0000 0.0789607704
C   C132      1.0  0.86740  0.56540  0.85410  1.0000 0.0789607704
C   C133      1.0  0.39380  0.13800  0.38410  1.0000 -0.1328922461
C   C134      1.0  0.86200  0.60620  0.88410  1.0000 -0.1328922461
C   C135      1.0  0.38391  0.41069  0.44242  1.0000 0.0622862752
C   C136      1.0  0.58931  0.61609  0.94242  1.0000 0.0622862752
C   C137      1.0  0.37230  0.43230  0.47920  1.0000 -0.1429923915
C   C138      1.0  0.56770  0.62770  0.97920  1.0000 -0.1429923915
C   C139      1.0  0.40219  0.52261  0.47820  1.0000 0.0789607704
C   C140      1.0  0.47739  0.59781  0.97820  1.0000 0.0789607704
C   C141      1.0  0.44990  0.56670  0.40690  1.0000 0.0881701403
C   C142      1.0  0.43330  0.55010  0.90690  1.0000 0.0881701403
C   C143      1.0  0.42250  0.47910  0.40540  1.0000 -0.1429923915
C   C144      1.0  0.52090  0.57750  0.90540  1.0000 -0.1429923915
Br  Br1       1.0  0.03666  0.49198  0.20941  1.0000 -0.47086686
Br  Br2       1.0  0.50802  0.96334  0.70941  1.0000 -0.47086686
Br  Br3       1.0  0.21729  0.47941  0.30065  1.0000 -0.47086686
Br  Br4       1.0  0.52059  0.78271  0.80065  1.0000 -0.4625948022
Br  Br5       1.0  0.63797  0.87335  0.93678  1.0000 -0.4862904549
Br  Br6       1.0  0.12665  0.36203  0.43678  1.0000 -0.4862904549
Br  Br7       1.0  0.80171  0.86273  0.87220  1.0000 -0.4625948022
Br  Br8       1.0  0.13727  0.19829  0.37220  1.0000 -0.4625948022
Br  Br9       1.0  0.36621  0.15731  0.59392  1.0000 -0.5026957045
Br  Br10      1.0  0.84269  0.63379  0.09392  1.0000 -0.5026957045
Br  Br11      1.0  0.53497  0.26587  0.48817  1.0000 -0.4862904549
Br  Br12      1.0  0.73413  0.46503  0.98817  1.0000 -0.484741355
Br  Br13      1.0  0.49198  0.03666  0.29059  1.0000 -0.47086686
Br  Br14      1.0  0.96334  0.50802  0.79059  1.0000 -0.47086686
Br  Br15      1.0  0.47941  0.21729  0.19935  1.0000 -0.4625948022
Br  Br16      1.0  0.78271  0.52059  0.69935  1.0000 -0.4625948022
Br  Br17      1.0  0.87335  0.63797  0.56322  1.0000 -0.4862904549
Br  Br18      1.0  0.36203  0.12665  0.06322  1.0000 -0.4862904549
Br  Br19      1.0  0.86273  0.80171  0.62780  1.0000 -0.4625948022
Br  Br20      1.0  0.19829  0.13727  0.12780  1.0000 -0.4625948022
Br  Br21      1.0  0.15731  0.36621  0.90608  1.0000 -0.5026957045
Br  Br22      1.0  0.63379  0.84269  0.40608  1.0000 -0.5026957045
Br  Br23      1.0  0.26587  0.53497  0.01183  1.0000 -0.484741355
Br  Br24      1.0  0.46503  0.73413  0.51183  1.0000 -0.4862904549
N   N1        1.0  0.62425  0.29795  0.60339  1.0000 -0.1988754326
N   N2        1.0  0.70205  0.37575  0.10339  1.0000 -0.1988754326
N   N3        1.0  0.31904  0.69196  0.72087  1.0000 -0.1898289721
N   N4        1.0  0.30804  0.68096  0.22087  1.0000 -0.1898289721
N   N5        1.0  0.81209  0.05711  0.85743  1.0000 -0.1898289721
N   N6        1.0  0.94289  0.18791  0.35743  1.0000 -0.1898289721
N   N7        1.0  0.94448  0.42372  0.68814  1.0000 -0.389512914
N   N8        1.0  0.57628  0.05552  0.18814  1.0000 -0.389512914
N   N9        1.0  0.98546  0.36034  0.75111  1.0000 -0.4011553887
N   N10       1.0  0.63966  0.01454  0.25111  1.0000 -0.4011553887
N   N11       1.0  0.81583  0.26657  0.72698  1.0000 -0.389512914
N   N12       1.0  0.73343  0.18417  0.22698  1.0000 -0.389512914
N   N13       1.0  0.90059  0.03641  0.95067  1.0000 -0.1988754326
N   N14       1.0  0.96359  0.09941  0.45067  1.0000 -0.1988754326
N   N15       1.0  0.58888  0.43992  0.05767  1.0000 -0.1988754326
N   N16       1.0  0.56008  0.41112  0.55767  1.0000 -0.1988754326
N   N17       1.0  0.19530  0.47530  0.18245  1.0000 -0.1988754326
N   N18       1.0  0.52470  0.80470  0.68245  1.0000 -0.1988754326
N   N19       1.0  0.13834  0.28646  0.06454  1.0000 -0.4011553887
N   N20       1.0  0.71354  0.86166  0.56454  1.0000 -0.4011553887
N   N21       1.0  0.23970  0.28830  0.02913  1.0000 -0.389512914
N   N22       1.0  0.71170  0.76030  0.52913  1.0000 -0.389512914
N   N23       1.0  0.30828  0.38612  0.09036  1.0000 -0.389512914
N   N24       1.0  0.61388  0.69172  0.59036  1.0000 -0.389512914
N   N25       1.0  0.29795  0.62425  0.89661  1.0000 -0.1988754326
N   N26       1.0  0.37575  0.70205  0.39661  1.0000 -0.1988754326
N   N27       1.0  0.69196  0.31904  0.77913  1.0000 -0.1898289721
N   N28       1.0  0.68096  0.30804  0.27913  1.0000 -0.1898289721
N   N29       1.0  0.05711  0.81209  0.64257  1.0000 -0.1898289721
N   N30       1.0  0.18791  0.94289  0.14257  1.0000 -0.1898289721
N   N31       1.0  0.42372  0.94448  0.81186  1.0000 -0.389512914
N   N32       1.0  0.05552  0.57628  0.31186  1.0000 -0.389512914
N   N33       1.0  0.36034  0.98546  0.74889  1.0000 -0.4011553887
N   N34       1.0  0.01454  0.63966  0.24889  1.0000 -0.4011553887
N   N35       1.0  0.26657  0.81583  0.77302  1.0000 -0.389512914
N   N36       1.0  0.18417  0.73343  0.27302  1.0000 -0.389512914
N   N37       1.0  0.03641  0.90059  0.54933  1.0000 -0.1988754326
N   N38       1.0  0.09941  0.96359  0.04933  1.0000 -0.1988754326
N   N39       1.0  0.43992  0.58888  0.44233  1.0000 -0.1988754326
N   N40       1.0  0.41112  0.56008  0.94233  1.0000 -0.1988754326
N   N41       1.0  0.47530  0.19530  0.31755  1.0000 -0.1988754326
N   N42       1.0  0.80470  0.52470  0.81755  1.0000 -0.1988754326
N   N43       1.0  0.28646  0.13834  0.43546  1.0000 -0.4011553887
N   N44       1.0  0.86166  0.71354  0.93546  1.0000 -0.4011553887
N   N45       1.0  0.28830  0.23970  0.47087  1.0000 -0.389512914
N   N46       1.0  0.76030  0.71170  0.97087  1.0000 -0.389512914
N   N47       1.0  0.38612  0.30828  0.40964  1.0000 -0.389512914
N   N48       1.0  0.69172  0.61388  0.90964  1.0000 -0.389512914
