# DDEC6 charges by PACMAN v1.1 (https://github.com/mtap-research/PACMAN-charge/)
data_2016[Ag][dia]3[FSR]2
_chemical_formula_sum              "Ag4 H96 C96 N16"
_cell_length_a       20.853
_cell_length_b       16.4743
_cell_length_c       15.4528
_cell_angle_alpha    81.4899
_cell_angle_beta     51.3821
_cell_angle_gamma    47.128

_symmetry_space_group_name_H-M    "P 1"
_symmetry_Int_Tables_number       1

loop_
  _symmetry_equiv_pos_as_xyz
  'x, y, z'

loop_
  _atom_site_type_symbol
  _atom_site_label
  _atom_site_symmetry_multiplicity
  _atom_site_fract_x
  _atom_site_fract_y
  _atom_site_fract_z
  _atom_site_occupancy
  _atom_site_charge
Ag  Ag1       1.0  0.25946  0.25946  0.74054  1.0000 0.2273863497
Ag  Ag2       1.0  0.50946  0.50946  0.99054  1.0000 0.2273863497
Ag  Ag3       1.0  0.74054  0.74054  0.25946  1.0000 0.2273863497
Ag  Ag4       1.0  0.99054  0.99054  0.50946  1.0000 0.2273863497
H   H1        1.0  0.49190  0.03410  0.70490  1.0000 0.0906010418
H   H2        1.0  0.03410  0.49190  0.76910  1.0000 0.0906010418
H   H3        1.0  0.48090  0.54510  0.21590  1.0000 0.0906010418
H   H4        1.0  0.54510  0.48090  0.75810  1.0000 0.0906010418
H   H5        1.0  0.69450  0.91130  0.59170  1.0000 0.1299897426
H   H6        1.0  0.91130  0.69450  0.80250  1.0000 0.1299897426
H   H7        1.0  0.44750  0.65830  0.33870  1.0000 0.1299897426
H   H8        1.0  0.65830  0.44750  0.55550  1.0000 0.1299897426
H   H9        1.0  0.67260  0.12500  0.42600  1.0000 0.1299897426
H   H10       1.0  0.12500  0.67260  0.77640  1.0000 0.1299897426
H   H11       1.0  0.47360  0.82400  0.12500  1.0000 0.1299897426
H   H12       1.0  0.82400  0.47360  0.57740  1.0000 0.1299897426
H   H13       1.0  0.47110  0.24090  0.54250  1.0000 0.0906010418
H   H14       1.0  0.24090  0.47110  0.74550  1.0000 0.0906010418
H   H15       1.0  0.50450  0.70750  0.00910  1.0000 0.0906010418
H   H16       1.0  0.70750  0.50450  0.77890  1.0000 0.0906010418
H   H17       1.0  0.29240  0.70500  0.99380  1.0000 0.0906010418
H   H18       1.0  0.70500  0.29240  0.00880  1.0000 0.0906010418
H   H19       1.0  0.24120  0.25620  0.54500  1.0000 0.0906010418
H   H20       1.0  0.25620  0.24120  0.95760  1.0000 0.0906010418
H   H21       1.0  0.09460  0.81700  0.10020  1.0000 0.1299897426
H   H22       1.0  0.81700  0.09460  0.98820  1.0000 0.1299897426
H   H23       1.0  0.26180  0.14980  0.43300  1.0000 0.1299897426
H   H24       1.0  0.14980  0.26180  0.15540  1.0000 0.1299897426
H   H25       1.0  0.10300  0.63620  0.30240  1.0000 0.1299897426
H   H26       1.0  0.63620  0.10300  0.95840  1.0000 0.1299897426
H   H27       1.0  0.29160  0.94760  0.61380  1.0000 0.1299897426
H   H28       1.0  0.94760  0.29160  0.14700  1.0000 0.1299897426
H   H29       1.0  0.29980  0.53000  0.19140  1.0000 0.0906010418
H   H30       1.0  0.53000  0.29980  0.97880  1.0000 0.0906010418
H   H31       1.0  0.27120  0.05860  0.72000  1.0000 0.0906010418
H   H32       1.0  0.05860  0.27120  0.95020  1.0000 0.0906010418
H   H33       1.0  0.85990  0.89190  0.46670  1.0000 0.1081866704
H   H34       1.0  0.89190  0.85990  0.78150  1.0000 0.1081866704
H   H35       1.0  0.46850  0.78330  0.35810  1.0000 0.1081866704
H   H36       1.0  0.78330  0.46850  0.39010  1.0000 0.1081866704
H   H37       1.0  0.84800  0.97980  0.40540  1.0000 0.1081866704
H   H38       1.0  0.97980  0.84800  0.76680  1.0000 0.1081866704
H   H39       1.0  0.48320  0.84460  0.27020  1.0000 0.1081866704
H   H40       1.0  0.84460  0.48320  0.40200  1.0000 0.1081866704
H   H41       1.0  0.92330  0.84830  0.24270  1.0000 0.1081866704
H   H42       1.0  0.84830  0.92330  0.98570  1.0000 0.1081866704
H   H43       1.0  0.26430  0.00730  0.40170  1.0000 0.1081866704
H   H44       1.0  0.00730  0.26430  0.32670  1.0000 0.1081866704
H   H45       1.0  0.93700  0.75960  0.30340  1.0000 0.1081866704
H   H46       1.0  0.75960  0.93700  0.00000  1.0000 0.1081866704
H   H47       1.0  0.25000  0.94660  0.49040  1.0000 0.1081866704
H   H48       1.0  0.94660  0.25000  0.31300  1.0000 0.1081866704
H   H49       1.0  0.76910  0.70490  0.03410  1.0000 0.0906010418
H   H50       1.0  0.70490  0.76910  0.49190  1.0000 0.0906010418
H   H51       1.0  0.75810  0.21590  0.54510  1.0000 0.0906010418
H   H52       1.0  0.21590  0.75810  0.48090  1.0000 0.0906010418
H   H53       1.0  0.80250  0.59170  0.91130  1.0000 0.1299897426
H   H54       1.0  0.59170  0.80250  0.69450  1.0000 0.1299897426
H   H55       1.0  0.55550  0.33870  0.65830  1.0000 0.1299897426
H   H56       1.0  0.33870  0.55550  0.44750  1.0000 0.1299897426
H   H57       1.0  0.77640  0.42600  0.12500  1.0000 0.1299897426
H   H58       1.0  0.42600  0.77640  0.67260  1.0000 0.1299897426
H   H59       1.0  0.57740  0.12500  0.82400  1.0000 0.1299897426
H   H60       1.0  0.12500  0.57740  0.47360  1.0000 0.1299897426
H   H61       1.0  0.74550  0.54250  0.24090  1.0000 0.0906010418
H   H62       1.0  0.54250  0.74550  0.47110  1.0000 0.0906010418
H   H63       1.0  0.77890  0.00910  0.70750  1.0000 0.0906010418
H   H64       1.0  0.00910  0.77890  0.50450  1.0000 0.0906010418
H   H65       1.0  0.00880  0.99380  0.70500  1.0000 0.0906010418
H   H66       1.0  0.99380  0.00880  0.29240  1.0000 0.0906010418
H   H67       1.0  0.95760  0.54500  0.25620  1.0000 0.0906010418
H   H68       1.0  0.54500  0.95760  0.24120  1.0000 0.0906010418
H   H69       1.0  0.98820  0.10020  0.81700  1.0000 0.1299897426
H   H70       1.0  0.10020  0.98820  0.09460  1.0000 0.1299897426
H   H71       1.0  0.15540  0.43300  0.14980  1.0000 0.1299897426
H   H72       1.0  0.43300  0.15540  0.26180  1.0000 0.1299897426
H   H73       1.0  0.95840  0.30240  0.63620  1.0000 0.1299897426
H   H74       1.0  0.30240  0.95840  0.10300  1.0000 0.1299897426
H   H75       1.0  0.14700  0.61380  0.94760  1.0000 0.1299897426
H   H76       1.0  0.61380  0.14700  0.29160  1.0000 0.1299897426
H   H77       1.0  0.97880  0.19140  0.53000  1.0000 0.0906010418
H   H78       1.0  0.19140  0.97880  0.29980  1.0000 0.0906010418
H   H79       1.0  0.95020  0.72000  0.05860  1.0000 0.0906010418
H   H80       1.0  0.72000  0.95020  0.27120  1.0000 0.0906010418
H   H81       1.0  0.78150  0.46670  0.89190  1.0000 0.1081866704
H   H82       1.0  0.46670  0.78150  0.85990  1.0000 0.1081866704
H   H83       1.0  0.39010  0.35810  0.78330  1.0000 0.1081866704
H   H84       1.0  0.35810  0.39010  0.46850  1.0000 0.1081866704
H   H85       1.0  0.76680  0.40540  0.97980  1.0000 0.1081866704
H   H86       1.0  0.40540  0.76680  0.84800  1.0000 0.1081866704
H   H87       1.0  0.40200  0.27020  0.84460  1.0000 0.1081866704
H   H88       1.0  0.27020  0.40200  0.48320  1.0000 0.1081866704
H   H89       1.0  0.98570  0.24270  0.84830  1.0000 0.1081866704
H   H90       1.0  0.24270  0.98570  0.92330  1.0000 0.1081866704
H   H91       1.0  0.32670  0.40170  0.00730  1.0000 0.1081866704
H   H92       1.0  0.40170  0.32670  0.26430  1.0000 0.1081866704
H   H93       1.0  0.00000  0.30340  0.75960  1.0000 0.1081866704
H   H94       1.0  0.30340  0.00000  0.93700  1.0000 0.1081866704
H   H95       1.0  0.31300  0.49040  0.94660  1.0000 0.1081866704
H   H96       1.0  0.49040  0.31300  0.25000  1.0000 0.1081866704
C   C1        1.0  0.52883  0.05257  0.64703  1.0000 0.0343519407
C   C2        1.0  0.05257  0.52883  0.77157  1.0000 0.0343519407
C   C3        1.0  0.47843  0.60297  0.19743  1.0000 0.0343519407
C   C4        1.0  0.60297  0.47843  0.72117  1.0000 0.0343519407
C   C5        1.0  0.65125  0.97809  0.57931  1.0000 -0.2218822565
C   C6        1.0  0.97809  0.65125  0.79135  1.0000 -0.2218822565
C   C7        1.0  0.45865  0.67069  0.27191  1.0000 -0.2218822565
C   C8        1.0  0.67069  0.45865  0.59875  1.0000 -0.2218822565
C   C9        1.0  0.70883  0.00221  0.49439  1.0000 0.1445469799
C   C10       1.0  0.00221  0.70883  0.79457  1.0000 0.1445469799
C   C11       1.0  0.45543  0.75561  0.24779  1.0000 0.1454655434
C   C12       1.0  0.75561  0.45543  0.54117  1.0000 0.1445469799
C   C13       1.0  0.63810  0.10366  0.48194  1.0000 -0.2271932359
C   C14       1.0  0.10366  0.63810  0.77630  1.0000 -0.2271932359
C   C15       1.0  0.47370  0.76806  0.14634  1.0000 -0.2271932359
C   C16       1.0  0.76806  0.47370  0.61190  1.0000 -0.2271932359
C   C17       1.0  0.51651  0.17313  0.55267  1.0000 0.0373248883
C   C18       1.0  0.17313  0.51651  0.75769  1.0000 0.0373248883
C   C19       1.0  0.49231  0.69733  0.07687  1.0000 0.0373248883
C   C20       1.0  0.69733  0.49231  0.73349  1.0000 0.0373248883
C   C21       1.0  0.25321  0.69179  0.05801  1.0000 0.0373248883
C   C22       1.0  0.69179  0.25321  0.99699  1.0000 0.0373248883
C   C23       1.0  0.25301  0.19199  0.55821  1.0000 0.0373248883
C   C24       1.0  0.19199  0.25301  0.99679  1.0000 0.0373248883
C   C25       1.0  0.13400  0.75946  0.12134  1.0000 -0.2271932359
C   C26       1.0  0.75946  0.13400  0.98520  1.0000 -0.2271932359
C   C27       1.0  0.26480  0.12866  0.49054  1.0000 -0.2271932359
C   C28       1.0  0.12866  0.26480  0.11600  1.0000 -0.2271932359
C   C29       1.0  0.07319  0.74171  0.21629  1.0000 0.1445469799
C   C30       1.0  0.74171  0.07319  0.96881  1.0000 0.1445469799
C   C31       1.0  0.28119  0.03371  0.50829  1.0000 0.1445469799
C   C32       1.0  0.03371  0.28119  0.17681  1.0000 0.1445469799
C   C33       1.0  0.13912  0.65300  0.24040  1.0000 -0.2218822565
C   C34       1.0  0.65300  0.13912  0.96748  1.0000 -0.2218822565
C   C35       1.0  0.28252  0.00960  0.59700  1.0000 -0.2218822565
C   C36       1.0  0.00960  0.28252  0.11088  1.0000 -0.2218822565
C   C37       1.0  0.25762  0.58952  0.17328  1.0000 0.0343519407
C   C38       1.0  0.58952  0.25762  0.97958  1.0000 0.0343519407
C   C39       1.0  0.27042  0.07672  0.66048  1.0000 0.0343519407
C   C40       1.0  0.07672  0.27042  0.99238  1.0000 0.0343519407
C   C41       1.0  0.84207  0.92499  0.41841  1.0000 -0.2574275175
C   C42       1.0  0.92499  0.84207  0.81453  1.0000 -0.2574275175
C   C43       1.0  0.43547  0.83159  0.32501  1.0000 -0.2574275175
C   C44       1.0  0.83159  0.43547  0.40793  1.0000 -0.2574275175
C   C45       1.0  0.94139  0.81573  0.29087  1.0000 -0.2574275175
C   C46       1.0  0.81573  0.94139  0.95201  1.0000 -0.2574275175
C   C47       1.0  0.29799  0.95913  0.43427  1.0000 -0.2574275175
C   C48       1.0  0.95913  0.29799  0.30861  1.0000 -0.2574275175
C   C49       1.0  0.77157  0.64703  0.05257  1.0000 0.0343519407
C   C50       1.0  0.64703  0.77157  0.52883  1.0000 0.0343519407
C   C51       1.0  0.72117  0.19743  0.60297  1.0000 0.0343519407
C   C52       1.0  0.19743  0.72117  0.47843  1.0000 0.0343519407
C   C53       1.0  0.79135  0.57931  0.97809  1.0000 -0.2218822565
C   C54       1.0  0.57931  0.79135  0.65125  1.0000 -0.2218822565
C   C55       1.0  0.59875  0.27191  0.67069  1.0000 -0.2218822565
C   C56       1.0  0.27191  0.59875  0.45865  1.0000 -0.2218822565
C   C57       1.0  0.79457  0.49439  0.00221  1.0000 0.1454655434
C   C58       1.0  0.49439  0.79457  0.70883  1.0000 0.1454655434
C   C59       1.0  0.54117  0.24779  0.75561  1.0000 0.1445469799
C   C60       1.0  0.24779  0.54117  0.45543  1.0000 0.1454655434
C   C61       1.0  0.77630  0.48194  0.10366  1.0000 -0.2271932359
C   C62       1.0  0.48194  0.77630  0.63810  1.0000 -0.2271932359
C   C63       1.0  0.61190  0.14634  0.76806  1.0000 -0.2271932359
C   C64       1.0  0.14634  0.61190  0.47370  1.0000 -0.2271932359
C   C65       1.0  0.75769  0.55267  0.17313  1.0000 0.0373248883
C   C66       1.0  0.55267  0.75769  0.51651  1.0000 0.0373248883
C   C67       1.0  0.73349  0.07687  0.69733  1.0000 0.0373248883
C   C68       1.0  0.07687  0.73349  0.49231  1.0000 0.0373248883
C   C69       1.0  0.99699  0.05801  0.69179  1.0000 0.0373248883
C   C70       1.0  0.05801  0.99699  0.25321  1.0000 0.0373248883
C   C71       1.0  0.99679  0.55821  0.19199  1.0000 0.0373248883
C   C72       1.0  0.55821  0.99679  0.25301  1.0000 0.0373248883
C   C73       1.0  0.98520  0.12134  0.75946  1.0000 -0.2271932359
C   C74       1.0  0.12134  0.98520  0.13400  1.0000 -0.2271932359
C   C75       1.0  0.11600  0.49054  0.12866  1.0000 -0.2271932359
C   C76       1.0  0.49054  0.11600  0.26480  1.0000 -0.2271932359
C   C77       1.0  0.96881  0.21629  0.74171  1.0000 0.1445469799
C   C78       1.0  0.21629  0.96881  0.07319  1.0000 0.1445469799
C   C79       1.0  0.17681  0.50829  0.03371  1.0000 0.1445469799
C   C80       1.0  0.50829  0.17681  0.28119  1.0000 0.1445469799
C   C81       1.0  0.96748  0.24040  0.65300  1.0000 -0.2218822565
C   C82       1.0  0.24040  0.96748  0.13912  1.0000 -0.2218822565
C   C83       1.0  0.11088  0.59700  0.00960  1.0000 -0.2218822565
C   C84       1.0  0.59700  0.11088  0.28252  1.0000 -0.2218822565
C   C85       1.0  0.97958  0.17328  0.58952  1.0000 0.0343519407
C   C86       1.0  0.17328  0.97958  0.25762  1.0000 0.0343519407
C   C87       1.0  0.99238  0.66048  0.07672  1.0000 0.0373248883
C   C88       1.0  0.66048  0.99238  0.27042  1.0000 0.0343519407
C   C89       1.0  0.81453  0.41841  0.92499  1.0000 -0.2574275175
C   C90       1.0  0.41841  0.81453  0.84207  1.0000 -0.2574275175
C   C91       1.0  0.40793  0.32501  0.83159  1.0000 -0.2574275175
C   C92       1.0  0.32501  0.40793  0.43547  1.0000 -0.2574275175
C   C93       1.0  0.95201  0.29087  0.81573  1.0000 -0.2574275175
C   C94       1.0  0.29087  0.95201  0.94139  1.0000 -0.2574275175
C   C95       1.0  0.30861  0.43427  0.95913  1.0000 -0.2574275175
C   C96       1.0  0.43427  0.30861  0.29799  1.0000 -0.2574275175
N   N1        1.0  0.46037  0.14915  0.63445  1.0000 -0.2218822565
N   N2        1.0  0.14915  0.46037  0.75603  1.0000 -0.2218822565
N   N3        1.0  0.49397  0.61555  0.10085  1.0000 -0.2218822565
N   N4        1.0  0.61555  0.49397  0.78963  1.0000 -0.2218822565
N   N5        1.0  0.31590  0.60836  0.08344  1.0000 -0.2271932359
N   N6        1.0  0.60836  0.31590  0.99230  1.0000 -0.2271932359
N   N7        1.0  0.25770  0.16656  0.64164  1.0000 -0.2271932359
N   N8        1.0  0.16656  0.25770  0.93410  1.0000 -0.2271932359
N   N9        1.0  0.75603  0.63445  0.14915  1.0000 -0.2218822565
N   N10       1.0  0.63445  0.75603  0.46037  1.0000 -0.2218822565
N   N11       1.0  0.78963  0.10085  0.61555  1.0000 -0.2218822565
N   N12       1.0  0.10085  0.78963  0.49397  1.0000 -0.2218822565
N   N13       1.0  0.99230  0.08344  0.60836  1.0000 -0.2271932359
N   N14       1.0  0.08344  0.99230  0.31590  1.0000 -0.2271932359
N   N15       1.0  0.93410  0.64164  0.16656  1.0000 -0.2271932359
N   N16       1.0  0.64164  0.93410  0.25770  1.0000 -0.2271932359
