# DDEC6 charges by PACMAN v1.1 (https://github.com/mtap-research/PACMAN-charge/)
data_2017[Cu][dia]3[FSR]1
_chemical_formula_sum              "Cu2 H16 C16 N8"
_cell_length_a       12.0181
_cell_length_b       11.4503
_cell_length_c       9.84476
_cell_angle_alpha    68.2357
_cell_angle_beta     62.2323
_cell_angle_gamma    49.532

_symmetry_space_group_name_H-M    "P 1"
_symmetry_Int_Tables_number       1

loop_
  _symmetry_equiv_pos_as_xyz
  'x, y, z'

loop_
  _atom_site_type_symbol
  _atom_site_label
  _atom_site_symmetry_multiplicity
  _atom_site_fract_x
  _atom_site_fract_y
  _atom_site_fract_z
  _atom_site_occupancy
  _atom_site_charge
Cu  Cu1       1.0  0.72400  0.77600  0.77600  1.0000 0.1783890601
Cu  Cu2       1.0  0.47400  0.52600  0.52600  1.0000 0.1783890601
H   H1        1.0  0.60500  0.06080  0.89560  1.0000 0.1106306015
H   H2        1.0  0.43860  0.89560  0.06080  1.0000 0.1106306015
H   H3        1.0  0.18920  0.64500  0.81140  1.0000 0.1106306015
H   H4        1.0  0.35440  0.81140  0.64500  1.0000 0.1106306015
H   H5        1.0  0.54060  0.30140  0.80240  1.0000 0.1106306015
H   H6        1.0  0.35560  0.80240  0.30140  1.0000 0.1106306015
H   H7        1.0  0.94860  0.70940  0.89440  1.0000 0.1106306015
H   H8        1.0  0.44760  0.89440  0.70940  1.0000 0.1106306015
H   H9        1.0  0.59600  0.24020  0.40600  1.0000 0.1106306015
H   H10       1.0  0.75780  0.40600  0.24020  1.0000 0.1106306015
H   H11       1.0  0.00980  0.65400  0.49220  1.0000 0.1106306015
H   H12       1.0  0.84400  0.49220  0.65400  1.0000 0.1106306015
H   H13       1.0  0.66060  0.99820  0.50000  1.0000 0.1106306015
H   H14       1.0  0.84120  0.50000  0.99820  1.0000 0.1106306015
H   H15       1.0  0.25180  0.58940  0.40880  1.0000 0.1106306015
H   H16       1.0  0.75000  0.40880  0.58940  1.0000 0.1106306015
C   C1        1.0  0.60400  0.09580  0.79420  1.0000 -0.044191315
C   C2        1.0  0.50600  0.79420  0.09580  1.0000 -0.044191315
C   C3        1.0  0.15420  0.64600  0.74400  1.0000 -0.044191315
C   C4        1.0  0.45580  0.74400  0.64600  1.0000 -0.044191315
C   C5        1.0  0.56570  0.24030  0.73750  1.0000 -0.0180862213
C   C6        1.0  0.45650  0.73750  0.24030  1.0000 -0.0180862213
C   C7        1.0  0.00970  0.68430  0.79350  1.0000 -0.0180862213
C   C8        1.0  0.51250  0.79350  0.68430  1.0000 -0.0180862213
C   C9        1.0  0.59790  0.20490  0.50710  1.0000 -0.044191315
C   C10       1.0  0.69010  0.50710  0.20490  1.0000 -0.044191315
C   C11       1.0  0.04510  0.65210  0.55990  1.0000 -0.044191315
C   C12       1.0  0.74290  0.55990  0.65210  1.0000 -0.044191315
C   C13       1.0  0.63650  0.05930  0.56410  1.0000 -0.0130061764
C   C14       1.0  0.74010  0.56410  0.05930  1.0000 -0.0130061764
C   C15       1.0  0.19070  0.61350  0.50990  1.0000 -0.0130061764
C   C16       1.0  0.68590  0.50990  0.61350  1.0000 -0.0130061764
N   N1        1.0  0.64120  0.00100  0.70680  1.0000 -0.2031327087
N   N2        1.0  0.65100  0.70680  0.00100  1.0000 -0.2065478463
N   N3        1.0  0.24900  0.60880  0.59900  1.0000 -0.2065478463
N   N4        1.0  0.54320  0.59900  0.60880  1.0000 -0.2065478463
N   N5        1.0  0.56190  0.29950  0.59430  1.0000 -0.2065478463
N   N6        1.0  0.54430  0.59430  0.29950  1.0000 -0.2065478463
N   N7        1.0  0.95050  0.68810  0.70570  1.0000 -0.2065478463
N   N8        1.0  0.65570  0.70570  0.68810  1.0000 -0.2065478463
