# DDEC6 charges by PACMAN v1.1 (https://github.com/mtap-research/PACMAN-charge/)
data_2019[Cu][dia]3[FSR]2
_chemical_formula_sum              "Cu2 H40 C56 N4 O8"
_cell_length_a       13.9254
_cell_length_b       13.9254
_cell_length_c       8.5262
_cell_angle_alpha    86.1196
_cell_angle_beta     93.8804
_cell_angle_gamma    56.9294

_symmetry_space_group_name_H-M    "P 1"
_symmetry_Int_Tables_number       1

loop_
  _symmetry_equiv_pos_as_xyz
  'x, y, z'

loop_
  _atom_site_type_symbol
  _atom_site_label
  _atom_site_symmetry_multiplicity
  _atom_site_fract_x
  _atom_site_fract_y
  _atom_site_fract_z
  _atom_site_occupancy
  _atom_site_charge
Cu  Cu1       1.0  0.46084  0.33744  0.53644  1.0000 0.7164205274
Cu  Cu2       1.0  0.66256  0.53916  0.03644  1.0000 0.7164205274
H   H1        1.0  0.41250  0.17810  0.67690  1.0000 0.1186472128
H   H2        1.0  0.43860  0.07240  0.91560  1.0000 0.1309255323
H   H3        1.0  0.57420  0.23260  0.12430  1.0000 0.1503799072
H   H4        1.0  0.54630  0.33210  0.87910  1.0000 0.1100544833
H   H5        1.0  0.54580  0.10400  0.29570  1.0000 0.1309255323
H   H6        1.0  0.51320  0.95460  0.13600  1.0000 0.1100544833
H   H7        1.0  0.53440  0.79260  0.28600  1.0000 0.1100544833
H   H8        1.0  0.57030  0.67810  0.52130  1.0000 0.1100544833
H   H9        1.0  0.63500  0.88260  0.76060  1.0000 0.1186472128
H   H10       1.0  0.59120  0.00200  0.52680  1.0000 0.1186472128
H   H11       1.0  0.76730  0.00470  0.40530  1.0000 0.1186472128
H   H12       1.0  0.94590  0.88630  0.31530  1.0000 0.1100544833
H   H13       1.0  0.01530  0.12930  0.36500  1.0000 0.1186472128
H   H14       1.0  0.83910  0.24490  0.46070  1.0000 0.1100544833
H   H15       1.0  0.14810  0.96650  0.24380  1.0000 0.1100544833
H   H16       1.0  0.12640  0.77940  0.25370  1.0000 0.1186472128
H   H17       1.0  0.49820  0.49400  0.16810  1.0000 0.1186472128
H   H18       1.0  0.31360  0.59420  0.24310  1.0000 0.1368420831
H   H19       1.0  0.27980  0.89300  0.08300  1.0000 0.1309255323
H   H20       1.0  0.46360  0.78500  0.00830  1.0000 0.1100544833
H   H21       1.0  0.82190  0.58750  0.17690  1.0000 0.1186472128
H   H22       1.0  0.92760  0.56140  0.41560  1.0000 0.1309255323
H   H23       1.0  0.76740  0.42580  0.62430  1.0000 0.1503799072
H   H24       1.0  0.66790  0.45370  0.37910  1.0000 0.1100544833
H   H25       1.0  0.89600  0.45420  0.79570  1.0000 0.1309255323
H   H26       1.0  0.04540  0.48680  0.63600  1.0000 0.1100544833
H   H27       1.0  0.20740  0.46560  0.78600  1.0000 0.1100544833
H   H28       1.0  0.32190  0.42970  0.02130  1.0000 0.1100544833
H   H29       1.0  0.11740  0.36500  0.26060  1.0000 0.1186472128
H   H30       1.0  0.99800  0.40880  0.02680  1.0000 0.1186472128
H   H31       1.0  0.99530  0.23270  0.90530  1.0000 0.1186472128
H   H32       1.0  0.11370  0.05410  0.81530  1.0000 0.1100544833
H   H33       1.0  0.87070  0.98470  0.86500  1.0000 0.1186472128
H   H34       1.0  0.75510  0.16090  0.96070  1.0000 0.1100544833
H   H35       1.0  0.03350  0.85190  0.74380  1.0000 0.1100544833
H   H36       1.0  0.22060  0.87360  0.75370  1.0000 0.1186472128
H   H37       1.0  0.50600  0.50180  0.66810  1.0000 0.1186472128
H   H38       1.0  0.40580  0.68640  0.74310  1.0000 0.1368420831
H   H39       1.0  0.10700  0.72020  0.58300  1.0000 0.1309255323
H   H40       1.0  0.21500  0.53640  0.50830  1.0000 0.1100544833
C   C1        1.0  0.44663  0.18843  0.76910  1.0000 0.08023018
C   C2        1.0  0.46133  0.12553  0.91130  1.0000 -0.1875466892
C   C3        1.0  0.50977  0.14047  0.04910  1.0000 0.1664774379
C   C4        1.0  0.54121  0.21933  0.03400  1.0000 -0.1813825631
C   C5        1.0  0.52425  0.27851  0.88690  1.0000 0.08023018
C   C6        1.0  0.53124  0.07570  0.20490  1.0000 -0.1428599172
C   C7        1.0  0.53156  0.97990  0.22710  1.0000 -0.1295780615
C   C8        1.0  0.55784  0.90986  0.38000  1.0000 0.1309255323
C   C9        1.0  0.55338  0.81218  0.38270  1.0000 -0.1587665318
C   C10       1.0  0.57607  0.74293  0.52260  1.0000 -0.1031633058
C   C11       1.0  0.60716  0.76758  0.66520  1.0000 -0.0292534941
C   C12       1.0  0.61323  0.86495  0.66410  1.0000 -0.1064045505
C   C13       1.0  0.58807  0.93561  0.52490  1.0000 -0.1507128366
C   C14       1.0  0.63411  0.69199  0.81650  1.0000 0.5329952798
C   C15       1.0  0.66709  0.21967  0.48740  1.0000 0.5369791648
C   C16       1.0  0.78436  0.13780  0.43840  1.0000 -0.0183303358
C   C17       1.0  0.81755  0.03063  0.39670  1.0000 -0.1064045505
C   C18       1.0  0.92388  0.96010  0.34210  1.0000 -0.1587665318
C   C19       1.0  0.99799  0.99679  0.32660  1.0000 0.1100544833
C   C20       1.0  0.96498  0.10338  0.37230  1.0000 -0.1507128366
C   C21       1.0  0.85956  0.17276  0.42860  1.0000 -0.0914499798
C   C22       1.0  0.10999  0.92839  0.26510  1.0000 -0.1295780615
C   C23       1.0  0.16363  0.81883  0.23600  1.0000 -0.1587665318
C   C24       1.0  0.45373  0.57601  0.15290  1.0000 0.0719898677
C   C25       1.0  0.34353  0.63549  0.19840  1.0000 -0.1813825631
C   C26       1.0  0.27689  0.75575  0.17820  1.0000 0.1664774379
C   C27       1.0  0.32356  0.81110  0.10370  1.0000 -0.1994404086
C   C28       1.0  0.43371  0.74607  0.06010  1.0000 0.08023018
C   C29       1.0  0.81157  0.55337  0.26910  1.0000 0.08023018
C   C30       1.0  0.87447  0.53867  0.41130  1.0000 -0.1875466892
C   C31       1.0  0.85953  0.49023  0.54910  1.0000 0.1664774379
C   C32       1.0  0.78067  0.45879  0.53400  1.0000 -0.1813825631
C   C33       1.0  0.72149  0.47575  0.38690  1.0000 0.08023018
C   C34       1.0  0.92430  0.46876  0.70490  1.0000 -0.1428599172
C   C35       1.0  0.02010  0.46844  0.72710  1.0000 -0.1295780615
C   C36       1.0  0.09014  0.44216  0.88000  1.0000 0.1309255323
C   C37       1.0  0.18782  0.44662  0.88270  1.0000 -0.1587665318
C   C38       1.0  0.25707  0.42393  0.02260  1.0000 -0.1031633058
C   C39       1.0  0.23242  0.39284  0.16520  1.0000 -0.0292534941
C   C40       1.0  0.13505  0.38677  0.16410  1.0000 -0.1064045505
C   C41       1.0  0.06439  0.41193  0.02490  1.0000 -0.1507128366
C   C42       1.0  0.30801  0.36589  0.31650  1.0000 0.5329952798
C   C43       1.0  0.78033  0.33291  0.98740  1.0000 0.5369791648
C   C44       1.0  0.86220  0.21564  0.93840  1.0000 -0.0183303358
C   C45       1.0  0.96937  0.18245  0.89670  1.0000 -0.1064045505
C   C46       1.0  0.03990  0.07612  0.84210  1.0000 -0.1587665318
C   C47       1.0  0.00321  0.00201  0.82660  1.0000 0.1100544833
C   C48       1.0  0.89662  0.03502  0.87230  1.0000 -0.1507128366
C   C49       1.0  0.82724  0.14044  0.92860  1.0000 -0.0914499798
C   C50       1.0  0.07161  0.89001  0.76510  1.0000 -0.1295780615
C   C51       1.0  0.18117  0.83637  0.73600  1.0000 -0.1587665318
C   C52       1.0  0.42399  0.54627  0.65290  1.0000 0.0719898677
C   C53       1.0  0.36451  0.65647  0.69840  1.0000 -0.1813825631
C   C54       1.0  0.24425  0.72311  0.67820  1.0000 0.1664774379
C   C55       1.0  0.18890  0.67644  0.60370  1.0000 -0.1994404086
C   C56       1.0  0.25393  0.56629  0.56010  1.0000 0.08023018
N   N1        1.0  0.47844  0.26398  0.75570  1.0000 -0.2436143347
N   N2        1.0  0.49983  0.63047  0.08800  1.0000 -0.2503281274
N   N3        1.0  0.73602  0.52156  0.25570  1.0000 -0.2436143347
N   N4        1.0  0.36953  0.50017  0.58800  1.0000 -0.2503281274
O   O1        1.0  0.61450  0.61268  0.81210  1.0000 -0.5310474673
O   O2        1.0  0.67326  0.70832  0.94090  1.0000 -0.5762463251
O   O3        1.0  0.59598  0.18882  0.48530  1.0000 -0.520605568
O   O4        1.0  0.64047  0.31529  0.52590  1.0000 -0.5576336422
O   O5        1.0  0.38732  0.38550  0.31210  1.0000 -0.5310474673
O   O6        1.0  0.29168  0.32674  0.44090  1.0000 -0.5762463251
O   O7        1.0  0.81118  0.40402  0.98530  1.0000 -0.520605568
O   O8        1.0  0.68471  0.35953  0.02590  1.0000 -0.5576336422
