# DDEC6 charges by PACMAN v1.1 (https://github.com/mtap-research/PACMAN-charge/)
data_2020[Zn][sra]3[FSR]1
_chemical_formula_sum              "Zn8 H192 C224 N32 O40"
_cell_length_a       14.6653
_cell_length_b       19.388
_cell_length_c       19.5968
_cell_angle_alpha    90
_cell_angle_beta     90
_cell_angle_gamma    90

_symmetry_space_group_name_H-M    "P 1"
_symmetry_Int_Tables_number       1

loop_
  _symmetry_equiv_pos_as_xyz
  'x, y, z'

loop_
  _atom_site_type_symbol
  _atom_site_label
  _atom_site_symmetry_multiplicity
  _atom_site_fract_x
  _atom_site_fract_y
  _atom_site_fract_z
  _atom_site_occupancy
  _atom_site_charge
Zn  Zn1       1.0  0.34812  0.49844  0.28917  1.0000 0.7520935967
Zn  Zn2       1.0  0.15188  0.00156  0.28917  1.0000 0.7520935967
Zn  Zn3       1.0  0.65188  0.50156  0.71083  1.0000 0.7520935967
Zn  Zn4       1.0  0.84812  0.99844  0.71083  1.0000 0.7520935967
Zn  Zn5       1.0  0.65188  0.99844  0.21083  1.0000 0.7520935967
Zn  Zn6       1.0  0.84812  0.50156  0.21083  1.0000 0.7520935967
Zn  Zn7       1.0  0.34812  0.00156  0.78917  1.0000 0.7520935967
Zn  Zn8       1.0  0.15188  0.49844  0.78917  1.0000 0.7520935967
H   H1        1.0  0.51300  0.53150  0.20290  1.0000 0.1101404296
H   H2        1.0  0.63020  0.60960  0.19690  1.0000 0.1476714707
H   H3        1.0  0.54070  0.69050  0.37650  1.0000 0.1312035362
H   H4        1.0  0.42320  0.61380  0.37340  1.0000 0.1034472681
H   H5        1.0  0.68040  0.71930  0.38730  1.0000 0.1101404296
H   H6        1.0  0.66750  0.78990  0.34590  1.0000 0.1195502403
H   H7        1.0  0.68920  0.70990  0.18290  1.0000 0.1195502403
H   H8        1.0  0.77520  0.67860  0.22260  1.0000 0.1101404296
H   H9        1.0  0.19470  0.57930  0.24010  1.0000 0.1101404296
H   H10       1.0  0.09310  0.58660  0.15250  1.0000 0.1195502403
H   H11       1.0  0.20990  0.41720  0.06950  1.0000 0.1312035362
H   H12       1.0  0.31170  0.41770  0.15830  1.0000 0.1101404296
H   H13       1.0  0.11220  0.41490  0.00210  1.0000 0.1101404296
H   H14       1.0  0.11180  0.48120  0.95330  1.0000 0.1195502403
H   H15       1.0  0.04630  0.59210  0.00180  1.0000 0.1101404296
H   H16       1.0  0.00900  0.58970  0.07860  1.0000 0.1101404296
H   H17       1.0  0.43410  0.30300  0.38260  1.0000 0.1195502403
H   H18       1.0  0.51980  0.20730  0.41780  1.0000 0.1361663276
H   H19       1.0  0.66570  0.21790  0.24280  1.0000 0.1361663276
H   H20       1.0  0.57940  0.31210  0.20790  1.0000 0.1195502403
H   H21       1.0  0.76040  0.18700  0.44190  1.0000 0.1312035362
H   H22       1.0  0.78690  0.13450  0.54800  1.0000 0.1101404296
H   H23       1.0  0.59030  0.99520  0.50690  1.0000 0.1195502403
H   H24       1.0  0.56110  0.04960  0.40330  1.0000 0.1361663276
H   H25       1.0  0.98700  0.96850  0.20290  1.0000 0.1101404296
H   H26       1.0  0.86980  0.89040  0.19690  1.0000 0.1476714707
H   H27       1.0  0.95930  0.80950  0.37650  1.0000 0.1312035362
H   H28       1.0  0.07680  0.88620  0.37340  1.0000 0.1034472681
H   H29       1.0  0.81960  0.78070  0.38730  1.0000 0.1101404296
H   H30       1.0  0.83250  0.71010  0.34590  1.0000 0.1195502403
H   H31       1.0  0.81080  0.79010  0.18290  1.0000 0.1195502403
H   H32       1.0  0.72480  0.82140  0.22260  1.0000 0.1101404296
H   H33       1.0  0.30530  0.92070  0.24010  1.0000 0.1101404296
H   H34       1.0  0.40690  0.91340  0.15250  1.0000 0.1195502403
H   H35       1.0  0.29010  0.08280  0.06950  1.0000 0.1312035362
H   H36       1.0  0.18830  0.08230  0.15830  1.0000 0.1101404296
H   H37       1.0  0.38780  0.08510  0.00210  1.0000 0.1101404296
H   H38       1.0  0.38820  0.01880  0.95330  1.0000 0.1101404296
H   H39       1.0  0.45370  0.90790  0.00180  1.0000 0.1101404296
H   H40       1.0  0.49100  0.91030  0.07860  1.0000 0.1101404296
H   H41       1.0  0.06590  0.19700  0.38260  1.0000 0.1195502403
H   H42       1.0  0.98020  0.29270  0.41780  1.0000 0.1361663276
H   H43       1.0  0.83430  0.28210  0.24280  1.0000 0.1361663276
H   H44       1.0  0.92060  0.18790  0.20790  1.0000 0.1195502403
H   H45       1.0  0.73960  0.31300  0.44190  1.0000 0.1312035362
H   H46       1.0  0.71310  0.36550  0.54800  1.0000 0.1101404296
H   H47       1.0  0.90970  0.50480  0.50690  1.0000 0.1195502403
H   H48       1.0  0.93890  0.45040  0.40330  1.0000 0.1361663276
H   H49       1.0  0.48700  0.46850  0.79710  1.0000 0.1101404296
H   H50       1.0  0.36980  0.39040  0.80310  1.0000 0.1476714707
H   H51       1.0  0.45930  0.30950  0.62350  1.0000 0.1312035362
H   H52       1.0  0.57680  0.38620  0.62660  1.0000 0.1034472681
H   H53       1.0  0.31960  0.28070  0.61270  1.0000 0.1101404296
H   H54       1.0  0.33250  0.21010  0.65410  1.0000 0.1195502403
H   H55       1.0  0.31080  0.29010  0.81710  1.0000 0.1195502403
H   H56       1.0  0.22480  0.32140  0.77740  1.0000 0.1101404296
H   H57       1.0  0.80530  0.42070  0.75990  1.0000 0.1101404296
H   H58       1.0  0.90690  0.41340  0.84750  1.0000 0.1195502403
H   H59       1.0  0.79010  0.58280  0.93050  1.0000 0.1312035362
H   H60       1.0  0.68830  0.58230  0.84170  1.0000 0.1101404296
H   H61       1.0  0.88780  0.58510  0.99790  1.0000 0.1101404296
H   H62       1.0  0.88820  0.51880  0.04670  1.0000 0.1101404296
H   H63       1.0  0.95370  0.40790  0.99820  1.0000 0.1101404296
H   H64       1.0  0.99100  0.41030  0.92140  1.0000 0.1101404296
H   H65       1.0  0.56590  0.69700  0.61740  1.0000 0.1195502403
H   H66       1.0  0.48020  0.79270  0.58220  1.0000 0.1361663276
H   H67       1.0  0.33430  0.78210  0.75720  1.0000 0.1361663276
H   H68       1.0  0.42060  0.68790  0.79210  1.0000 0.1195502403
H   H69       1.0  0.23960  0.81300  0.55810  1.0000 0.1312035362
H   H70       1.0  0.21310  0.86550  0.45200  1.0000 0.1101404296
H   H71       1.0  0.40970  0.00480  0.49310  1.0000 0.1195502403
H   H72       1.0  0.43890  0.95040  0.59670  1.0000 0.1361663276
H   H73       1.0  0.01300  0.03150  0.79710  1.0000 0.1101404296
H   H74       1.0  0.13020  0.10960  0.80310  1.0000 0.1476714707
H   H75       1.0  0.04070  0.19050  0.62350  1.0000 0.1312035362
H   H76       1.0  0.92320  0.11380  0.62660  1.0000 0.1034472681
H   H77       1.0  0.18040  0.21930  0.61270  1.0000 0.1101404296
H   H78       1.0  0.16750  0.28990  0.65410  1.0000 0.1195502403
H   H79       1.0  0.18920  0.20990  0.81710  1.0000 0.1195502403
H   H80       1.0  0.27520  0.17860  0.77740  1.0000 0.1101404296
H   H81       1.0  0.69470  0.07930  0.75990  1.0000 0.1101404296
H   H82       1.0  0.59310  0.08660  0.84750  1.0000 0.1195502403
H   H83       1.0  0.70990  0.91720  0.93050  1.0000 0.1312035362
H   H84       1.0  0.81170  0.91770  0.84170  1.0000 0.1101404296
H   H85       1.0  0.61220  0.91490  0.99790  1.0000 0.1101404296
H   H86       1.0  0.61180  0.98120  0.04670  1.0000 0.1101404296
H   H87       1.0  0.54630  0.09210  0.99820  1.0000 0.1101404296
H   H88       1.0  0.50900  0.08970  0.92140  1.0000 0.1101404296
H   H89       1.0  0.93410  0.80300  0.61740  1.0000 0.1195502403
H   H90       1.0  0.01980  0.70730  0.58220  1.0000 0.1361663276
H   H91       1.0  0.16570  0.71790  0.75720  1.0000 0.1361663276
H   H92       1.0  0.07940  0.81210  0.79210  1.0000 0.1195502403
H   H93       1.0  0.26040  0.68700  0.55810  1.0000 0.1312035362
H   H94       1.0  0.28690  0.63450  0.45200  1.0000 0.1101404296
H   H95       1.0  0.09030  0.49520  0.49310  1.0000 0.1195502403
H   H96       1.0  0.06110  0.54960  0.59670  1.0000 0.1361663276
H   H97       1.0  0.48700  0.03150  0.29710  1.0000 0.1101404296
H   H98       1.0  0.36980  0.10960  0.30310  1.0000 0.1476714707
H   H99       1.0  0.45930  0.19050  0.12350  1.0000 0.1312035362
H   H100      1.0  0.57680  0.11380  0.12660  1.0000 0.1034472681
H   H101      1.0  0.31960  0.21930  0.11270  1.0000 0.1101404296
H   H102      1.0  0.33250  0.28990  0.15410  1.0000 0.1195502403
H   H103      1.0  0.31080  0.20990  0.31710  1.0000 0.1195502403
H   H104      1.0  0.22480  0.17860  0.27740  1.0000 0.1101404296
H   H105      1.0  0.80530  0.07930  0.25990  1.0000 0.1101404296
H   H106      1.0  0.90690  0.08660  0.34750  1.0000 0.1195502403
H   H107      1.0  0.79010  0.91720  0.43050  1.0000 0.1312035362
H   H108      1.0  0.68830  0.91770  0.34170  1.0000 0.1101404296
H   H109      1.0  0.88780  0.91490  0.49790  1.0000 0.1101404296
H   H110      1.0  0.88820  0.98120  0.54670  1.0000 0.1195502403
H   H111      1.0  0.95370  0.09210  0.49820  1.0000 0.1101404296
H   H112      1.0  0.99100  0.08970  0.42140  1.0000 0.1101404296
H   H113      1.0  0.56590  0.80300  0.11740  1.0000 0.1195502403
H   H114      1.0  0.48020  0.70730  0.08220  1.0000 0.1361663276
H   H115      1.0  0.33430  0.71790  0.25720  1.0000 0.1361663276
H   H116      1.0  0.42060  0.81210  0.29210  1.0000 0.1195502403
H   H117      1.0  0.23960  0.68700  0.05810  1.0000 0.1312035362
H   H118      1.0  0.21310  0.63450  0.95200  1.0000 0.1101404296
H   H119      1.0  0.40970  0.49520  0.99310  1.0000 0.1195502403
H   H120      1.0  0.43890  0.54960  0.09670  1.0000 0.1361663276
H   H121      1.0  0.01300  0.46850  0.29710  1.0000 0.1101404296
H   H122      1.0  0.13020  0.39040  0.30310  1.0000 0.1476714707
H   H123      1.0  0.04070  0.30950  0.12350  1.0000 0.1312035362
H   H124      1.0  0.92320  0.38620  0.12660  1.0000 0.1034472681
H   H125      1.0  0.18040  0.28070  0.11270  1.0000 0.1101404296
H   H126      1.0  0.16750  0.21010  0.15410  1.0000 0.1195502403
H   H127      1.0  0.18920  0.29010  0.31710  1.0000 0.1195502403
H   H128      1.0  0.27520  0.32140  0.27740  1.0000 0.1101404296
H   H129      1.0  0.69470  0.42070  0.25990  1.0000 0.1101404296
H   H130      1.0  0.59310  0.41340  0.34750  1.0000 0.1195502403
H   H131      1.0  0.70990  0.58280  0.43050  1.0000 0.1312035362
H   H132      1.0  0.81170  0.58230  0.34170  1.0000 0.1101404296
H   H133      1.0  0.61220  0.58510  0.49790  1.0000 0.1101404296
H   H134      1.0  0.61180  0.51880  0.54670  1.0000 0.1195502403
H   H135      1.0  0.54630  0.40790  0.49820  1.0000 0.1101404296
H   H136      1.0  0.50900  0.41030  0.42140  1.0000 0.1101404296
H   H137      1.0  0.93410  0.69700  0.11740  1.0000 0.1195502403
H   H138      1.0  0.01980  0.79270  0.08220  1.0000 0.1361663276
H   H139      1.0  0.16570  0.78210  0.25720  1.0000 0.1361663276
H   H140      1.0  0.07940  0.68790  0.29210  1.0000 0.1195502403
H   H141      1.0  0.26040  0.81300  0.05810  1.0000 0.1312035362
H   H142      1.0  0.28690  0.86550  0.95200  1.0000 0.1101404296
H   H143      1.0  0.09030  0.00480  0.99310  1.0000 0.1195502403
H   H144      1.0  0.06110  0.95040  0.09670  1.0000 0.1361663276
H   H145      1.0  0.51300  0.96850  0.70290  1.0000 0.1101404296
H   H146      1.0  0.63020  0.89040  0.69690  1.0000 0.1476714707
H   H147      1.0  0.54070  0.80950  0.87650  1.0000 0.1312035362
H   H148      1.0  0.42320  0.88620  0.87340  1.0000 0.1034472681
H   H149      1.0  0.68040  0.78070  0.88730  1.0000 0.1101404296
H   H150      1.0  0.66750  0.71010  0.84590  1.0000 0.1195502403
H   H151      1.0  0.68920  0.79010  0.68290  1.0000 0.1195502403
H   H152      1.0  0.77520  0.82140  0.72260  1.0000 0.1101404296
H   H153      1.0  0.19470  0.92070  0.74010  1.0000 0.1101404296
H   H154      1.0  0.09310  0.91340  0.65250  1.0000 0.1195502403
H   H155      1.0  0.20990  0.08280  0.56950  1.0000 0.1312035362
H   H156      1.0  0.31170  0.08230  0.65830  1.0000 0.1101404296
H   H157      1.0  0.11220  0.08510  0.50210  1.0000 0.1101404296
H   H158      1.0  0.11180  0.01880  0.45330  1.0000 0.1195502403
H   H159      1.0  0.04630  0.90790  0.50180  1.0000 0.1101404296
H   H160      1.0  0.00900  0.91030  0.57860  1.0000 0.1101404296
H   H161      1.0  0.43410  0.19700  0.88260  1.0000 0.1195502403
H   H162      1.0  0.51980  0.29270  0.91780  1.0000 0.1361663276
H   H163      1.0  0.66570  0.28210  0.74280  1.0000 0.1361663276
H   H164      1.0  0.57940  0.18790  0.70790  1.0000 0.1195502403
H   H165      1.0  0.76040  0.31300  0.94190  1.0000 0.1312035362
H   H166      1.0  0.78690  0.36550  0.04800  1.0000 0.1101404296
H   H167      1.0  0.59030  0.50480  0.00690  1.0000 0.1195502403
H   H168      1.0  0.56110  0.45040  0.90330  1.0000 0.1361663276
H   H169      1.0  0.98700  0.53150  0.70290  1.0000 0.1101404296
H   H170      1.0  0.86980  0.60960  0.69690  1.0000 0.1476714707
H   H171      1.0  0.95930  0.69050  0.87650  1.0000 0.1312035362
H   H172      1.0  0.07680  0.61380  0.87340  1.0000 0.1034472681
H   H173      1.0  0.81960  0.71930  0.88730  1.0000 0.1101404296
H   H174      1.0  0.83250  0.78990  0.84590  1.0000 0.1195502403
H   H175      1.0  0.81080  0.70990  0.68290  1.0000 0.1195502403
H   H176      1.0  0.72480  0.67860  0.72260  1.0000 0.1101404296
H   H177      1.0  0.30530  0.57930  0.74010  1.0000 0.1101404296
H   H178      1.0  0.40690  0.58660  0.65250  1.0000 0.1195502403
H   H179      1.0  0.29010  0.41720  0.56950  1.0000 0.1312035362
H   H180      1.0  0.18830  0.41770  0.65830  1.0000 0.1101404296
H   H181      1.0  0.38780  0.41490  0.50210  1.0000 0.1101404296
H   H182      1.0  0.38820  0.48120  0.45330  1.0000 0.1101404296
H   H183      1.0  0.45370  0.59210  0.50180  1.0000 0.1101404296
H   H184      1.0  0.49100  0.58970  0.57860  1.0000 0.1101404296
H   H185      1.0  0.06590  0.30300  0.88260  1.0000 0.1195502403
H   H186      1.0  0.98020  0.20730  0.91780  1.0000 0.1361663276
H   H187      1.0  0.83430  0.21790  0.74280  1.0000 0.1361663276
H   H188      1.0  0.92060  0.31210  0.70790  1.0000 0.1195502403
H   H189      1.0  0.73960  0.18700  0.94190  1.0000 0.1312035362
H   H190      1.0  0.71310  0.13450  0.04800  1.0000 0.1101404296
H   H191      1.0  0.90970  0.99520  0.00690  1.0000 0.1195502403
H   H192      1.0  0.93890  0.04960  0.90330  1.0000 0.1361663276
C   C1        1.0  0.51808  0.56525  0.23791  1.0000 0.0901284382
C   C2        1.0  0.58913  0.61098  0.23437  1.0000 -0.2488639426
C   C3        1.0  0.60094  0.66010  0.28663  1.0000 0.2359669938
C   C4        1.0  0.53601  0.65901  0.33956  1.0000 -0.2699015256
C   C5        1.0  0.46658  0.61265  0.33747  1.0000 0.0747884943
C   C6        1.0  0.69870  0.74464  0.34565  1.0000 -0.1216820671
C   C7        1.0  0.72767  0.71484  0.22409  1.0000 -0.1216820671
C   C8        1.0  0.19820  0.54604  0.20461  1.0000 0.0901284382
C   C9        1.0  0.13655  0.55023  0.15278  1.0000 -0.2488639426
C   C10       1.0  0.13624  0.50166  0.09982  1.0000 0.2348834409
C   C11       1.0  0.20507  0.45153  0.10389  1.0000 -0.2699015256
C   C12       1.0  0.26555  0.45207  0.15754  1.0000 0.0901284382
C   C13       1.0  0.07788  0.45714  0.98991  1.0000 -0.1216820671
C   C14       1.0  0.01553  0.56265  0.03608  1.0000 -0.1216820671
C   C15       1.0  0.44740  0.38055  0.27090  1.0000 0.5319120123
C   C16       1.0  0.49850  0.31705  0.29211  1.0000 -0.0559815929
C   C17       1.0  0.48120  0.28560  0.35414  1.0000 -0.1003471228
C   C18       1.0  0.53180  0.22891  0.37526  1.0000 -0.2317401308
C   C19       1.0  0.60040  0.20445  0.33282  1.0000 0.2537715866
C   C20       1.0  0.61840  0.23511  0.27118  1.0000 -0.2166296632
C   C21       1.0  0.56740  0.29106  0.25077  1.0000 -0.1003471228
C   C22       1.0  0.65880  0.12156  0.41333  1.0000 0.2348834409
C   C23       1.0  0.72590  0.14783  0.45539  1.0000 -0.2166296632
C   C24       1.0  0.74220  0.11603  0.51798  1.0000 -0.1003471228
C   C25       1.0  0.69380  0.05782  0.53656  1.0000 -0.0382097193
C   C26       1.0  0.62560  0.03410  0.49376  1.0000 -0.0845598306
C   C27       1.0  0.60820  0.06620  0.43224  1.0000 -0.2030642793
C   C28       1.0  0.71970  0.01762  0.59924  1.0000 0.5528157189
C   C29       1.0  0.98192  0.93475  0.23791  1.0000 0.0901284382
C   C30       1.0  0.91087  0.88902  0.23437  1.0000 -0.2488639426
C   C31       1.0  0.89906  0.83990  0.28663  1.0000 0.2359669938
C   C32       1.0  0.96399  0.84099  0.33956  1.0000 -0.2699015256
C   C33       1.0  0.03342  0.88735  0.33747  1.0000 0.0747884943
C   C34       1.0  0.80130  0.75536  0.34565  1.0000 -0.1216820671
C   C35       1.0  0.77233  0.78516  0.22409  1.0000 -0.1216820671
C   C36       1.0  0.30180  0.95396  0.20461  1.0000 0.0901284382
C   C37       1.0  0.36345  0.94977  0.15278  1.0000 -0.2488639426
C   C38       1.0  0.36376  0.99834  0.09982  1.0000 0.2348834409
C   C39       1.0  0.29493  0.04847  0.10389  1.0000 -0.2699015256
C   C40       1.0  0.23445  0.04793  0.15754  1.0000 0.0901284382
C   C41       1.0  0.42212  0.04286  0.98991  1.0000 -0.1216820671
C   C42       1.0  0.48447  0.93735  0.03608  1.0000 -0.1216820671
C   C43       1.0  0.05260  0.11945  0.27090  1.0000 0.5319120123
C   C44       1.0  0.00150  0.18295  0.29211  1.0000 -0.0559815929
C   C45       1.0  0.01880  0.21440  0.35414  1.0000 -0.1003471228
C   C46       1.0  0.96820  0.27109  0.37526  1.0000 -0.2317401308
C   C47       1.0  0.89960  0.29555  0.33282  1.0000 0.2537715866
C   C48       1.0  0.88160  0.26489  0.27118  1.0000 -0.2166296632
C   C49       1.0  0.93260  0.20894  0.25077  1.0000 -0.1003471228
C   C50       1.0  0.84120  0.37844  0.41333  1.0000 0.2348834409
C   C51       1.0  0.77410  0.35217  0.45539  1.0000 -0.2166296632
C   C52       1.0  0.75780  0.38397  0.51798  1.0000 -0.1003471228
C   C53       1.0  0.80620  0.44218  0.53656  1.0000 -0.0382097193
C   C54       1.0  0.87440  0.46590  0.49376  1.0000 -0.0845598306
C   C55       1.0  0.89180  0.43380  0.43224  1.0000 -0.2030642793
C   C56       1.0  0.78030  0.48238  0.59924  1.0000 0.5528157189
C   C57       1.0  0.48192  0.43475  0.76209  1.0000 0.0901284382
C   C58       1.0  0.41087  0.38902  0.76563  1.0000 -0.2488639426
C   C59       1.0  0.39906  0.33990  0.71337  1.0000 0.2359669938
C   C60       1.0  0.46399  0.34099  0.66044  1.0000 -0.2699015256
C   C61       1.0  0.53342  0.38735  0.66253  1.0000 0.0747884943
C   C62       1.0  0.30130  0.25536  0.65435  1.0000 -0.1216820671
C   C63       1.0  0.27233  0.28516  0.77591  1.0000 -0.1216820671
C   C64       1.0  0.80180  0.45396  0.79539  1.0000 0.0901284382
C   C65       1.0  0.86345  0.44977  0.84722  1.0000 -0.2488639426
C   C66       1.0  0.86376  0.49834  0.90018  1.0000 0.2359669938
C   C67       1.0  0.79493  0.54847  0.89611  1.0000 -0.2699015256
C   C68       1.0  0.73445  0.54793  0.84246  1.0000 0.0901284382
C   C69       1.0  0.92212  0.54286  0.01009  1.0000 -0.1216820671
C   C70       1.0  0.98447  0.43735  0.96392  1.0000 -0.1216820671
C   C71       1.0  0.55260  0.61945  0.72910  1.0000 0.5319120123
C   C72       1.0  0.50150  0.68295  0.70789  1.0000 -0.0559815929
C   C73       1.0  0.51880  0.71440  0.64586  1.0000 -0.1003471228
C   C74       1.0  0.46820  0.77109  0.62474  1.0000 -0.2317401308
C   C75       1.0  0.39960  0.79555  0.66718  1.0000 0.2537715866
C   C76       1.0  0.38160  0.76489  0.72882  1.0000 -0.2166296632
C   C77       1.0  0.43260  0.70894  0.74923  1.0000 -0.1003471228
C   C78       1.0  0.34120  0.87844  0.58667  1.0000 0.2348834409
C   C79       1.0  0.27410  0.85217  0.54461  1.0000 -0.2166296632
C   C80       1.0  0.25780  0.88397  0.48202  1.0000 -0.1003471228
C   C81       1.0  0.30620  0.94218  0.46344  1.0000 -0.0382097193
C   C82       1.0  0.37440  0.96590  0.50624  1.0000 -0.0845598306
C   C83       1.0  0.39180  0.93380  0.56776  1.0000 -0.2030642793
C   C84       1.0  0.28030  0.98238  0.40076  1.0000 0.5528157189
C   C85       1.0  0.01808  0.06525  0.76209  1.0000 0.0901284382
C   C86       1.0  0.08913  0.11098  0.76563  1.0000 -0.2488639426
C   C87       1.0  0.10094  0.16010  0.71337  1.0000 0.2359669938
C   C88       1.0  0.03601  0.15901  0.66044  1.0000 -0.2699015256
C   C89       1.0  0.96658  0.11265  0.66253  1.0000 0.0747884943
C   C90       1.0  0.19870  0.24464  0.65435  1.0000 -0.1216820671
C   C91       1.0  0.22767  0.21484  0.77591  1.0000 -0.1216820671
C   C92       1.0  0.69820  0.04604  0.79539  1.0000 0.0901284382
C   C93       1.0  0.63655  0.05023  0.84722  1.0000 -0.2488639426
C   C94       1.0  0.63624  0.00166  0.90018  1.0000 0.2348834409
C   C95       1.0  0.70507  0.95153  0.89611  1.0000 -0.2699015256
C   C96       1.0  0.76555  0.95207  0.84246  1.0000 0.0901284382
C   C97       1.0  0.57788  0.95714  0.01009  1.0000 -0.1216820671
C   C98       1.0  0.51553  0.06265  0.96392  1.0000 -0.1216820671
C   C99       1.0  0.94740  0.88055  0.72910  1.0000 0.5319120123
C   C100      1.0  0.99850  0.81705  0.70789  1.0000 -0.0559815929
C   C101      1.0  0.98120  0.78560  0.64586  1.0000 -0.1003471228
C   C102      1.0  0.03180  0.72891  0.62474  1.0000 -0.2317401308
C   C103      1.0  0.10040  0.70445  0.66718  1.0000 0.2537715866
C   C104      1.0  0.11840  0.73511  0.72882  1.0000 -0.2166296632
C   C105      1.0  0.06740  0.79106  0.74923  1.0000 -0.1003471228
C   C106      1.0  0.15880  0.62156  0.58667  1.0000 0.2348834409
C   C107      1.0  0.22590  0.64783  0.54461  1.0000 -0.2166296632
C   C108      1.0  0.24220  0.61603  0.48202  1.0000 -0.1003471228
C   C109      1.0  0.19380  0.55782  0.46344  1.0000 -0.0382097193
C   C110      1.0  0.12560  0.53410  0.50624  1.0000 -0.0845598306
C   C111      1.0  0.10820  0.56620  0.56776  1.0000 -0.2030642793
C   C112      1.0  0.21970  0.51762  0.40076  1.0000 0.5528157189
C   C113      1.0  0.48192  0.06525  0.26209  1.0000 0.0901284382
C   C114      1.0  0.41087  0.11098  0.26563  1.0000 -0.2488639426
C   C115      1.0  0.39906  0.16010  0.21337  1.0000 0.2359669938
C   C116      1.0  0.46399  0.15901  0.16044  1.0000 -0.2699015256
C   C117      1.0  0.53342  0.11265  0.16253  1.0000 0.0747884943
C   C118      1.0  0.30130  0.24464  0.15435  1.0000 -0.1216820671
C   C119      1.0  0.27233  0.21484  0.27591  1.0000 -0.1216820671
C   C120      1.0  0.80180  0.04604  0.29539  1.0000 0.0901284382
C   C121      1.0  0.86345  0.05023  0.34722  1.0000 -0.2488639426
C   C122      1.0  0.86376  0.00166  0.40018  1.0000 0.2359669938
C   C123      1.0  0.79493  0.95153  0.39611  1.0000 -0.2699015256
C   C124      1.0  0.73445  0.95207  0.34246  1.0000 0.0901284382
C   C125      1.0  0.92212  0.95714  0.51009  1.0000 -0.1216820671
C   C126      1.0  0.98447  0.06265  0.46392  1.0000 -0.1216820671
C   C127      1.0  0.55260  0.88055  0.22910  1.0000 0.5319120123
C   C128      1.0  0.50150  0.81705  0.20789  1.0000 -0.0559815929
C   C129      1.0  0.51880  0.78560  0.14586  1.0000 -0.1003471228
C   C130      1.0  0.46820  0.72891  0.12474  1.0000 -0.2317401308
C   C131      1.0  0.39960  0.70445  0.16718  1.0000 0.2537715866
C   C132      1.0  0.38160  0.73511  0.22882  1.0000 -0.2166296632
C   C133      1.0  0.43260  0.79106  0.24923  1.0000 -0.1003471228
C   C134      1.0  0.34120  0.62156  0.08667  1.0000 0.2348834409
C   C135      1.0  0.27410  0.64783  0.04461  1.0000 -0.2166296632
C   C136      1.0  0.25780  0.61603  0.98202  1.0000 -0.1003471228
C   C137      1.0  0.30620  0.55782  0.96344  1.0000 -0.0382097193
C   C138      1.0  0.37440  0.53410  0.00624  1.0000 -0.0845598306
C   C139      1.0  0.39180  0.56620  0.06776  1.0000 -0.2030642793
C   C140      1.0  0.28030  0.51762  0.90076  1.0000 0.5528157189
C   C141      1.0  0.01808  0.43475  0.26209  1.0000 0.0901284382
C   C142      1.0  0.08913  0.38902  0.26563  1.0000 -0.2488639426
C   C143      1.0  0.10094  0.33990  0.21337  1.0000 0.2359669938
C   C144      1.0  0.03601  0.34099  0.16044  1.0000 -0.2699015256
C   C145      1.0  0.96658  0.38735  0.16253  1.0000 0.0747884943
C   C146      1.0  0.19870  0.25536  0.15435  1.0000 -0.1216820671
C   C147      1.0  0.22767  0.28516  0.27591  1.0000 -0.1216820671
C   C148      1.0  0.69820  0.45396  0.29539  1.0000 0.0901284382
C   C149      1.0  0.63655  0.44977  0.34722  1.0000 -0.2488639426
C   C150      1.0  0.63624  0.49834  0.40018  1.0000 0.2348834409
C   C151      1.0  0.70507  0.54847  0.39611  1.0000 -0.2699015256
C   C152      1.0  0.76555  0.54793  0.34246  1.0000 0.0901284382
C   C153      1.0  0.57788  0.54286  0.51009  1.0000 -0.1216820671
C   C154      1.0  0.51553  0.43735  0.46392  1.0000 -0.1216820671
C   C155      1.0  0.94740  0.61945  0.22910  1.0000 0.5319120123
C   C156      1.0  0.99850  0.68295  0.20789  1.0000 -0.0559815929
C   C157      1.0  0.98120  0.71440  0.14586  1.0000 -0.1003471228
C   C158      1.0  0.03180  0.77109  0.12474  1.0000 -0.2317401308
C   C159      1.0  0.10040  0.79555  0.16718  1.0000 0.2537715866
C   C160      1.0  0.11840  0.76489  0.22882  1.0000 -0.2166296632
C   C161      1.0  0.06740  0.70894  0.24923  1.0000 -0.1003471228
C   C162      1.0  0.15880  0.87844  0.08667  1.0000 0.2348834409
C   C163      1.0  0.22590  0.85217  0.04461  1.0000 -0.2166296632
C   C164      1.0  0.24220  0.88397  0.98202  1.0000 -0.1003471228
C   C165      1.0  0.19380  0.94218  0.96344  1.0000 -0.0382097193
C   C166      1.0  0.12560  0.96590  0.00624  1.0000 -0.0845598306
C   C167      1.0  0.10820  0.93380  0.06776  1.0000 -0.2030642793
C   C168      1.0  0.21970  0.98238  0.90076  1.0000 0.5528157189
C   C169      1.0  0.51808  0.93475  0.73791  1.0000 0.0901284382
C   C170      1.0  0.58913  0.88902  0.73437  1.0000 -0.2488639426
C   C171      1.0  0.60094  0.83990  0.78663  1.0000 0.2359669938
C   C172      1.0  0.53601  0.84099  0.83956  1.0000 -0.2699015256
C   C173      1.0  0.46658  0.88735  0.83747  1.0000 0.0747884943
C   C174      1.0  0.69870  0.75536  0.84565  1.0000 -0.1216820671
C   C175      1.0  0.72767  0.78516  0.72409  1.0000 -0.1216820671
C   C176      1.0  0.19820  0.95396  0.70461  1.0000 0.0901284382
C   C177      1.0  0.13655  0.94977  0.65278  1.0000 -0.2488639426
C   C178      1.0  0.13624  0.99834  0.59982  1.0000 0.2348834409
C   C179      1.0  0.20507  0.04847  0.60389  1.0000 -0.2699015256
C   C180      1.0  0.26555  0.04793  0.65754  1.0000 0.0901284382
C   C181      1.0  0.07788  0.04286  0.48991  1.0000 -0.1216820671
C   C182      1.0  0.01553  0.93735  0.53608  1.0000 -0.1216820671
C   C183      1.0  0.44740  0.11945  0.77090  1.0000 0.5319120123
C   C184      1.0  0.49850  0.18295  0.79211  1.0000 -0.0559815929
C   C185      1.0  0.48120  0.21440  0.85414  1.0000 -0.1003471228
C   C186      1.0  0.53180  0.27109  0.87526  1.0000 -0.2317401308
C   C187      1.0  0.60040  0.29555  0.83282  1.0000 0.2537715866
C   C188      1.0  0.61840  0.26489  0.77118  1.0000 -0.2166296632
C   C189      1.0  0.56740  0.20894  0.75077  1.0000 -0.1003471228
C   C190      1.0  0.65880  0.37844  0.91333  1.0000 0.2348834409
C   C191      1.0  0.72590  0.35217  0.95539  1.0000 -0.2166296632
C   C192      1.0  0.74220  0.38397  0.01798  1.0000 -0.1003471228
C   C193      1.0  0.69380  0.44218  0.03656  1.0000 -0.0382097193
C   C194      1.0  0.62560  0.46590  0.99376  1.0000 -0.0845598306
C   C195      1.0  0.60820  0.43380  0.93224  1.0000 -0.2030642793
C   C196      1.0  0.71970  0.48238  0.09924  1.0000 0.5528157189
C   C197      1.0  0.98192  0.56525  0.73791  1.0000 0.0901284382
C   C198      1.0  0.91087  0.61098  0.73437  1.0000 -0.2488639426
C   C199      1.0  0.89906  0.66010  0.78663  1.0000 0.2359669938
C   C200      1.0  0.96399  0.65901  0.83956  1.0000 -0.2699015256
C   C201      1.0  0.03342  0.61265  0.83747  1.0000 0.0747884943
C   C202      1.0  0.80130  0.74464  0.84565  1.0000 -0.1216820671
C   C203      1.0  0.77233  0.71484  0.72409  1.0000 -0.1216820671
C   C204      1.0  0.30180  0.54604  0.70461  1.0000 0.0901284382
C   C205      1.0  0.36345  0.55023  0.65278  1.0000 -0.2488639426
C   C206      1.0  0.36376  0.50166  0.59982  1.0000 0.2348834409
C   C207      1.0  0.29493  0.45153  0.60389  1.0000 -0.2699015256
C   C208      1.0  0.23445  0.45207  0.65754  1.0000 0.0901284382
C   C209      1.0  0.42212  0.45714  0.48991  1.0000 -0.1216820671
C   C210      1.0  0.48447  0.56265  0.53608  1.0000 -0.1216820671
C   C211      1.0  0.05260  0.38055  0.77090  1.0000 0.5319120123
C   C212      1.0  0.00150  0.31705  0.79211  1.0000 -0.0559815929
C   C213      1.0  0.01880  0.28560  0.85414  1.0000 -0.1003471228
C   C214      1.0  0.96820  0.22891  0.87526  1.0000 -0.2317401308
C   C215      1.0  0.89960  0.20445  0.83282  1.0000 0.2537715866
C   C216      1.0  0.88160  0.23511  0.77118  1.0000 -0.2166296632
C   C217      1.0  0.93260  0.29106  0.75077  1.0000 -0.1003471228
C   C218      1.0  0.84120  0.12156  0.91333  1.0000 0.2348834409
C   C219      1.0  0.77410  0.14783  0.95539  1.0000 -0.2166296632
C   C220      1.0  0.75780  0.11603  0.01798  1.0000 -0.1003471228
C   C221      1.0  0.80620  0.05782  0.03656  1.0000 -0.0382097193
C   C222      1.0  0.87440  0.03410  0.99376  1.0000 -0.0845598306
C   C223      1.0  0.89180  0.06620  0.93224  1.0000 -0.2030642793
C   C224      1.0  0.78030  0.01762  0.09924  1.0000 0.5528157189
N   N1        1.0  0.45490  0.56501  0.28781  1.0000 -0.2699015256
N   N2        1.0  0.67141  0.70558  0.28516  1.0000 -0.0845598306
N   N3        1.0  0.26364  0.49779  0.20868  1.0000 -0.2619998322
N   N4        1.0  0.07157  0.50188  0.04949  1.0000 -0.0876980635
N   N5        1.0  0.04510  0.93499  0.28781  1.0000 -0.2699015256
N   N6        1.0  0.82859  0.79442  0.28516  1.0000 -0.0845598306
N   N7        1.0  0.23636  0.00221  0.20868  1.0000 -0.2619998322
N   N8        1.0  0.42843  0.99812  0.04949  1.0000 -0.0876980635
N   N9        1.0  0.54510  0.43499  0.71219  1.0000 -0.2699015256
N   N10       1.0  0.32859  0.29442  0.71484  1.0000 -0.0845598306
N   N11       1.0  0.73636  0.50221  0.79132  1.0000 -0.2619998322
N   N12       1.0  0.92843  0.49812  0.95051  1.0000 -0.0876980635
N   N13       1.0  0.95490  0.06501  0.71219  1.0000 -0.2699015256
N   N14       1.0  0.17141  0.20558  0.71484  1.0000 -0.0845598306
N   N15       1.0  0.76364  0.99779  0.79132  1.0000 -0.2619998322
N   N16       1.0  0.57157  0.00188  0.95051  1.0000 -0.0876980635
N   N17       1.0  0.54510  0.06501  0.21219  1.0000 -0.2699015256
N   N18       1.0  0.32859  0.20558  0.21484  1.0000 -0.0845598306
N   N19       1.0  0.73636  0.99779  0.29132  1.0000 -0.2619998322
N   N20       1.0  0.92843  0.00188  0.45051  1.0000 -0.0876980635
N   N21       1.0  0.95490  0.43499  0.21219  1.0000 -0.2699015256
N   N22       1.0  0.17141  0.29442  0.21484  1.0000 -0.0845598306
N   N23       1.0  0.76364  0.50221  0.29132  1.0000 -0.2619998322
N   N24       1.0  0.57157  0.49812  0.45051  1.0000 -0.0876980635
N   N25       1.0  0.45490  0.93499  0.78781  1.0000 -0.2699015256
N   N26       1.0  0.67141  0.79442  0.78516  1.0000 -0.0845598306
N   N27       1.0  0.26364  0.00221  0.70868  1.0000 -0.2619998322
N   N28       1.0  0.07157  0.99812  0.54949  1.0000 -0.0876980635
N   N29       1.0  0.04510  0.56501  0.78781  1.0000 -0.2699015256
N   N30       1.0  0.82859  0.70558  0.78516  1.0000 -0.0845598306
N   N31       1.0  0.23636  0.49779  0.70868  1.0000 -0.2619998322
N   N32       1.0  0.42843  0.50188  0.54949  1.0000 -0.0876980635
O   O1        1.0  0.39613  0.40801  0.31606  1.0000 -0.5423162707
O   O2        1.0  0.45718  0.40483  0.21247  1.0000 -0.5628815421
O   O3        1.0  0.65220  0.14696  0.34711  1.0000 -0.2317401308
O   O4        1.0  0.77979  0.04488  0.63717  1.0000 -0.5628815421
O   O5        1.0  0.68570  0.96031  0.60934  1.0000 -0.5423162707
O   O6        1.0  0.10387  0.09199  0.31606  1.0000 -0.5423162707
O   O7        1.0  0.04282  0.09517  0.21247  1.0000 -0.5628815421
O   O8        1.0  0.84780  0.35304  0.34711  1.0000 -0.2317401308
O   O9        1.0  0.72021  0.45512  0.63717  1.0000 -0.5628815421
O   O10       1.0  0.81430  0.53969  0.60934  1.0000 -0.5423162707
O   O11       1.0  0.60387  0.59199  0.68394  1.0000 -0.5423162707
O   O12       1.0  0.54282  0.59517  0.78753  1.0000 -0.5628815421
O   O13       1.0  0.34780  0.85304  0.65289  1.0000 -0.2317401308
O   O14       1.0  0.22021  0.95512  0.36283  1.0000 -0.5628815421
O   O15       1.0  0.31430  0.03969  0.39066  1.0000 -0.5423162707
O   O16       1.0  0.89613  0.90801  0.68394  1.0000 -0.5423162707
O   O17       1.0  0.95718  0.90483  0.78753  1.0000 -0.5628815421
O   O18       1.0  0.15220  0.64696  0.65289  1.0000 -0.2317401308
O   O19       1.0  0.27979  0.54488  0.36283  1.0000 -0.5628815421
O   O20       1.0  0.18570  0.46031  0.39066  1.0000 -0.5423162707
O   O21       1.0  0.60387  0.90801  0.18394  1.0000 -0.5423162707
O   O22       1.0  0.54282  0.90483  0.28753  1.0000 -0.5628815421
O   O23       1.0  0.34780  0.64696  0.15289  1.0000 -0.2317401308
O   O24       1.0  0.22021  0.54488  0.86283  1.0000 -0.5628815421
O   O25       1.0  0.31430  0.46031  0.89066  1.0000 -0.5423162707
O   O26       1.0  0.89613  0.59199  0.18394  1.0000 -0.5423162707
O   O27       1.0  0.95718  0.59517  0.28753  1.0000 -0.5628815421
O   O28       1.0  0.15220  0.85304  0.15289  1.0000 -0.2317401308
O   O29       1.0  0.27979  0.95512  0.86283  1.0000 -0.5628815421
O   O30       1.0  0.18570  0.03969  0.89066  1.0000 -0.5423162707
O   O31       1.0  0.39613  0.09199  0.81606  1.0000 -0.5423162707
O   O32       1.0  0.45718  0.09517  0.71247  1.0000 -0.5628815421
O   O33       1.0  0.65220  0.35304  0.84711  1.0000 -0.2317401308
O   O34       1.0  0.77979  0.45512  0.13717  1.0000 -0.5628815421
O   O35       1.0  0.68570  0.53969  0.10934  1.0000 -0.5423162707
O   O36       1.0  0.10387  0.40801  0.81606  1.0000 -0.5423162707
O   O37       1.0  0.04282  0.40483  0.71247  1.0000 -0.5628815421
O   O38       1.0  0.84780  0.14696  0.84711  1.0000 -0.2317401308
O   O39       1.0  0.72021  0.04488  0.13717  1.0000 -0.5628815421
O   O40       1.0  0.81430  0.96031  0.10934  1.0000 -0.5423162707
