# DDEC6 charges by PACMAN v1.1 (https://github.com/mtap-research/PACMAN-charge/)
data_2020[Cu][nan]3[FSR]7
_chemical_formula_sum              "Cu6 H264 C372 N24"
_cell_length_a       26.7674
_cell_length_b       26.7674
_cell_length_c       17.8783
_cell_angle_alpha    90
_cell_angle_beta     90
_cell_angle_gamma    120

_symmetry_space_group_name_H-M    "P 1"
_symmetry_Int_Tables_number       1

loop_
  _symmetry_equiv_pos_as_xyz
  'x, y, z'

loop_
  _atom_site_type_symbol
  _atom_site_label
  _atom_site_symmetry_multiplicity
  _atom_site_fract_x
  _atom_site_fract_y
  _atom_site_fract_z
  _atom_site_occupancy
  _atom_site_charge
Cu  Cu1       1.0  0.33302  0.33302  0.50000  1.0000 0.2358161436
Cu  Cu2       1.0  0.00000  0.66698  0.50000  1.0000 0.2358161436
Cu  Cu3       1.0  0.66698  0.00000  0.50000  1.0000 0.2358161436
Cu  Cu4       1.0  0.66698  0.66698  0.50000  1.0000 0.2358161436
Cu  Cu5       1.0  0.00000  0.33302  0.50000  1.0000 0.2358161436
Cu  Cu6       1.0  0.33302  0.00000  0.50000  1.0000 0.2358161436
H   H1        1.0  0.84722  0.20565  0.87061  1.0000 0.1002880455
H   H2        1.0  0.82879  0.13876  0.86725  1.0000 0.1002880455
H   H3        1.0  0.75944  0.19544  0.02948  1.0000 0.1002880455
H   H4        1.0  0.73240  0.09076  0.02480  1.0000 0.1002880455
H   H5        1.0  0.75851  0.06851  0.96082  1.0000 0.1098825212
H   H6        1.0  0.90248  0.13666  0.03380  1.0000 0.1002880455
H   H7        1.0  0.76865  0.14426  0.79624  1.0000 0.1098825212
H   H8        1.0  0.68922  0.12396  0.72087  1.0000 0.1098825212
H   H9        1.0  0.59673  0.11374  0.90554  1.0000 0.1204921776
H   H10       1.0  0.67616  0.13404  0.98091  1.0000 0.1204921776
H   H11       1.0  0.54501  0.11003  0.56886  1.0000 0.1204921776
H   H12       1.0  0.46525  0.07844  0.48959  1.0000 0.1002880455
H   H13       1.0  0.35820  0.99917  0.66463  1.0000 0.1002880455
H   H14       1.0  0.43795  0.03075  0.74390  1.0000 0.1343571831
H   H15       1.0  0.94538  0.26964  0.85715  1.0000 0.1204921776
H   H16       1.0  0.02181  0.29012  0.77197  1.0000 0.1098825212
H   H17       1.0  0.02887  0.15408  0.84808  1.0000 0.1204921776
H   H18       1.0  0.95630  0.13316  0.93394  1.0000 0.1204921776
H   H19       1.0  0.17477  0.34479  0.62489  1.0000 0.1343571831
H   H20       1.0  0.24772  0.36757  0.54655  1.0000 0.1002880455
H   H21       1.0  0.24915  0.22434  0.58870  1.0000 0.1098825212
H   H22       1.0  0.17225  0.19729  0.66942  1.0000 0.1343571831
H   H23       1.0  0.35843  0.15278  0.87061  1.0000 0.1002880455
H   H24       1.0  0.30997  0.17121  0.86725  1.0000 0.1002880455
H   H25       1.0  0.43600  0.24056  0.02948  1.0000 0.1002880455
H   H26       1.0  0.35836  0.26760  0.02480  1.0000 0.1002880455
H   H27       1.0  0.31000  0.24149  0.96082  1.0000 0.1098825212
H   H28       1.0  0.23418  0.09752  0.03380  1.0000 0.1002880455
H   H29       1.0  0.37561  0.23135  0.79624  1.0000 0.1098825212
H   H30       1.0  0.43474  0.31078  0.72087  1.0000 0.1098825212
H   H31       1.0  0.51701  0.40327  0.90554  1.0000 0.1204921776
H   H32       1.0  0.45788  0.32384  0.98091  1.0000 0.1204921776
H   H33       1.0  0.56502  0.45499  0.56886  1.0000 0.1204921776
H   H34       1.0  0.61319  0.53475  0.48959  1.0000 0.1002880455
H   H35       1.0  0.64097  0.64180  0.66463  1.0000 0.1002880455
H   H36       1.0  0.59280  0.56205  0.74390  1.0000 0.1343571831
H   H37       1.0  0.32426  0.05462  0.85715  1.0000 0.1204921776
H   H38       1.0  0.26831  0.97819  0.77197  1.0000 0.1098825212
H   H39       1.0  0.12521  0.97113  0.84808  1.0000 0.1204921776
H   H40       1.0  0.17686  0.04370  0.93394  1.0000 0.1204921776
H   H41       1.0  0.17002  0.82523  0.62489  1.0000 0.1343571831
H   H42       1.0  0.11985  0.75228  0.54655  1.0000 0.1002880455
H   H43       1.0  0.97519  0.75085  0.58870  1.0000 0.1098825212
H   H44       1.0  0.02504  0.82775  0.66942  1.0000 0.1343571831
H   H45       1.0  0.79435  0.64157  0.87061  1.0000 0.1002880455
H   H46       1.0  0.86124  0.69003  0.86725  1.0000 0.1002880455
H   H47       1.0  0.80456  0.56400  0.02948  1.0000 0.1002880455
H   H48       1.0  0.90924  0.64164  0.02480  1.0000 0.1002880455
H   H49       1.0  0.93149  0.69000  0.96082  1.0000 0.1098825212
H   H50       1.0  0.86334  0.76582  0.03380  1.0000 0.1002880455
H   H51       1.0  0.85574  0.62439  0.79624  1.0000 0.1098825212
H   H52       1.0  0.87604  0.56526  0.72087  1.0000 0.1098825212
H   H53       1.0  0.88626  0.48299  0.90554  1.0000 0.1204921776
H   H54       1.0  0.86596  0.54212  0.98091  1.0000 0.1204921776
H   H55       1.0  0.88997  0.43498  0.56886  1.0000 0.1204921776
H   H56       1.0  0.92156  0.38681  0.48959  1.0000 0.1002880455
H   H57       1.0  0.00083  0.35903  0.66463  1.0000 0.1002880455
H   H58       1.0  0.96925  0.40720  0.74390  1.0000 0.1343571831
H   H59       1.0  0.73036  0.67574  0.85715  1.0000 0.1204921776
H   H60       1.0  0.70988  0.73169  0.77197  1.0000 0.1098825212
H   H61       1.0  0.84592  0.87479  0.84808  1.0000 0.1204921776
H   H62       1.0  0.86684  0.82314  0.93394  1.0000 0.1204921776
H   H63       1.0  0.65521  0.82998  0.62489  1.0000 0.1343571831
H   H64       1.0  0.63243  0.88015  0.54655  1.0000 0.1002880455
H   H65       1.0  0.77566  0.02481  0.58870  1.0000 0.1098825212
H   H66       1.0  0.80271  0.97496  0.66942  1.0000 0.1343571831
H   H67       1.0  0.15278  0.79435  0.87061  1.0000 0.1002880455
H   H68       1.0  0.17121  0.86124  0.86725  1.0000 0.1002880455
H   H69       1.0  0.24056  0.80456  0.02948  1.0000 0.1002880455
H   H70       1.0  0.26760  0.90924  0.02480  1.0000 0.1002880455
H   H71       1.0  0.24149  0.93149  0.96082  1.0000 0.1098825212
H   H72       1.0  0.09752  0.86334  0.03380  1.0000 0.1002880455
H   H73       1.0  0.23135  0.85574  0.79624  1.0000 0.1098825212
H   H74       1.0  0.31078  0.87604  0.72087  1.0000 0.1098825212
H   H75       1.0  0.40327  0.88626  0.90554  1.0000 0.1204921776
H   H76       1.0  0.32384  0.86596  0.98091  1.0000 0.1204921776
H   H77       1.0  0.45499  0.88997  0.56886  1.0000 0.1204921776
H   H78       1.0  0.53475  0.92156  0.48959  1.0000 0.1002880455
H   H79       1.0  0.64180  0.00083  0.66463  1.0000 0.1002880455
H   H80       1.0  0.56205  0.96925  0.74390  1.0000 0.1343571831
H   H81       1.0  0.05462  0.73036  0.85715  1.0000 0.1204921776
H   H82       1.0  0.97819  0.70988  0.77197  1.0000 0.1098825212
H   H83       1.0  0.97113  0.84592  0.84808  1.0000 0.1204921776
H   H84       1.0  0.04370  0.86684  0.93394  1.0000 0.1204921776
H   H85       1.0  0.82523  0.65521  0.62489  1.0000 0.1343571831
H   H86       1.0  0.75228  0.63243  0.54655  1.0000 0.1002880455
H   H87       1.0  0.75085  0.77566  0.58870  1.0000 0.1098825212
H   H88       1.0  0.82775  0.80271  0.66942  1.0000 0.1343571831
H   H89       1.0  0.64157  0.84722  0.87061  1.0000 0.1002880455
H   H90       1.0  0.69003  0.82879  0.86725  1.0000 0.1002880455
H   H91       1.0  0.56400  0.75944  0.02948  1.0000 0.1002880455
H   H92       1.0  0.64164  0.73240  0.02480  1.0000 0.1002880455
H   H93       1.0  0.69000  0.75851  0.96082  1.0000 0.1098825212
H   H94       1.0  0.76582  0.90248  0.03380  1.0000 0.1002880455
H   H95       1.0  0.62439  0.76865  0.79624  1.0000 0.1098825212
H   H96       1.0  0.56526  0.68922  0.72087  1.0000 0.1098825212
H   H97       1.0  0.48299  0.59673  0.90554  1.0000 0.1204921776
H   H98       1.0  0.54212  0.67616  0.98091  1.0000 0.1204921776
H   H99       1.0  0.43498  0.54501  0.56886  1.0000 0.1204921776
H   H100      1.0  0.38681  0.46525  0.48959  1.0000 0.1002880455
H   H101      1.0  0.35903  0.35820  0.66463  1.0000 0.1002880455
H   H102      1.0  0.40720  0.43795  0.74390  1.0000 0.1343571831
H   H103      1.0  0.67574  0.94538  0.85715  1.0000 0.1204921776
H   H104      1.0  0.73169  0.02181  0.77197  1.0000 0.1098825212
H   H105      1.0  0.87479  0.02887  0.84808  1.0000 0.1204921776
H   H106      1.0  0.82314  0.95630  0.93394  1.0000 0.1204921776
H   H107      1.0  0.82998  0.17477  0.62489  1.0000 0.1343571831
H   H108      1.0  0.88015  0.24772  0.54655  1.0000 0.1002880455
H   H109      1.0  0.02481  0.24915  0.58870  1.0000 0.1098825212
H   H110      1.0  0.97496  0.17225  0.66942  1.0000 0.1343571831
H   H111      1.0  0.20565  0.35843  0.87061  1.0000 0.1002880455
H   H112      1.0  0.13876  0.30997  0.86725  1.0000 0.1002880455
H   H113      1.0  0.19544  0.43600  0.02948  1.0000 0.1002880455
H   H114      1.0  0.09076  0.35836  0.02480  1.0000 0.1002880455
H   H115      1.0  0.06851  0.31000  0.96082  1.0000 0.1098825212
H   H116      1.0  0.13666  0.23418  0.03380  1.0000 0.1002880455
H   H117      1.0  0.14426  0.37561  0.79624  1.0000 0.1098825212
H   H118      1.0  0.12396  0.43474  0.72087  1.0000 0.1098825212
H   H119      1.0  0.11374  0.51701  0.90554  1.0000 0.1204921776
H   H120      1.0  0.13404  0.45788  0.98091  1.0000 0.1204921776
H   H121      1.0  0.11003  0.56502  0.56886  1.0000 0.1204921776
H   H122      1.0  0.07844  0.61319  0.48959  1.0000 0.1002880455
H   H123      1.0  0.99917  0.64097  0.66463  1.0000 0.1002880455
H   H124      1.0  0.03075  0.59280  0.74390  1.0000 0.1343571831
H   H125      1.0  0.26964  0.32426  0.85715  1.0000 0.1204921776
H   H126      1.0  0.29012  0.26831  0.77197  1.0000 0.1098825212
H   H127      1.0  0.15408  0.12521  0.84808  1.0000 0.1204921776
H   H128      1.0  0.13316  0.17686  0.93394  1.0000 0.1204921776
H   H129      1.0  0.34479  0.17002  0.62489  1.0000 0.1343571831
H   H130      1.0  0.36757  0.11985  0.54655  1.0000 0.1002880455
H   H131      1.0  0.22434  0.97519  0.58870  1.0000 0.1098825212
H   H132      1.0  0.19729  0.02504  0.66942  1.0000 0.1343571831
H   H133      1.0  0.64157  0.79435  0.12939  1.0000 0.1002880455
H   H134      1.0  0.69003  0.86124  0.13275  1.0000 0.1002880455
H   H135      1.0  0.56400  0.80456  0.97052  1.0000 0.1002880455
H   H136      1.0  0.64164  0.90924  0.97520  1.0000 0.1002880455
H   H137      1.0  0.69000  0.93149  0.03918  1.0000 0.1098825212
H   H138      1.0  0.76582  0.86334  0.96620  1.0000 0.1002880455
H   H139      1.0  0.62439  0.85574  0.20376  1.0000 0.1098825212
H   H140      1.0  0.56526  0.87604  0.27913  1.0000 0.1098825212
H   H141      1.0  0.48299  0.88626  0.09446  1.0000 0.1204921776
H   H142      1.0  0.54212  0.86596  0.01909  1.0000 0.1204921776
H   H143      1.0  0.43498  0.88997  0.43114  1.0000 0.1204921776
H   H144      1.0  0.38681  0.92156  0.51041  1.0000 0.1002880455
H   H145      1.0  0.35903  0.00083  0.33537  1.0000 0.1002880455
H   H146      1.0  0.40720  0.96925  0.25610  1.0000 0.1343571831
H   H147      1.0  0.67574  0.73036  0.14285  1.0000 0.1204921776
H   H148      1.0  0.73169  0.70988  0.22803  1.0000 0.1098825212
H   H149      1.0  0.87479  0.84592  0.15192  1.0000 0.1204921776
H   H150      1.0  0.82314  0.86684  0.06606  1.0000 0.1204921776
H   H151      1.0  0.82998  0.65521  0.37511  1.0000 0.1343571831
H   H152      1.0  0.88015  0.63243  0.45345  1.0000 0.1002880455
H   H153      1.0  0.02481  0.77566  0.41130  1.0000 0.1098825212
H   H154      1.0  0.97496  0.80271  0.33058  1.0000 0.1343571831
H   H155      1.0  0.20565  0.84722  0.12939  1.0000 0.1002880455
H   H156      1.0  0.13876  0.82879  0.13275  1.0000 0.1002880455
H   H157      1.0  0.19544  0.75944  0.97052  1.0000 0.1002880455
H   H158      1.0  0.09076  0.73240  0.97520  1.0000 0.1002880455
H   H159      1.0  0.06851  0.75851  0.03918  1.0000 0.1098825212
H   H160      1.0  0.13666  0.90248  0.96620  1.0000 0.1002880455
H   H161      1.0  0.14426  0.76865  0.20376  1.0000 0.1098825212
H   H162      1.0  0.12396  0.68922  0.27913  1.0000 0.1098825212
H   H163      1.0  0.11374  0.59673  0.09446  1.0000 0.1204921776
H   H164      1.0  0.13404  0.67616  0.01909  1.0000 0.1204921776
H   H165      1.0  0.11003  0.54501  0.43114  1.0000 0.1204921776
H   H166      1.0  0.07844  0.46525  0.51041  1.0000 0.1002880455
H   H167      1.0  0.99917  0.35820  0.33537  1.0000 0.1002880455
H   H168      1.0  0.03075  0.43795  0.25610  1.0000 0.1343571831
H   H169      1.0  0.26964  0.94538  0.14285  1.0000 0.1204921776
H   H170      1.0  0.29012  0.02181  0.22803  1.0000 0.1098825212
H   H171      1.0  0.15408  0.02887  0.15192  1.0000 0.1204921776
H   H172      1.0  0.13316  0.95630  0.06606  1.0000 0.1204921776
H   H173      1.0  0.34479  0.17477  0.37511  1.0000 0.1343571831
H   H174      1.0  0.36757  0.24772  0.45345  1.0000 0.1002880455
H   H175      1.0  0.22434  0.24915  0.41130  1.0000 0.1098825212
H   H176      1.0  0.19729  0.17225  0.33058  1.0000 0.1343571831
H   H177      1.0  0.15278  0.35843  0.12939  1.0000 0.1002880455
H   H178      1.0  0.17121  0.30997  0.13275  1.0000 0.1002880455
H   H179      1.0  0.24056  0.43600  0.97052  1.0000 0.1002880455
H   H180      1.0  0.26760  0.35836  0.97520  1.0000 0.1002880455
H   H181      1.0  0.24149  0.31000  0.03918  1.0000 0.1098825212
H   H182      1.0  0.09752  0.23418  0.96620  1.0000 0.1002880455
H   H183      1.0  0.23135  0.37561  0.20376  1.0000 0.1098825212
H   H184      1.0  0.31078  0.43474  0.27913  1.0000 0.1098825212
H   H185      1.0  0.40327  0.51701  0.09446  1.0000 0.1204921776
H   H186      1.0  0.32384  0.45788  0.01909  1.0000 0.1204921776
H   H187      1.0  0.45499  0.56502  0.43114  1.0000 0.1204921776
H   H188      1.0  0.53475  0.61319  0.51041  1.0000 0.1002880455
H   H189      1.0  0.64180  0.64097  0.33537  1.0000 0.1002880455
H   H190      1.0  0.56205  0.59280  0.25610  1.0000 0.1343571831
H   H191      1.0  0.05462  0.32426  0.14285  1.0000 0.1204921776
H   H192      1.0  0.97819  0.26831  0.22803  1.0000 0.1098825212
H   H193      1.0  0.97113  0.12521  0.15192  1.0000 0.1204921776
H   H194      1.0  0.04370  0.17686  0.06606  1.0000 0.1204921776
H   H195      1.0  0.82523  0.17002  0.37511  1.0000 0.1343571831
H   H196      1.0  0.75228  0.11985  0.45345  1.0000 0.1002880455
H   H197      1.0  0.75085  0.97519  0.41130  1.0000 0.1098825212
H   H198      1.0  0.82775  0.02504  0.33058  1.0000 0.1343571831
H   H199      1.0  0.35843  0.20565  0.12939  1.0000 0.1002880455
H   H200      1.0  0.30997  0.13876  0.13275  1.0000 0.1002880455
H   H201      1.0  0.43600  0.19544  0.97052  1.0000 0.1002880455
H   H202      1.0  0.35836  0.09076  0.97520  1.0000 0.1002880455
H   H203      1.0  0.31000  0.06851  0.03918  1.0000 0.1098825212
H   H204      1.0  0.23418  0.13666  0.96620  1.0000 0.1002880455
H   H205      1.0  0.37561  0.14426  0.20376  1.0000 0.1098825212
H   H206      1.0  0.43474  0.12396  0.27913  1.0000 0.1098825212
H   H207      1.0  0.51701  0.11374  0.09446  1.0000 0.1204921776
H   H208      1.0  0.45788  0.13404  0.01909  1.0000 0.1204921776
H   H209      1.0  0.56502  0.11003  0.43114  1.0000 0.1204921776
H   H210      1.0  0.61319  0.07844  0.51041  1.0000 0.1002880455
H   H211      1.0  0.64097  0.99917  0.33537  1.0000 0.1002880455
H   H212      1.0  0.59280  0.03075  0.25610  1.0000 0.1343571831
H   H213      1.0  0.32426  0.26964  0.14285  1.0000 0.1204921776
H   H214      1.0  0.26831  0.29012  0.22803  1.0000 0.1098825212
H   H215      1.0  0.12521  0.15408  0.15192  1.0000 0.1204921776
H   H216      1.0  0.17686  0.13316  0.06606  1.0000 0.1204921776
H   H217      1.0  0.17002  0.34479  0.37511  1.0000 0.1343571831
H   H218      1.0  0.11985  0.36757  0.45345  1.0000 0.1002880455
H   H219      1.0  0.97519  0.22434  0.41130  1.0000 0.1098825212
H   H220      1.0  0.02504  0.19729  0.33058  1.0000 0.1343571831
H   H221      1.0  0.79435  0.15278  0.12939  1.0000 0.1002880455
H   H222      1.0  0.86124  0.17121  0.13275  1.0000 0.1002880455
H   H223      1.0  0.80456  0.24056  0.97052  1.0000 0.1002880455
H   H224      1.0  0.90924  0.26760  0.97520  1.0000 0.1002880455
H   H225      1.0  0.93149  0.24149  0.03918  1.0000 0.1098825212
H   H226      1.0  0.86334  0.09752  0.96620  1.0000 0.1002880455
H   H227      1.0  0.85574  0.23135  0.20376  1.0000 0.1098825212
H   H228      1.0  0.87604  0.31078  0.27913  1.0000 0.1098825212
H   H229      1.0  0.88626  0.40327  0.09446  1.0000 0.1204921776
H   H230      1.0  0.86596  0.32384  0.01909  1.0000 0.1204921776
H   H231      1.0  0.88997  0.45499  0.43114  1.0000 0.1204921776
H   H232      1.0  0.92156  0.53475  0.51041  1.0000 0.1002880455
H   H233      1.0  0.00083  0.64180  0.33537  1.0000 0.1002880455
H   H234      1.0  0.96925  0.56205  0.25610  1.0000 0.1343571831
H   H235      1.0  0.73036  0.05462  0.14285  1.0000 0.1204921776
H   H236      1.0  0.70988  0.97819  0.22803  1.0000 0.1098825212
H   H237      1.0  0.84592  0.97113  0.15192  1.0000 0.1204921776
H   H238      1.0  0.86684  0.04370  0.06606  1.0000 0.1204921776
H   H239      1.0  0.65521  0.82523  0.37511  1.0000 0.1343571831
H   H240      1.0  0.63243  0.75228  0.45345  1.0000 0.1002880455
H   H241      1.0  0.77566  0.75085  0.41130  1.0000 0.1098825212
H   H242      1.0  0.80271  0.82775  0.33058  1.0000 0.1343571831
H   H243      1.0  0.84722  0.64157  0.12939  1.0000 0.1002880455
H   H244      1.0  0.82879  0.69003  0.13275  1.0000 0.1002880455
H   H245      1.0  0.75944  0.56400  0.97052  1.0000 0.1002880455
H   H246      1.0  0.73240  0.64164  0.97520  1.0000 0.1002880455
H   H247      1.0  0.75851  0.69000  0.03918  1.0000 0.1098825212
H   H248      1.0  0.90248  0.76582  0.96620  1.0000 0.1002880455
H   H249      1.0  0.76865  0.62439  0.20376  1.0000 0.1098825212
H   H250      1.0  0.68922  0.56526  0.27913  1.0000 0.1098825212
H   H251      1.0  0.59673  0.48299  0.09446  1.0000 0.1204921776
H   H252      1.0  0.67616  0.54212  0.01909  1.0000 0.1204921776
H   H253      1.0  0.54501  0.43498  0.43114  1.0000 0.1204921776
H   H254      1.0  0.46525  0.38681  0.51041  1.0000 0.1002880455
H   H255      1.0  0.35820  0.35903  0.33537  1.0000 0.1002880455
H   H256      1.0  0.43795  0.40720  0.25610  1.0000 0.1343571831
H   H257      1.0  0.94538  0.67574  0.14285  1.0000 0.1204921776
H   H258      1.0  0.02181  0.73169  0.22803  1.0000 0.1098825212
H   H259      1.0  0.02887  0.87479  0.15192  1.0000 0.1204921776
H   H260      1.0  0.95630  0.82314  0.06606  1.0000 0.1204921776
H   H261      1.0  0.17477  0.82998  0.37511  1.0000 0.1343571831
H   H262      1.0  0.24772  0.88015  0.45345  1.0000 0.1002880455
H   H263      1.0  0.24915  0.02481  0.41130  1.0000 0.1098825212
H   H264      1.0  0.17225  0.97496  0.33058  1.0000 0.1343571831
C   C1        1.0  0.78250  0.15570  0.94710  1.0000 0.1706504314
C   C2        1.0  0.83670  0.17100  0.90140  1.0000 -0.3097830264
C   C3        1.0  0.88790  0.18300  0.95400  1.0000 0.1785860634
C   C4        1.0  0.76720  0.10120  0.99450  1.0000 -0.3097830264
C   C5        1.0  0.72990  0.14110  0.89570  1.0000 0.0505700458
C   C6        1.0  0.73370  0.13800  0.81840  1.0000 -0.1507837242
C   C7        1.0  0.68660  0.12600  0.77370  1.0000 -0.1594641426
C   C8        1.0  0.63550  0.11690  0.80610  1.0000 0.1204921776
C   C9        1.0  0.63160  0.11990  0.88340  1.0000 -0.1507837242
C   C10       1.0  0.67880  0.13200  0.92810  1.0000 -0.1507837242
C   C11       1.0  0.55040  0.09270  0.71230  1.0000 -0.0961454236
C   C12       1.0  0.58380  0.10020  0.75880  1.0000 -0.0791497205
C   C13       1.0  0.49900  0.07340  0.66380  1.0000 0.1588985381
C   C14       1.0  0.50710  0.08750  0.58830  1.0000 -0.2021800141
C   C15       1.0  0.45970  0.06870  0.54120  1.0000 0.0505700458
C   C16       1.0  0.39610  0.02170  0.64520  1.0000 0.0505700458
C   C17       1.0  0.44350  0.04040  0.69230  1.0000 -0.2021800141
C   C18       1.0  0.94120  0.19740  0.90140  1.0000 0.0555921447
C   C19       1.0  0.96190  0.24540  0.85530  1.0000 -0.1507837242
C   C20       1.0  0.00840  0.25800  0.80480  1.0000 -0.1373028356
C   C21       1.0  0.03270  0.22590  0.80330  1.0000 0.1098825212
C   C22       1.0  0.01210  0.17800  0.85050  1.0000 -0.1507837242
C   C23       1.0  0.96820  0.16470  0.90040  1.0000 -0.1594641426
C   C24       1.0  0.08000  0.23890  0.74900  1.0000 -0.0791497205
C   C25       1.0  0.11640  0.24900  0.70480  1.0000 -0.1058374238
C   C26       1.0  0.16150  0.26460  0.65380  1.0000 0.1588985381
C   C27       1.0  0.18830  0.31840  0.61740  1.0000 -0.2182028889
C   C28       1.0  0.23290  0.33190  0.57240  1.0000 0.0666071017
C   C29       1.0  0.23400  0.24940  0.59600  1.0000 0.0161319104
C   C30       1.0  0.18700  0.23280  0.64330  1.0000 -0.1893960137
C   C31       1.0  0.37320  0.21750  0.94710  1.0000 0.1706504314
C   C32       1.0  0.33430  0.16330  0.90140  1.0000 -0.3097830264
C   C33       1.0  0.29510  0.11210  0.95400  1.0000 0.1785860634
C   C34       1.0  0.33400  0.23280  0.99450  1.0000 -0.3097830264
C   C35       1.0  0.41120  0.27010  0.89570  1.0000 0.0505700458
C   C36       1.0  0.40430  0.26630  0.81840  1.0000 -0.1507837242
C   C37       1.0  0.43940  0.31340  0.77370  1.0000 -0.1655074108
C   C38       1.0  0.48140  0.36450  0.80610  1.0000 0.1204921776
C   C39       1.0  0.48830  0.36840  0.88340  1.0000 -0.1507837242
C   C40       1.0  0.45320  0.32120  0.92810  1.0000 -0.1507837242
C   C41       1.0  0.54230  0.44960  0.71230  1.0000 -0.0941570987
C   C42       1.0  0.51640  0.41620  0.75880  1.0000 -0.0791497205
C   C43       1.0  0.57440  0.50100  0.66380  1.0000 0.1588985381
C   C44       1.0  0.58040  0.49290  0.58830  1.0000 -0.2021800141
C   C45       1.0  0.60900  0.54030  0.54120  1.0000 0.0505700458
C   C46       1.0  0.62560  0.60390  0.64520  1.0000 0.0505700458
C   C47       1.0  0.59690  0.55650  0.69230  1.0000 -0.2021800141
C   C48       1.0  0.25620  0.05880  0.90140  1.0000 0.0555921447
C   C49       1.0  0.28350  0.03810  0.85530  1.0000 -0.1507837242
C   C50       1.0  0.24960  0.99160  0.80480  1.0000 -0.1373028356
C   C51       1.0  0.19320  0.96730  0.80330  1.0000 0.1098825212
C   C52       1.0  0.16590  0.98790  0.85050  1.0000 -0.1507837242
C   C53       1.0  0.19650  0.03180  0.90040  1.0000 -0.1594641426
C   C54       1.0  0.15890  0.92000  0.74900  1.0000 -0.0791497205
C   C55       1.0  0.13260  0.88360  0.70480  1.0000 -0.1058374238
C   C56       1.0  0.10310  0.83850  0.65380  1.0000 0.1588985381
C   C57       1.0  0.13010  0.81170  0.61740  1.0000 -0.2182028889
C   C58       1.0  0.09900  0.76710  0.57240  1.0000 0.0666071017
C   C59       1.0  0.01540  0.76600  0.59600  1.0000 0.0161319104
C   C60       1.0  0.04580  0.81300  0.64330  1.0000 -0.1893960137
C   C61       1.0  0.84430  0.62680  0.94710  1.0000 0.1706504314
C   C62       1.0  0.82900  0.66570  0.90140  1.0000 -0.3097830264
C   C63       1.0  0.81700  0.70490  0.95400  1.0000 0.1785860634
C   C64       1.0  0.89880  0.66600  0.99450  1.0000 -0.3097830264
C   C65       1.0  0.85890  0.58880  0.89570  1.0000 0.0505700458
C   C66       1.0  0.86200  0.59570  0.81840  1.0000 -0.1507837242
C   C67       1.0  0.87400  0.56060  0.77370  1.0000 -0.1594641426
C   C68       1.0  0.88310  0.51860  0.80610  1.0000 0.1204921776
C   C69       1.0  0.88010  0.51170  0.88340  1.0000 -0.1507837242
C   C70       1.0  0.86800  0.54680  0.92810  1.0000 -0.1507837242
C   C71       1.0  0.90730  0.45770  0.71230  1.0000 -0.0941570987
C   C72       1.0  0.89980  0.48360  0.75880  1.0000 -0.0791497205
C   C73       1.0  0.92660  0.42560  0.66380  1.0000 0.1588985381
C   C74       1.0  0.91250  0.41960  0.58830  1.0000 -0.2021800141
C   C75       1.0  0.93130  0.39100  0.54120  1.0000 0.0505700458
C   C76       1.0  0.97830  0.37440  0.64520  1.0000 0.0505700458
C   C77       1.0  0.95960  0.40310  0.69230  1.0000 -0.2021800141
C   C78       1.0  0.80260  0.74380  0.90140  1.0000 0.0555921447
C   C79       1.0  0.75460  0.71650  0.85530  1.0000 -0.1507837242
C   C80       1.0  0.74200  0.75040  0.80480  1.0000 -0.1373028356
C   C81       1.0  0.77410  0.80680  0.80330  1.0000 0.1098825212
C   C82       1.0  0.82200  0.83410  0.85050  1.0000 -0.1507837242
C   C83       1.0  0.83530  0.80350  0.90040  1.0000 -0.1594641426
C   C84       1.0  0.76110  0.84110  0.74900  1.0000 -0.0791497205
C   C85       1.0  0.75100  0.86740  0.70480  1.0000 -0.1058374238
C   C86       1.0  0.73540  0.89690  0.65380  1.0000 0.1588985381
C   C87       1.0  0.68160  0.86990  0.61740  1.0000 -0.2182028889
C   C88       1.0  0.66810  0.90100  0.57240  1.0000 0.0666071017
C   C89       1.0  0.75060  0.98460  0.59600  1.0000 0.0161319104
C   C90       1.0  0.76720  0.95420  0.64330  1.0000 -0.1893960137
C   C91       1.0  0.21750  0.84430  0.94710  1.0000 0.1706504314
C   C92       1.0  0.16330  0.82900  0.90140  1.0000 -0.3097830264
C   C93       1.0  0.11210  0.81700  0.95400  1.0000 0.1785860634
C   C94       1.0  0.23280  0.89880  0.99450  1.0000 -0.3097830264
C   C95       1.0  0.27010  0.85890  0.89570  1.0000 0.0505700458
C   C96       1.0  0.26630  0.86200  0.81840  1.0000 -0.1507837242
C   C97       1.0  0.31340  0.87400  0.77370  1.0000 -0.1655074108
C   C98       1.0  0.36450  0.88310  0.80610  1.0000 0.1204921776
C   C99       1.0  0.36840  0.88010  0.88340  1.0000 -0.1507837242
C   C100      1.0  0.32120  0.86800  0.92810  1.0000 -0.1507837242
C   C101      1.0  0.44960  0.90730  0.71230  1.0000 -0.0941570987
C   C102      1.0  0.41620  0.89980  0.75880  1.0000 -0.0791497205
C   C103      1.0  0.50100  0.92660  0.66380  1.0000 0.1588985381
C   C104      1.0  0.49290  0.91250  0.58830  1.0000 -0.2021800141
C   C105      1.0  0.54030  0.93130  0.54120  1.0000 0.0505700458
C   C106      1.0  0.60390  0.97830  0.64520  1.0000 0.0505700458
C   C107      1.0  0.55650  0.95960  0.69230  1.0000 -0.2021800141
C   C108      1.0  0.05880  0.80260  0.90140  1.0000 0.0555921447
C   C109      1.0  0.03810  0.75460  0.85530  1.0000 -0.1507837242
C   C110      1.0  0.99160  0.74200  0.80480  1.0000 -0.1373028356
C   C111      1.0  0.96730  0.77410  0.80330  1.0000 0.1098825212
C   C112      1.0  0.98790  0.82200  0.85050  1.0000 -0.1507837242
C   C113      1.0  0.03180  0.83530  0.90040  1.0000 -0.1594641426
C   C114      1.0  0.92000  0.76110  0.74900  1.0000 -0.0791497205
C   C115      1.0  0.88360  0.75100  0.70480  1.0000 -0.1058374238
C   C116      1.0  0.83850  0.73540  0.65380  1.0000 0.1588985381
C   C117      1.0  0.81170  0.68160  0.61740  1.0000 -0.2182028889
C   C118      1.0  0.76710  0.66810  0.57240  1.0000 0.0666071017
C   C119      1.0  0.76600  0.75060  0.59600  1.0000 0.0161319104
C   C120      1.0  0.81300  0.76720  0.64330  1.0000 -0.1893960137
C   C121      1.0  0.62680  0.78250  0.94710  1.0000 0.1706504314
C   C122      1.0  0.66570  0.83670  0.90140  1.0000 -0.3097830264
C   C123      1.0  0.70490  0.88790  0.95400  1.0000 0.1785860634
C   C124      1.0  0.66600  0.76720  0.99450  1.0000 -0.3097830264
C   C125      1.0  0.58880  0.72990  0.89570  1.0000 0.0505700458
C   C126      1.0  0.59570  0.73370  0.81840  1.0000 -0.1507837242
C   C127      1.0  0.56060  0.68660  0.77370  1.0000 -0.1594641426
C   C128      1.0  0.51860  0.63550  0.80610  1.0000 0.1204921776
C   C129      1.0  0.51170  0.63160  0.88340  1.0000 -0.1507837242
C   C130      1.0  0.54680  0.67880  0.92810  1.0000 -0.1507837242
C   C131      1.0  0.45770  0.55040  0.71230  1.0000 -0.0961454236
C   C132      1.0  0.48360  0.58380  0.75880  1.0000 -0.0791497205
C   C133      1.0  0.42560  0.49900  0.66380  1.0000 0.1588985381
C   C134      1.0  0.41960  0.50710  0.58830  1.0000 -0.2021800141
C   C135      1.0  0.39100  0.45970  0.54120  1.0000 0.0505700458
C   C136      1.0  0.37440  0.39610  0.64520  1.0000 0.0505700458
C   C137      1.0  0.40310  0.44350  0.69230  1.0000 -0.2021800141
C   C138      1.0  0.74380  0.94120  0.90140  1.0000 0.0555921447
C   C139      1.0  0.71650  0.96190  0.85530  1.0000 -0.1507837242
C   C140      1.0  0.75040  0.00840  0.80480  1.0000 -0.1373028356
C   C141      1.0  0.80680  0.03270  0.80330  1.0000 0.1098825212
C   C142      1.0  0.83410  0.01210  0.85050  1.0000 -0.1507837242
C   C143      1.0  0.80350  0.96820  0.90040  1.0000 -0.1594641426
C   C144      1.0  0.84110  0.08000  0.74900  1.0000 -0.0791497205
C   C145      1.0  0.86740  0.11640  0.70480  1.0000 -0.1058374238
C   C146      1.0  0.89690  0.16150  0.65380  1.0000 0.1588985381
C   C147      1.0  0.86990  0.18830  0.61740  1.0000 -0.2182028889
C   C148      1.0  0.90100  0.23290  0.57240  1.0000 0.0666071017
C   C149      1.0  0.98460  0.23400  0.59600  1.0000 0.0161319104
C   C150      1.0  0.95420  0.18700  0.64330  1.0000 -0.1893960137
C   C151      1.0  0.15570  0.37320  0.94710  1.0000 0.1706504314
C   C152      1.0  0.17100  0.33430  0.90140  1.0000 -0.3097830264
C   C153      1.0  0.18300  0.29510  0.95400  1.0000 0.1785860634
C   C154      1.0  0.10120  0.33400  0.99450  1.0000 -0.3097830264
C   C155      1.0  0.14110  0.41120  0.89570  1.0000 0.0505700458
C   C156      1.0  0.13800  0.40430  0.81840  1.0000 -0.1507837242
C   C157      1.0  0.12600  0.43940  0.77370  1.0000 -0.1655074108
C   C158      1.0  0.11690  0.48140  0.80610  1.0000 0.1204921776
C   C159      1.0  0.11990  0.48830  0.88340  1.0000 -0.1507837242
C   C160      1.0  0.13200  0.45320  0.92810  1.0000 -0.1507837242
C   C161      1.0  0.09270  0.54230  0.71230  1.0000 -0.0941570987
C   C162      1.0  0.10020  0.51640  0.75880  1.0000 -0.0791497205
C   C163      1.0  0.07340  0.57440  0.66380  1.0000 0.1588985381
C   C164      1.0  0.08750  0.58040  0.58830  1.0000 -0.2021800141
C   C165      1.0  0.06870  0.60900  0.54120  1.0000 0.0505700458
C   C166      1.0  0.02170  0.62560  0.64520  1.0000 0.0505700458
C   C167      1.0  0.04040  0.59690  0.69230  1.0000 -0.2021800141
C   C168      1.0  0.19740  0.25620  0.90140  1.0000 0.0555921447
C   C169      1.0  0.24540  0.28350  0.85530  1.0000 -0.1507837242
C   C170      1.0  0.25800  0.24960  0.80480  1.0000 -0.1373028356
C   C171      1.0  0.22590  0.19320  0.80330  1.0000 0.1098825212
C   C172      1.0  0.17800  0.16590  0.85050  1.0000 -0.1594641426
C   C173      1.0  0.16470  0.19650  0.90040  1.0000 -0.1594641426
C   C174      1.0  0.23890  0.15890  0.74900  1.0000 -0.0791497205
C   C175      1.0  0.24900  0.13260  0.70480  1.0000 -0.1058374238
C   C176      1.0  0.26460  0.10310  0.65380  1.0000 0.1588985381
C   C177      1.0  0.31840  0.13010  0.61740  1.0000 -0.2182028889
C   C178      1.0  0.33190  0.09900  0.57240  1.0000 0.0666071017
C   C179      1.0  0.24940  0.01540  0.59600  1.0000 0.0161319104
C   C180      1.0  0.23280  0.04580  0.64330  1.0000 -0.1893960137
C   C181      1.0  0.62680  0.84430  0.05290  1.0000 0.1706504314
C   C182      1.0  0.66570  0.82900  0.09860  1.0000 -0.3097830264
C   C183      1.0  0.70490  0.81700  0.04600  1.0000 0.1785860634
C   C184      1.0  0.66600  0.89880  0.00550  1.0000 -0.3097830264
C   C185      1.0  0.58880  0.85890  0.10430  1.0000 0.0505700458
C   C186      1.0  0.59570  0.86200  0.18160  1.0000 -0.1507837242
C   C187      1.0  0.56060  0.87400  0.22630  1.0000 -0.1594641426
C   C188      1.0  0.51860  0.88310  0.19390  1.0000 0.1204921776
C   C189      1.0  0.51170  0.88010  0.11660  1.0000 -0.1507837242
C   C190      1.0  0.54680  0.86800  0.07190  1.0000 -0.1507837242
C   C191      1.0  0.45770  0.90730  0.28770  1.0000 -0.0941570987
C   C192      1.0  0.48360  0.89980  0.24120  1.0000 -0.0791497205
C   C193      1.0  0.42560  0.92660  0.33620  1.0000 0.1588985381
C   C194      1.0  0.41960  0.91250  0.41170  1.0000 -0.2021800141
C   C195      1.0  0.39100  0.93130  0.45880  1.0000 0.0505700458
C   C196      1.0  0.37440  0.97830  0.35480  1.0000 0.0505700458
C   C197      1.0  0.40310  0.95960  0.30770  1.0000 -0.2021800141
C   C198      1.0  0.74380  0.80260  0.09860  1.0000 0.0555921447
C   C199      1.0  0.71650  0.75460  0.14470  1.0000 -0.1507837242
C   C200      1.0  0.75040  0.74200  0.19520  1.0000 -0.1373028356
C   C201      1.0  0.80680  0.77410  0.19670  1.0000 0.1098825212
C   C202      1.0  0.83410  0.82200  0.14950  1.0000 -0.1507837242
C   C203      1.0  0.80350  0.83530  0.09960  1.0000 -0.1594641426
C   C204      1.0  0.84110  0.76110  0.25100  1.0000 -0.0791497205
C   C205      1.0  0.86740  0.75100  0.29520  1.0000 -0.1058374238
C   C206      1.0  0.89690  0.73540  0.34620  1.0000 0.1588985381
C   C207      1.0  0.86990  0.68160  0.38260  1.0000 -0.2182028889
C   C208      1.0  0.90100  0.66810  0.42760  1.0000 0.0666071017
C   C209      1.0  0.98460  0.75060  0.40400  1.0000 0.0161319104
C   C210      1.0  0.95420  0.76720  0.35670  1.0000 -0.1893960137
C   C211      1.0  0.15570  0.78250  0.05290  1.0000 0.1706504314
C   C212      1.0  0.17100  0.83670  0.09860  1.0000 -0.3097830264
C   C213      1.0  0.18300  0.88790  0.04600  1.0000 0.1785860634
C   C214      1.0  0.10120  0.76720  0.00550  1.0000 -0.3097830264
C   C215      1.0  0.14110  0.72990  0.10430  1.0000 0.0505700458
C   C216      1.0  0.13800  0.73370  0.18160  1.0000 -0.1507837242
C   C217      1.0  0.12600  0.68660  0.22630  1.0000 -0.1594641426
C   C218      1.0  0.11690  0.63550  0.19390  1.0000 0.1204921776
C   C219      1.0  0.11990  0.63160  0.11660  1.0000 -0.1507837242
C   C220      1.0  0.13200  0.67880  0.07190  1.0000 -0.1507837242
C   C221      1.0  0.09270  0.55040  0.28770  1.0000 -0.0941570987
C   C222      1.0  0.10020  0.58380  0.24120  1.0000 -0.0791497205
C   C223      1.0  0.07340  0.49900  0.33620  1.0000 0.1588985381
C   C224      1.0  0.08750  0.50710  0.41170  1.0000 -0.2021800141
C   C225      1.0  0.06870  0.45970  0.45880  1.0000 0.0505700458
C   C226      1.0  0.02170  0.39610  0.35480  1.0000 0.0505700458
C   C227      1.0  0.04040  0.44350  0.30770  1.0000 -0.2021800141
C   C228      1.0  0.19740  0.94120  0.09860  1.0000 0.0555921447
C   C229      1.0  0.24540  0.96190  0.14470  1.0000 -0.1507837242
C   C230      1.0  0.25800  0.00840  0.19520  1.0000 -0.1373028356
C   C231      1.0  0.22590  0.03270  0.19670  1.0000 0.1098825212
C   C232      1.0  0.17800  0.01210  0.14950  1.0000 -0.1507837242
C   C233      1.0  0.16470  0.96820  0.09960  1.0000 -0.1594641426
C   C234      1.0  0.23890  0.08000  0.25100  1.0000 -0.0791497205
C   C235      1.0  0.24900  0.11640  0.29520  1.0000 -0.1058374238
C   C236      1.0  0.26460  0.16150  0.34620  1.0000 0.1588985381
C   C237      1.0  0.31840  0.18830  0.38260  1.0000 -0.2182028889
C   C238      1.0  0.33190  0.23290  0.42760  1.0000 0.0666071017
C   C239      1.0  0.24940  0.23400  0.40400  1.0000 0.0161319104
C   C240      1.0  0.23280  0.18700  0.35670  1.0000 -0.1893960137
C   C241      1.0  0.21750  0.37320  0.05290  1.0000 0.1706504314
C   C242      1.0  0.16330  0.33430  0.09860  1.0000 -0.3097830264
C   C243      1.0  0.11210  0.29510  0.04600  1.0000 0.1785860634
C   C244      1.0  0.23280  0.33400  0.00550  1.0000 -0.3097830264
C   C245      1.0  0.27010  0.41120  0.10430  1.0000 0.0505700458
C   C246      1.0  0.26630  0.40430  0.18160  1.0000 -0.1507837242
C   C247      1.0  0.31340  0.43940  0.22630  1.0000 -0.1594641426
C   C248      1.0  0.36450  0.48140  0.19390  1.0000 0.1204921776
C   C249      1.0  0.36840  0.48830  0.11660  1.0000 -0.1507837242
C   C250      1.0  0.32120  0.45320  0.07190  1.0000 -0.1507837242
C   C251      1.0  0.44960  0.54230  0.28770  1.0000 -0.0941570987
C   C252      1.0  0.41620  0.51640  0.24120  1.0000 -0.0791497205
C   C253      1.0  0.50100  0.57440  0.33620  1.0000 0.1588985381
C   C254      1.0  0.49290  0.58040  0.41170  1.0000 -0.2021800141
C   C255      1.0  0.54030  0.60900  0.45880  1.0000 0.0505700458
C   C256      1.0  0.60390  0.62560  0.35480  1.0000 0.0505700458
C   C257      1.0  0.55650  0.59690  0.30770  1.0000 -0.2021800141
C   C258      1.0  0.05880  0.25620  0.09860  1.0000 0.0555921447
C   C259      1.0  0.03810  0.28350  0.14470  1.0000 -0.1507837242
C   C260      1.0  0.99160  0.24960  0.19520  1.0000 -0.1373028356
C   C261      1.0  0.96730  0.19320  0.19670  1.0000 0.1098825212
C   C262      1.0  0.98790  0.16590  0.14950  1.0000 -0.1507837242
C   C263      1.0  0.03180  0.19650  0.09960  1.0000 -0.1594641426
C   C264      1.0  0.92000  0.15890  0.25100  1.0000 -0.0791497205
C   C265      1.0  0.88360  0.13260  0.29520  1.0000 -0.1058374238
C   C266      1.0  0.83850  0.10310  0.34620  1.0000 0.1588985381
C   C267      1.0  0.81170  0.13010  0.38260  1.0000 -0.2182028889
C   C268      1.0  0.76710  0.09900  0.42760  1.0000 0.0666071017
C   C269      1.0  0.76600  0.01540  0.40400  1.0000 0.0161319104
C   C270      1.0  0.81300  0.04580  0.35670  1.0000 -0.1893960137
C   C271      1.0  0.37320  0.15570  0.05290  1.0000 0.1706504314
C   C272      1.0  0.33430  0.17100  0.09860  1.0000 -0.3097830264
C   C273      1.0  0.29510  0.18300  0.04600  1.0000 0.1785860634
C   C274      1.0  0.33400  0.10120  0.00550  1.0000 -0.3097830264
C   C275      1.0  0.41120  0.14110  0.10430  1.0000 0.0505700458
C   C276      1.0  0.40430  0.13800  0.18160  1.0000 -0.1507837242
C   C277      1.0  0.43940  0.12600  0.22630  1.0000 -0.1594641426
C   C278      1.0  0.48140  0.11690  0.19390  1.0000 0.1204921776
C   C279      1.0  0.48830  0.11990  0.11660  1.0000 -0.1507837242
C   C280      1.0  0.45320  0.13200  0.07190  1.0000 -0.1507837242
C   C281      1.0  0.54230  0.09270  0.28770  1.0000 -0.0941570987
C   C282      1.0  0.51640  0.10020  0.24120  1.0000 -0.0791497205
C   C283      1.0  0.57440  0.07340  0.33620  1.0000 0.1588985381
C   C284      1.0  0.58040  0.08750  0.41170  1.0000 -0.2021800141
C   C285      1.0  0.60900  0.06870  0.45880  1.0000 0.0505700458
C   C286      1.0  0.62560  0.02170  0.35480  1.0000 0.0505700458
C   C287      1.0  0.59690  0.04040  0.30770  1.0000 -0.2021800141
C   C288      1.0  0.25620  0.19740  0.09860  1.0000 0.0555921447
C   C289      1.0  0.28350  0.24540  0.14470  1.0000 -0.1507837242
C   C290      1.0  0.24960  0.25800  0.19520  1.0000 -0.1373028356
C   C291      1.0  0.19320  0.22590  0.19670  1.0000 0.1098825212
C   C292      1.0  0.16590  0.17800  0.14950  1.0000 -0.1507837242
C   C293      1.0  0.19650  0.16470  0.09960  1.0000 -0.1594641426
C   C294      1.0  0.15890  0.23890  0.25100  1.0000 -0.0791497205
C   C295      1.0  0.13260  0.24900  0.29520  1.0000 -0.1058374238
C   C296      1.0  0.10310  0.26460  0.34620  1.0000 0.1588985381
C   C297      1.0  0.13010  0.31840  0.38260  1.0000 -0.2182028889
C   C298      1.0  0.09900  0.33190  0.42760  1.0000 0.0666071017
C   C299      1.0  0.01540  0.24940  0.40400  1.0000 0.0161319104
C   C300      1.0  0.04580  0.23280  0.35670  1.0000 -0.1893960137
C   C301      1.0  0.84430  0.21750  0.05290  1.0000 0.1706504314
C   C302      1.0  0.82900  0.16330  0.09860  1.0000 -0.3097830264
C   C303      1.0  0.81700  0.11210  0.04600  1.0000 0.1785860634
C   C304      1.0  0.89880  0.23280  0.00550  1.0000 -0.3097830264
C   C305      1.0  0.85890  0.27010  0.10430  1.0000 0.0505700458
C   C306      1.0  0.86200  0.26630  0.18160  1.0000 -0.1507837242
C   C307      1.0  0.87400  0.31340  0.22630  1.0000 -0.1594641426
C   C308      1.0  0.88310  0.36450  0.19390  1.0000 0.1204921776
C   C309      1.0  0.88010  0.36840  0.11660  1.0000 -0.1507837242
C   C310      1.0  0.86800  0.32120  0.07190  1.0000 -0.1507837242
C   C311      1.0  0.90730  0.44960  0.28770  1.0000 -0.0961454236
C   C312      1.0  0.89980  0.41620  0.24120  1.0000 -0.0791497205
C   C313      1.0  0.92660  0.50100  0.33620  1.0000 0.1588985381
C   C314      1.0  0.91250  0.49290  0.41170  1.0000 -0.2021800141
C   C315      1.0  0.93130  0.54030  0.45880  1.0000 0.0505700458
C   C316      1.0  0.97830  0.60390  0.35480  1.0000 0.0505700458
C   C317      1.0  0.95960  0.55650  0.30770  1.0000 -0.2021800141
C   C318      1.0  0.80260  0.05880  0.09860  1.0000 0.0555921447
C   C319      1.0  0.75460  0.03810  0.14470  1.0000 -0.1507837242
C   C320      1.0  0.74200  0.99160  0.19520  1.0000 -0.1373028356
C   C321      1.0  0.77410  0.96730  0.19670  1.0000 0.1098825212
C   C322      1.0  0.82200  0.98790  0.14950  1.0000 -0.1507837242
C   C323      1.0  0.83530  0.03180  0.09960  1.0000 -0.1507837242
C   C324      1.0  0.76110  0.92000  0.25100  1.0000 -0.0791497205
C   C325      1.0  0.75100  0.88360  0.29520  1.0000 -0.1058374238
C   C326      1.0  0.73540  0.83850  0.34620  1.0000 0.1588985381
C   C327      1.0  0.68160  0.81170  0.38260  1.0000 -0.2182028889
C   C328      1.0  0.66810  0.76710  0.42760  1.0000 0.0666071017
C   C329      1.0  0.75060  0.76600  0.40400  1.0000 0.0161319104
C   C330      1.0  0.76720  0.81300  0.35670  1.0000 -0.1893960137
C   C331      1.0  0.78250  0.62680  0.05290  1.0000 0.1706504314
C   C332      1.0  0.83670  0.66570  0.09860  1.0000 -0.3097830264
C   C333      1.0  0.88790  0.70490  0.04600  1.0000 0.1785860634
C   C334      1.0  0.76720  0.66600  0.00550  1.0000 -0.3097830264
C   C335      1.0  0.72990  0.58880  0.10430  1.0000 0.0505700458
C   C336      1.0  0.73370  0.59570  0.18160  1.0000 -0.1507837242
C   C337      1.0  0.68660  0.56060  0.22630  1.0000 -0.1594641426
C   C338      1.0  0.63550  0.51860  0.19390  1.0000 0.1204921776
C   C339      1.0  0.63160  0.51170  0.11660  1.0000 -0.1507837242
C   C340      1.0  0.67880  0.54680  0.07190  1.0000 -0.1507837242
C   C341      1.0  0.55040  0.45770  0.28770  1.0000 -0.0941570987
C   C342      1.0  0.58380  0.48360  0.24120  1.0000 -0.0791497205
C   C343      1.0  0.49900  0.42560  0.33620  1.0000 0.1588985381
C   C344      1.0  0.50710  0.41960  0.41170  1.0000 -0.2021800141
C   C345      1.0  0.45970  0.39100  0.45880  1.0000 0.0505700458
C   C346      1.0  0.39610  0.37440  0.35480  1.0000 0.0505700458
C   C347      1.0  0.44350  0.40310  0.30770  1.0000 -0.2021800141
C   C348      1.0  0.94120  0.74380  0.09860  1.0000 0.0555921447
C   C349      1.0  0.96190  0.71650  0.14470  1.0000 -0.1507837242
C   C350      1.0  0.00840  0.75040  0.19520  1.0000 -0.1373028356
C   C351      1.0  0.03270  0.80680  0.19670  1.0000 0.1098825212
C   C352      1.0  0.01210  0.83410  0.14950  1.0000 -0.1594641426
C   C353      1.0  0.96820  0.80350  0.09960  1.0000 -0.1594641426
C   C354      1.0  0.08000  0.84110  0.25100  1.0000 -0.0791497205
C   C355      1.0  0.11640  0.86740  0.29520  1.0000 -0.1058374238
C   C356      1.0  0.16150  0.89690  0.34620  1.0000 0.1588985381
C   C357      1.0  0.18830  0.86990  0.38260  1.0000 -0.2182028889
C   C358      1.0  0.23290  0.90100  0.42760  1.0000 0.0666071017
C   C359      1.0  0.23400  0.98460  0.40400  1.0000 0.0161319104
C   C360      1.0  0.18700  0.95420  0.35670  1.0000 -0.1893960137
C   C361      1.0  0.79455  0.20545  0.00000  1.0000 -0.3097830264
C   C362      1.0  0.87030  0.12970  0.00000  1.0000 -0.3308688053
C   C363      1.0  0.41090  0.20545  0.00000  1.0000 -0.3097830264
C   C364      1.0  0.25940  0.12970  0.00000  1.0000 -0.3308688053
C   C365      1.0  0.79455  0.58910  0.00000  1.0000 -0.3097830264
C   C366      1.0  0.87030  0.74060  0.00000  1.0000 -0.3308688053
C   C367      1.0  0.20545  0.79455  0.00000  1.0000 -0.3097830264
C   C368      1.0  0.12970  0.87030  0.00000  1.0000 -0.3308688053
C   C369      1.0  0.58910  0.79455  0.00000  1.0000 -0.3097830264
C   C370      1.0  0.74060  0.87030  0.00000  1.0000 -0.3308688053
C   C371      1.0  0.20545  0.41090  0.00000  1.0000 -0.3097830264
C   C372      1.0  0.12970  0.25940  0.00000  1.0000 -0.3308688053
N   N1        1.0  0.40420  0.03580  0.56970  1.0000 -0.2418704603
N   N2        1.0  0.25910  0.30260  0.55900  1.0000 -0.2182028889
N   N3        1.0  0.63160  0.59580  0.56970  1.0000 -0.2418704603
N   N4        1.0  0.04350  0.74090  0.55900  1.0000 -0.2182028889
N   N5        1.0  0.96420  0.36840  0.56970  1.0000 -0.2418704603
N   N6        1.0  0.69740  0.95650  0.55900  1.0000 -0.2182028889
N   N7        1.0  0.59580  0.96420  0.56970  1.0000 -0.2418704603
N   N8        1.0  0.74090  0.69740  0.55900  1.0000 -0.2182028889
N   N9        1.0  0.36840  0.40420  0.56970  1.0000 -0.2418704603
N   N10       1.0  0.95650  0.25910  0.55900  1.0000 -0.2182028889
N   N11       1.0  0.03580  0.63160  0.56970  1.0000 -0.2418704603
N   N12       1.0  0.30260  0.04350  0.55900  1.0000 -0.2182028889
N   N13       1.0  0.36840  0.96420  0.43030  1.0000 -0.2418704603
N   N14       1.0  0.95650  0.69740  0.44100  1.0000 -0.2182028889
N   N15       1.0  0.03580  0.40420  0.43030  1.0000 -0.2418704603
N   N16       1.0  0.30260  0.25910  0.44100  1.0000 -0.2182028889
N   N17       1.0  0.59580  0.63160  0.43030  1.0000 -0.2418704603
N   N18       1.0  0.74090  0.04350  0.44100  1.0000 -0.2182028889
N   N19       1.0  0.63160  0.03580  0.43030  1.0000 -0.2418704603
N   N20       1.0  0.04350  0.30260  0.44100  1.0000 -0.2182028889
N   N21       1.0  0.96420  0.59580  0.43030  1.0000 -0.2418704603
N   N22       1.0  0.69740  0.74090  0.44100  1.0000 -0.2182028889
N   N23       1.0  0.40420  0.36840  0.43030  1.0000 -0.2418704603
N   N24       1.0  0.25910  0.95650  0.44100  1.0000 -0.2182028889
