# DDEC6 charges by PACMAN v1.1 (https://github.com/mtap-research/PACMAN-charge/)
data_2020[Cu][nan]3[FSR]9
_chemical_formula_sum              "Cu6 H264 C372 N24"
_cell_length_a       26.6912
_cell_length_b       26.6912
_cell_length_c       17.9351
_cell_angle_alpha    90
_cell_angle_beta     90
_cell_angle_gamma    120

_symmetry_space_group_name_H-M    "P 1"
_symmetry_Int_Tables_number       1

loop_
  _symmetry_equiv_pos_as_xyz
  'x, y, z'

loop_
  _atom_site_type_symbol
  _atom_site_label
  _atom_site_symmetry_multiplicity
  _atom_site_fract_x
  _atom_site_fract_y
  _atom_site_fract_z
  _atom_site_occupancy
  _atom_site_charge
Cu  Cu1       1.0  0.33333  0.33333  0.00000  1.0000 0.1980750228
Cu  Cu2       1.0  0.00000  0.66667  0.00000  1.0000 0.1980750228
Cu  Cu3       1.0  0.66667  0.00000  0.00000  1.0000 0.1980750228
Cu  Cu4       1.0  0.66667  0.66667  0.00000  1.0000 0.1980750228
Cu  Cu5       1.0  0.00000  0.33333  0.00000  1.0000 0.1980750228
Cu  Cu6       1.0  0.33333  0.00000  0.00000  1.0000 0.1980750228
H   H1        1.0  0.82843  0.69041  0.36717  1.0000 0.1000038536
H   H2        1.0  0.84728  0.64217  0.37172  1.0000 0.1000038536
H   H3        1.0  0.80484  0.56490  0.47034  1.0000 0.1000038536
H   H4        1.0  0.73258  0.64168  0.52580  1.0000 0.1000038536
H   H5        1.0  0.75782  0.69026  0.46207  1.0000 0.1087010474
H   H6        1.0  0.90353  0.76665  0.53292  1.0000 0.1000038536
H   H7        1.0  0.67552  0.54118  0.48105  1.0000 0.1205959482
H   H8        1.0  0.59566  0.48301  0.40561  1.0000 0.1205959482
H   H9        1.0  0.68826  0.56752  0.22233  1.0000 0.1087010474
H   H10       1.0  0.76812  0.62569  0.29777  1.0000 0.1087010474
H   H11       1.0  0.44232  0.41087  0.23502  1.0000 0.136936861
H   H12       1.0  0.36163  0.36032  0.15948  1.0000 0.094054986
H   H13       1.0  0.46592  0.38438  0.99050  1.0000 0.1087010474
H   H14       1.0  0.54308  0.43414  0.06824  1.0000 0.1320073905
H   H15       1.0  0.86900  0.82339  0.56829  1.0000 0.1205959482
H   H16       1.0  0.84529  0.87589  0.65042  1.0000 0.1205959482
H   H17       1.0  0.70635  0.72940  0.72405  1.0000 0.1087010474
H   H18       1.0  0.73167  0.67544  0.64575  1.0000 0.1205959482
H   H19       1.0  0.80502  0.97583  0.83733  1.0000 0.1320073905
H   H20       1.0  0.77530  0.02660  0.91101  1.0000 0.1087010474
H   H21       1.0  0.62989  0.88011  0.95259  1.0000 0.1000038536
H   H22       1.0  0.65703  0.82710  0.87605  1.0000 0.136936861
H   H23       1.0  0.86198  0.17157  0.36717  1.0000 0.1000038536
H   H24       1.0  0.79489  0.15272  0.37172  1.0000 0.1000038536
H   H25       1.0  0.76006  0.19516  0.47034  1.0000 0.1000038536
H   H26       1.0  0.90910  0.26742  0.52580  1.0000 0.1000038536
H   H27       1.0  0.93244  0.24218  0.46207  1.0000 0.1087010474
H   H28       1.0  0.86312  0.09647  0.53292  1.0000 0.1000038536
H   H29       1.0  0.86566  0.32448  0.48105  1.0000 0.1205959482
H   H30       1.0  0.88735  0.40434  0.40561  1.0000 0.1205959482
H   H31       1.0  0.87926  0.31174  0.22233  1.0000 0.1087010474
H   H32       1.0  0.85757  0.23188  0.29777  1.0000 0.1087010474
H   H33       1.0  0.96855  0.55768  0.23502  1.0000 0.136936861
H   H34       1.0  0.99869  0.63837  0.15948  1.0000 0.094054986
H   H35       1.0  0.91846  0.53408  0.99050  1.0000 0.1087010474
H   H36       1.0  0.89106  0.45692  0.06824  1.0000 0.1320073905
H   H37       1.0  0.95439  0.13100  0.56829  1.0000 0.1205959482
H   H38       1.0  0.03060  0.15471  0.65042  1.0000 0.1205959482
H   H39       1.0  0.02305  0.29365  0.72405  1.0000 0.1087010474
H   H40       1.0  0.94377  0.26833  0.64575  1.0000 0.1205959482
H   H41       1.0  0.17081  0.19498  0.83733  1.0000 0.1320073905
H   H42       1.0  0.25130  0.22470  0.91101  1.0000 0.1087010474
H   H43       1.0  0.25022  0.37011  0.95259  1.0000 0.1000038536
H   H44       1.0  0.17007  0.34297  0.87605  1.0000 0.136936861
H   H45       1.0  0.30959  0.13802  0.36717  1.0000 0.1000038536
H   H46       1.0  0.35783  0.20511  0.37172  1.0000 0.1000038536
H   H47       1.0  0.43510  0.23994  0.47034  1.0000 0.1000038536
H   H48       1.0  0.35832  0.09090  0.52580  1.0000 0.1000038536
H   H49       1.0  0.30974  0.06756  0.46207  1.0000 0.1087010474
H   H50       1.0  0.23335  0.13688  0.53292  1.0000 0.1000038536
H   H51       1.0  0.45882  0.13434  0.48105  1.0000 0.1205959482
H   H52       1.0  0.51699  0.11265  0.40561  1.0000 0.1205959482
H   H53       1.0  0.43248  0.12074  0.22233  1.0000 0.1087010474
H   H54       1.0  0.37431  0.14243  0.29777  1.0000 0.1087010474
H   H55       1.0  0.58913  0.03145  0.23502  1.0000 0.136936861
H   H56       1.0  0.63968  0.00131  0.15948  1.0000 0.094054986
H   H57       1.0  0.61562  0.08154  0.99050  1.0000 0.1087010474
H   H58       1.0  0.56586  0.10894  0.06824  1.0000 0.1320073905
H   H59       1.0  0.17661  0.04561  0.56829  1.0000 0.1205959482
H   H60       1.0  0.12411  0.96940  0.65042  1.0000 0.1205959482
H   H61       1.0  0.27060  0.97695  0.72405  1.0000 0.1087010474
H   H62       1.0  0.32456  0.05623  0.64575  1.0000 0.1205959482
H   H63       1.0  0.02417  0.82919  0.83733  1.0000 0.1320073905
H   H64       1.0  0.97340  0.74870  0.91101  1.0000 0.1087010474
H   H65       1.0  0.11989  0.74978  0.95259  1.0000 0.1000038536
H   H66       1.0  0.17290  0.82993  0.87605  1.0000 0.136936861
H   H67       1.0  0.17157  0.30959  0.36717  1.0000 0.1000038536
H   H68       1.0  0.15272  0.35783  0.37172  1.0000 0.1000038536
H   H69       1.0  0.19516  0.43510  0.47034  1.0000 0.1000038536
H   H70       1.0  0.26742  0.35832  0.52580  1.0000 0.1000038536
H   H71       1.0  0.24218  0.30974  0.46207  1.0000 0.1087010474
H   H72       1.0  0.09647  0.23335  0.53292  1.0000 0.1000038536
H   H73       1.0  0.32448  0.45882  0.48105  1.0000 0.1205959482
H   H74       1.0  0.40434  0.51699  0.40561  1.0000 0.1205959482
H   H75       1.0  0.31174  0.43248  0.22233  1.0000 0.1087010474
H   H76       1.0  0.23188  0.37431  0.29777  1.0000 0.1087010474
H   H77       1.0  0.55768  0.58913  0.23502  1.0000 0.136936861
H   H78       1.0  0.63837  0.63968  0.15948  1.0000 0.094054986
H   H79       1.0  0.53408  0.61562  0.99050  1.0000 0.1087010474
H   H80       1.0  0.45692  0.56586  0.06824  1.0000 0.1320073905
H   H81       1.0  0.13100  0.17661  0.56829  1.0000 0.1205959482
H   H82       1.0  0.15471  0.12411  0.65042  1.0000 0.1205959482
H   H83       1.0  0.29365  0.27060  0.72405  1.0000 0.1087010474
H   H84       1.0  0.26833  0.32456  0.64575  1.0000 0.1205959482
H   H85       1.0  0.19498  0.02417  0.83733  1.0000 0.1320073905
H   H86       1.0  0.22470  0.97340  0.91101  1.0000 0.1087010474
H   H87       1.0  0.37011  0.11989  0.95259  1.0000 0.1000038536
H   H88       1.0  0.34297  0.17290  0.87605  1.0000 0.136936861
H   H89       1.0  0.13802  0.82843  0.36717  1.0000 0.1000038536
H   H90       1.0  0.20511  0.84728  0.37172  1.0000 0.1000038536
H   H91       1.0  0.23994  0.80484  0.47034  1.0000 0.1000038536
H   H92       1.0  0.09090  0.73258  0.52580  1.0000 0.1000038536
H   H93       1.0  0.06756  0.75782  0.46207  1.0000 0.1087010474
H   H94       1.0  0.13688  0.90353  0.53292  1.0000 0.1000038536
H   H95       1.0  0.13434  0.67552  0.48105  1.0000 0.1205959482
H   H96       1.0  0.11265  0.59566  0.40561  1.0000 0.1205959482
H   H97       1.0  0.12074  0.68826  0.22233  1.0000 0.1087010474
H   H98       1.0  0.14243  0.76812  0.29777  1.0000 0.1087010474
H   H99       1.0  0.03145  0.44232  0.23502  1.0000 0.136936861
H   H100      1.0  0.00131  0.36163  0.15948  1.0000 0.094054986
H   H101      1.0  0.08154  0.46592  0.99050  1.0000 0.1087010474
H   H102      1.0  0.10894  0.54308  0.06824  1.0000 0.1320073905
H   H103      1.0  0.04561  0.86900  0.56829  1.0000 0.1205959482
H   H104      1.0  0.96940  0.84529  0.65042  1.0000 0.1205959482
H   H105      1.0  0.97695  0.70635  0.72405  1.0000 0.1087010474
H   H106      1.0  0.05623  0.73167  0.64575  1.0000 0.1205959482
H   H107      1.0  0.82919  0.80502  0.83733  1.0000 0.1320073905
H   H108      1.0  0.74870  0.77530  0.91101  1.0000 0.1087010474
H   H109      1.0  0.74978  0.62989  0.95259  1.0000 0.1000038536
H   H110      1.0  0.82993  0.65703  0.87605  1.0000 0.136936861
H   H111      1.0  0.69041  0.86198  0.36717  1.0000 0.1000038536
H   H112      1.0  0.64217  0.79489  0.37172  1.0000 0.1000038536
H   H113      1.0  0.56490  0.76006  0.47034  1.0000 0.1000038536
H   H114      1.0  0.64168  0.90910  0.52580  1.0000 0.1000038536
H   H115      1.0  0.69026  0.93244  0.46207  1.0000 0.1087010474
H   H116      1.0  0.76665  0.86312  0.53292  1.0000 0.1087010474
H   H117      1.0  0.54118  0.86566  0.48105  1.0000 0.1205959482
H   H118      1.0  0.48301  0.88735  0.40561  1.0000 0.1205959482
H   H119      1.0  0.56752  0.87926  0.22233  1.0000 0.1087010474
H   H120      1.0  0.62569  0.85757  0.29777  1.0000 0.1087010474
H   H121      1.0  0.41087  0.96855  0.23502  1.0000 0.136936861
H   H122      1.0  0.36032  0.99869  0.15948  1.0000 0.094054986
H   H123      1.0  0.38438  0.91846  0.99050  1.0000 0.1087010474
H   H124      1.0  0.43414  0.89106  0.06824  1.0000 0.1320073905
H   H125      1.0  0.82339  0.95439  0.56829  1.0000 0.1205959482
H   H126      1.0  0.87589  0.03060  0.65042  1.0000 0.1205959482
H   H127      1.0  0.72940  0.02305  0.72405  1.0000 0.1087010474
H   H128      1.0  0.67544  0.94377  0.64575  1.0000 0.1205959482
H   H129      1.0  0.97583  0.17081  0.83733  1.0000 0.1320073905
H   H130      1.0  0.02660  0.25130  0.91101  1.0000 0.1087010474
H   H131      1.0  0.88011  0.25022  0.95259  1.0000 0.1000038536
H   H132      1.0  0.82710  0.17007  0.87605  1.0000 0.136936861
H   H133      1.0  0.13802  0.30959  0.63283  1.0000 0.1000038536
H   H134      1.0  0.20511  0.35783  0.62828  1.0000 0.1000038536
H   H135      1.0  0.23994  0.43510  0.52966  1.0000 0.1000038536
H   H136      1.0  0.09090  0.35832  0.47420  1.0000 0.1000038536
H   H137      1.0  0.06756  0.30974  0.53793  1.0000 0.1087010474
H   H138      1.0  0.13688  0.23335  0.46708  1.0000 0.1000038536
H   H139      1.0  0.13434  0.45882  0.51895  1.0000 0.1205959482
H   H140      1.0  0.11265  0.51699  0.59439  1.0000 0.1205959482
H   H141      1.0  0.12074  0.43248  0.77767  1.0000 0.1087010474
H   H142      1.0  0.14243  0.37431  0.70223  1.0000 0.1087010474
H   H143      1.0  0.03145  0.58913  0.76498  1.0000 0.136936861
H   H144      1.0  0.00131  0.63968  0.84052  1.0000 0.094054986
H   H145      1.0  0.08154  0.61562  0.00950  1.0000 0.1087010474
H   H146      1.0  0.10894  0.56586  0.93176  1.0000 0.1320073905
H   H147      1.0  0.04561  0.17661  0.43171  1.0000 0.1205959482
H   H148      1.0  0.96940  0.12411  0.34958  1.0000 0.1205959482
H   H149      1.0  0.97695  0.27060  0.27595  1.0000 0.1087010474
H   H150      1.0  0.05623  0.32456  0.35425  1.0000 0.1205959482
H   H151      1.0  0.82919  0.02417  0.16267  1.0000 0.1320073905
H   H152      1.0  0.74870  0.97340  0.08899  1.0000 0.1087010474
H   H153      1.0  0.74978  0.11989  0.04741  1.0000 0.1000038536
H   H154      1.0  0.82993  0.17290  0.12395  1.0000 0.136936861
H   H155      1.0  0.69041  0.82843  0.63283  1.0000 0.1000038536
H   H156      1.0  0.64217  0.84728  0.62828  1.0000 0.1000038536
H   H157      1.0  0.56490  0.80484  0.52966  1.0000 0.1000038536
H   H158      1.0  0.64168  0.73258  0.47420  1.0000 0.1000038536
H   H159      1.0  0.69026  0.75782  0.53793  1.0000 0.1087010474
H   H160      1.0  0.76665  0.90353  0.46708  1.0000 0.1087010474
H   H161      1.0  0.54118  0.67552  0.51895  1.0000 0.1205959482
H   H162      1.0  0.48301  0.59566  0.59439  1.0000 0.1205959482
H   H163      1.0  0.56752  0.68826  0.77767  1.0000 0.1087010474
H   H164      1.0  0.62569  0.76812  0.70223  1.0000 0.1087010474
H   H165      1.0  0.41087  0.44232  0.76498  1.0000 0.136936861
H   H166      1.0  0.36032  0.36163  0.84052  1.0000 0.094054986
H   H167      1.0  0.38438  0.46592  0.00950  1.0000 0.1087010474
H   H168      1.0  0.43414  0.54308  0.93176  1.0000 0.1320073905
H   H169      1.0  0.82339  0.86900  0.43171  1.0000 0.1205959482
H   H170      1.0  0.87589  0.84529  0.34958  1.0000 0.1205959482
H   H171      1.0  0.72940  0.70635  0.27595  1.0000 0.1087010474
H   H172      1.0  0.67544  0.73167  0.35425  1.0000 0.1205959482
H   H173      1.0  0.97583  0.80502  0.16267  1.0000 0.1320073905
H   H174      1.0  0.02660  0.77530  0.08899  1.0000 0.1087010474
H   H175      1.0  0.88011  0.62989  0.04741  1.0000 0.1000038536
H   H176      1.0  0.82710  0.65703  0.12395  1.0000 0.136936861
H   H177      1.0  0.17157  0.86198  0.63283  1.0000 0.1000038536
H   H178      1.0  0.15272  0.79489  0.62828  1.0000 0.1000038536
H   H179      1.0  0.19516  0.76006  0.52966  1.0000 0.1000038536
H   H180      1.0  0.26742  0.90910  0.47420  1.0000 0.1000038536
H   H181      1.0  0.24218  0.93244  0.53793  1.0000 0.1087010474
H   H182      1.0  0.09647  0.86312  0.46708  1.0000 0.1000038536
H   H183      1.0  0.32448  0.86566  0.51895  1.0000 0.1205959482
H   H184      1.0  0.40434  0.88735  0.59439  1.0000 0.1205959482
H   H185      1.0  0.31174  0.87926  0.77767  1.0000 0.1087010474
H   H186      1.0  0.23188  0.85757  0.70223  1.0000 0.1087010474
H   H187      1.0  0.55768  0.96855  0.76498  1.0000 0.136936861
H   H188      1.0  0.63837  0.99869  0.84052  1.0000 0.094054986
H   H189      1.0  0.53408  0.91846  0.00950  1.0000 0.1087010474
H   H190      1.0  0.45692  0.89106  0.93176  1.0000 0.1320073905
H   H191      1.0  0.13100  0.95439  0.43171  1.0000 0.1205959482
H   H192      1.0  0.15471  0.03060  0.34958  1.0000 0.1205959482
H   H193      1.0  0.29365  0.02305  0.27595  1.0000 0.1087010474
H   H194      1.0  0.26833  0.94377  0.35425  1.0000 0.1205959482
H   H195      1.0  0.19498  0.17081  0.16267  1.0000 0.1320073905
H   H196      1.0  0.22470  0.25130  0.08899  1.0000 0.1087010474
H   H197      1.0  0.37011  0.25022  0.04741  1.0000 0.1000038536
H   H198      1.0  0.34297  0.17007  0.12395  1.0000 0.136936861
H   H199      1.0  0.86198  0.69041  0.63283  1.0000 0.1000038536
H   H200      1.0  0.79489  0.64217  0.62828  1.0000 0.1000038536
H   H201      1.0  0.76006  0.56490  0.52966  1.0000 0.1000038536
H   H202      1.0  0.90910  0.64168  0.47420  1.0000 0.1000038536
H   H203      1.0  0.93244  0.69026  0.53793  1.0000 0.1087010474
H   H204      1.0  0.86312  0.76665  0.46708  1.0000 0.1000038536
H   H205      1.0  0.86566  0.54118  0.51895  1.0000 0.1205959482
H   H206      1.0  0.88735  0.48301  0.59439  1.0000 0.1205959482
H   H207      1.0  0.87926  0.56752  0.77767  1.0000 0.1087010474
H   H208      1.0  0.85757  0.62569  0.70223  1.0000 0.1087010474
H   H209      1.0  0.96855  0.41087  0.76498  1.0000 0.136936861
H   H210      1.0  0.99869  0.36032  0.84052  1.0000 0.094054986
H   H211      1.0  0.91846  0.38438  0.00950  1.0000 0.1087010474
H   H212      1.0  0.89106  0.43414  0.93176  1.0000 0.1320073905
H   H213      1.0  0.95439  0.82339  0.43171  1.0000 0.1205959482
H   H214      1.0  0.03060  0.87589  0.34958  1.0000 0.1205959482
H   H215      1.0  0.02305  0.72940  0.27595  1.0000 0.1087010474
H   H216      1.0  0.94377  0.67544  0.35425  1.0000 0.1205959482
H   H217      1.0  0.17081  0.97583  0.16267  1.0000 0.1320073905
H   H218      1.0  0.25130  0.02660  0.08899  1.0000 0.1087010474
H   H219      1.0  0.25022  0.88011  0.04741  1.0000 0.1000038536
H   H220      1.0  0.17007  0.82710  0.12395  1.0000 0.136936861
H   H221      1.0  0.30959  0.17157  0.63283  1.0000 0.1000038536
H   H222      1.0  0.35783  0.15272  0.62828  1.0000 0.1000038536
H   H223      1.0  0.43510  0.19516  0.52966  1.0000 0.1000038536
H   H224      1.0  0.35832  0.26742  0.47420  1.0000 0.1000038536
H   H225      1.0  0.30974  0.24218  0.53793  1.0000 0.1087010474
H   H226      1.0  0.23335  0.09647  0.46708  1.0000 0.1000038536
H   H227      1.0  0.45882  0.32448  0.51895  1.0000 0.1205959482
H   H228      1.0  0.51699  0.40434  0.59439  1.0000 0.1205959482
H   H229      1.0  0.43248  0.31174  0.77767  1.0000 0.1087010474
H   H230      1.0  0.37431  0.23188  0.70223  1.0000 0.1087010474
H   H231      1.0  0.58913  0.55768  0.76498  1.0000 0.136936861
H   H232      1.0  0.63968  0.63837  0.84052  1.0000 0.094054986
H   H233      1.0  0.61562  0.53408  0.00950  1.0000 0.1087010474
H   H234      1.0  0.56586  0.45692  0.93176  1.0000 0.1320073905
H   H235      1.0  0.17661  0.13100  0.43171  1.0000 0.1205959482
H   H236      1.0  0.12411  0.15471  0.34958  1.0000 0.1205959482
H   H237      1.0  0.27060  0.29365  0.27595  1.0000 0.1087010474
H   H238      1.0  0.32456  0.26833  0.35425  1.0000 0.1205959482
H   H239      1.0  0.02417  0.19498  0.16267  1.0000 0.1320073905
H   H240      1.0  0.97340  0.22470  0.08899  1.0000 0.1087010474
H   H241      1.0  0.11989  0.37011  0.04741  1.0000 0.1000038536
H   H242      1.0  0.17290  0.34297  0.12395  1.0000 0.136936861
H   H243      1.0  0.82843  0.13802  0.63283  1.0000 0.1000038536
H   H244      1.0  0.84728  0.20511  0.62828  1.0000 0.1000038536
H   H245      1.0  0.80484  0.23994  0.52966  1.0000 0.1000038536
H   H246      1.0  0.73258  0.09090  0.47420  1.0000 0.1000038536
H   H247      1.0  0.75782  0.06756  0.53793  1.0000 0.1087010474
H   H248      1.0  0.90353  0.13688  0.46708  1.0000 0.1000038536
H   H249      1.0  0.67552  0.13434  0.51895  1.0000 0.1205959482
H   H250      1.0  0.59566  0.11265  0.59439  1.0000 0.1205959482
H   H251      1.0  0.68826  0.12074  0.77767  1.0000 0.1087010474
H   H252      1.0  0.76812  0.14243  0.70223  1.0000 0.1087010474
H   H253      1.0  0.44232  0.03145  0.76498  1.0000 0.136936861
H   H254      1.0  0.36163  0.00131  0.84052  1.0000 0.094054986
H   H255      1.0  0.46592  0.08154  0.00950  1.0000 0.1087010474
H   H256      1.0  0.54308  0.10894  0.93176  1.0000 0.1320073905
H   H257      1.0  0.86900  0.04561  0.43171  1.0000 0.1205959482
H   H258      1.0  0.84529  0.96940  0.34958  1.0000 0.1205959482
H   H259      1.0  0.70635  0.97695  0.27595  1.0000 0.1087010474
H   H260      1.0  0.73167  0.05623  0.35425  1.0000 0.1205959482
H   H261      1.0  0.80502  0.82919  0.16267  1.0000 0.1320073905
H   H262      1.0  0.77530  0.74870  0.08899  1.0000 0.1087010474
H   H263      1.0  0.62989  0.74978  0.04741  1.0000 0.1000038536
H   H264      1.0  0.65703  0.82993  0.12395  1.0000 0.136936861
C   C1        1.0  0.78170  0.62720  0.44670  1.0000 0.1698737494
C   C2        1.0  0.83640  0.66640  0.40180  1.0000 -0.3101608614
C   C3        1.0  0.76710  0.66620  0.49490  1.0000 -0.3009093977
C   C4        1.0  0.81880  0.70600  0.54650  1.0000 0.1786028149
C   C5        1.0  0.72930  0.58890  0.39650  1.0000 0.0517368724
C   C6        1.0  0.67810  0.54650  0.42850  1.0000 -0.150384527
C   C7        1.0  0.63070  0.51200  0.38370  1.0000 -0.150384527
C   C8        1.0  0.63450  0.51980  0.30690  1.0000 0.1205959482
C   C9        1.0  0.68570  0.56220  0.27480  1.0000 -0.1709407082
C   C10       1.0  0.73310  0.59670  0.31970  1.0000 -0.150384527
C   C11       1.0  0.58350  0.48180  0.25470  1.0000 -0.0538390066
C   C12       1.0  0.54720  0.45650  0.21360  1.0000 -0.1095584343
C   C13       1.0  0.50120  0.42750  0.16610  1.0000 0.1205959482
C   C14       1.0  0.44940  0.40630  0.18420  1.0000 -0.2121488804
C   C15       1.0  0.39900  0.37580  0.13800  1.0000 0.1000038536
C   C16       1.0  0.45980  0.39010  0.04120  1.0000 0.0003600524
C   C17       1.0  0.50540  0.41880  0.08860  1.0000 -0.1968484693
C   C18       1.0  0.80310  0.74440  0.59780  1.0000 0.0517368724
C   C19       1.0  0.83640  0.80380  0.60020  1.0000 -0.1604797801
C   C20       1.0  0.82220  0.83490  0.64950  1.0000 -0.150384527
C   C21       1.0  0.77410  0.80720  0.69870  1.0000 0.1087010474
C   C22       1.0  0.74020  0.74870  0.69420  1.0000 -0.1435989649
C   C23       1.0  0.75460  0.71640  0.64610  1.0000 -0.150384527
C   C24       1.0  0.76260  0.84180  0.75170  1.0000 -0.0881280512
C   C25       1.0  0.75170  0.86850  0.79470  1.0000 -0.1034512207
C   C26       1.0  0.73390  0.89670  0.84550  1.0000 0.1624534554
C   C27       1.0  0.76790  0.95560  0.85980  1.0000 -0.1968484693
C   C28       1.0  0.75090  0.98610  0.90460  1.0000 0.037583192
C   C29       1.0  0.66620  0.90030  0.92780  1.0000 0.0585601136
C   C30       1.0  0.68170  0.86770  0.88180  1.0000 -0.2121488804
C   C31       1.0  0.84550  0.21830  0.44670  1.0000 0.1698737494
C   C32       1.0  0.83000  0.16360  0.40180  1.0000 -0.3101608614
C   C33       1.0  0.89910  0.23290  0.49490  1.0000 -0.3009093977
C   C34       1.0  0.88720  0.18120  0.54650  1.0000 0.1786028149
C   C35       1.0  0.85960  0.27070  0.39650  1.0000 0.0517368724
C   C36       1.0  0.86840  0.32190  0.42850  1.0000 -0.150384527
C   C37       1.0  0.88130  0.36930  0.38370  1.0000 -0.150384527
C   C38       1.0  0.88530  0.36550  0.30690  1.0000 0.1205959482
C   C39       1.0  0.87650  0.31430  0.27480  1.0000 -0.1709407082
C   C40       1.0  0.86360  0.26690  0.31970  1.0000 -0.150384527
C   C41       1.0  0.89830  0.41650  0.25470  1.0000 -0.0538390066
C   C42       1.0  0.90930  0.45280  0.21360  1.0000 -0.1095584343
C   C43       1.0  0.92630  0.49880  0.16610  1.0000 0.1205959482
C   C44       1.0  0.95690  0.55060  0.18420  1.0000 -0.2121488804
C   C45       1.0  0.97680  0.60100  0.13800  1.0000 0.1000038536
C   C46       1.0  0.93030  0.54020  0.04120  1.0000 0.0003600524
C   C47       1.0  0.91340  0.49460  0.08860  1.0000 -0.1968484693
C   C48       1.0  0.94130  0.19690  0.59780  1.0000 0.0517368724
C   C49       1.0  0.96740  0.16360  0.60020  1.0000 -0.1604797801
C   C50       1.0  0.01270  0.17780  0.64950  1.0000 -0.150384527
C   C51       1.0  0.03310  0.22590  0.69870  1.0000 0.1087010474
C   C52       1.0  0.00850  0.25980  0.69420  1.0000 -0.1435989649
C   C53       1.0  0.96180  0.24540  0.64610  1.0000 -0.150384527
C   C54       1.0  0.07920  0.23740  0.75170  1.0000 -0.0881280512
C   C55       1.0  0.11680  0.24830  0.79470  1.0000 -0.1034512207
C   C56       1.0  0.16280  0.26610  0.84550  1.0000 0.1624534554
C   C57       1.0  0.18770  0.23210  0.85980  1.0000 -0.1968484693
C   C58       1.0  0.23520  0.24910  0.90460  1.0000 0.037583192
C   C59       1.0  0.23410  0.33380  0.92780  1.0000 0.0585601136
C   C60       1.0  0.18600  0.31830  0.88180  1.0000 -0.2121488804
C   C61       1.0  0.37280  0.15450  0.44670  1.0000 0.1698737494
C   C62       1.0  0.33360  0.17000  0.40180  1.0000 -0.3101608614
C   C63       1.0  0.33380  0.10090  0.49490  1.0000 -0.3009093977
C   C64       1.0  0.29400  0.11280  0.54650  1.0000 0.1786028149
C   C65       1.0  0.41110  0.14040  0.39650  1.0000 0.0517368724
C   C66       1.0  0.45350  0.13160  0.42850  1.0000 -0.150384527
C   C67       1.0  0.48800  0.11870  0.38370  1.0000 -0.150384527
C   C68       1.0  0.48020  0.11470  0.30690  1.0000 0.1205959482
C   C69       1.0  0.43780  0.12350  0.27480  1.0000 -0.1709407082
C   C70       1.0  0.40330  0.13640  0.31970  1.0000 -0.150384527
C   C71       1.0  0.51820  0.10170  0.25470  1.0000 -0.0538390066
C   C72       1.0  0.54350  0.09070  0.21360  1.0000 -0.1095584343
C   C73       1.0  0.57250  0.07370  0.16610  1.0000 0.1205959482
C   C74       1.0  0.59370  0.04310  0.18420  1.0000 -0.2121488804
C   C75       1.0  0.62420  0.02320  0.13800  1.0000 0.1000038536
C   C76       1.0  0.60990  0.06970  0.04120  1.0000 -0.0012315621
C   C77       1.0  0.58120  0.08660  0.08860  1.0000 -0.1968484693
C   C78       1.0  0.25560  0.05870  0.59780  1.0000 0.0517368724
C   C79       1.0  0.19620  0.03260  0.60020  1.0000 -0.1604797801
C   C80       1.0  0.16510  0.98730  0.64950  1.0000 -0.150384527
C   C81       1.0  0.19280  0.96690  0.69870  1.0000 0.1087010474
C   C82       1.0  0.25130  0.99150  0.69420  1.0000 -0.1435989649
C   C83       1.0  0.28360  0.03820  0.64610  1.0000 -0.150384527
C   C84       1.0  0.15820  0.92080  0.75170  1.0000 -0.0881280512
C   C85       1.0  0.13150  0.88320  0.79470  1.0000 -0.1034512207
C   C86       1.0  0.10330  0.83720  0.84550  1.0000 0.1624534554
C   C87       1.0  0.04440  0.81230  0.85980  1.0000 -0.1968484693
C   C88       1.0  0.01390  0.76480  0.90460  1.0000 0.037583192
C   C89       1.0  0.09970  0.76590  0.92780  1.0000 0.0585601136
C   C90       1.0  0.13230  0.81400  0.88180  1.0000 -0.2121488804
C   C91       1.0  0.21830  0.37280  0.44670  1.0000 0.1698737494
C   C92       1.0  0.16360  0.33360  0.40180  1.0000 -0.3101608614
C   C93       1.0  0.23290  0.33380  0.49490  1.0000 -0.3009093977
C   C94       1.0  0.18120  0.29400  0.54650  1.0000 0.1786028149
C   C95       1.0  0.27070  0.41110  0.39650  1.0000 0.0517368724
C   C96       1.0  0.32190  0.45350  0.42850  1.0000 -0.150384527
C   C97       1.0  0.36930  0.48800  0.38370  1.0000 -0.150384527
C   C98       1.0  0.36550  0.48020  0.30690  1.0000 0.1205959482
C   C99       1.0  0.31430  0.43780  0.27480  1.0000 -0.1709407082
C   C100      1.0  0.26690  0.40330  0.31970  1.0000 -0.150384527
C   C101      1.0  0.41650  0.51820  0.25470  1.0000 -0.0538390066
C   C102      1.0  0.45280  0.54350  0.21360  1.0000 -0.1095584343
C   C103      1.0  0.49880  0.57250  0.16610  1.0000 0.1205959482
C   C104      1.0  0.55060  0.59370  0.18420  1.0000 -0.2121488804
C   C105      1.0  0.60100  0.62420  0.13800  1.0000 0.1000038536
C   C106      1.0  0.54020  0.60990  0.04120  1.0000 -0.0012315621
C   C107      1.0  0.49460  0.58120  0.08860  1.0000 -0.1968484693
C   C108      1.0  0.19690  0.25560  0.59780  1.0000 0.0517368724
C   C109      1.0  0.16360  0.19620  0.60020  1.0000 -0.1604797801
C   C110      1.0  0.17780  0.16510  0.64950  1.0000 -0.150384527
C   C111      1.0  0.22590  0.19280  0.69870  1.0000 0.1087010474
C   C112      1.0  0.25980  0.25130  0.69420  1.0000 -0.1435989649
C   C113      1.0  0.24540  0.28360  0.64610  1.0000 -0.150384527
C   C114      1.0  0.23740  0.15820  0.75170  1.0000 -0.0881280512
C   C115      1.0  0.24830  0.13150  0.79470  1.0000 -0.1034512207
C   C116      1.0  0.26610  0.10330  0.84550  1.0000 0.1624534554
C   C117      1.0  0.23210  0.04440  0.85980  1.0000 -0.1968484693
C   C118      1.0  0.24910  0.01390  0.90460  1.0000 0.037583192
C   C119      1.0  0.33380  0.09970  0.92780  1.0000 0.0585601136
C   C120      1.0  0.31830  0.13230  0.88180  1.0000 -0.2121488804
C   C121      1.0  0.15450  0.78170  0.44670  1.0000 0.1698737494
C   C122      1.0  0.17000  0.83640  0.40180  1.0000 -0.3101608614
C   C123      1.0  0.10090  0.76710  0.49490  1.0000 -0.3009093977
C   C124      1.0  0.11280  0.81880  0.54650  1.0000 0.1786028149
C   C125      1.0  0.14040  0.72930  0.39650  1.0000 0.0517368724
C   C126      1.0  0.13160  0.67810  0.42850  1.0000 -0.150384527
C   C127      1.0  0.11870  0.63070  0.38370  1.0000 -0.150384527
C   C128      1.0  0.11470  0.63450  0.30690  1.0000 0.1205959482
C   C129      1.0  0.12350  0.68570  0.27480  1.0000 -0.1709407082
C   C130      1.0  0.13640  0.73310  0.31970  1.0000 -0.150384527
C   C131      1.0  0.10170  0.58350  0.25470  1.0000 -0.0538390066
C   C132      1.0  0.09070  0.54720  0.21360  1.0000 -0.1095584343
C   C133      1.0  0.07370  0.50120  0.16610  1.0000 0.1205959482
C   C134      1.0  0.04310  0.44940  0.18420  1.0000 -0.2121488804
C   C135      1.0  0.02320  0.39900  0.13800  1.0000 0.1000038536
C   C136      1.0  0.06970  0.45980  0.04120  1.0000 -0.0012315621
C   C137      1.0  0.08660  0.50540  0.08860  1.0000 -0.1968484693
C   C138      1.0  0.05870  0.80310  0.59780  1.0000 0.0517368724
C   C139      1.0  0.03260  0.83640  0.60020  1.0000 -0.1604797801
C   C140      1.0  0.98730  0.82220  0.64950  1.0000 -0.150384527
C   C141      1.0  0.96690  0.77410  0.69870  1.0000 0.1087010474
C   C142      1.0  0.99150  0.74020  0.69420  1.0000 -0.1435989649
C   C143      1.0  0.03820  0.75460  0.64610  1.0000 -0.150384527
C   C144      1.0  0.92080  0.76260  0.75170  1.0000 -0.0881280512
C   C145      1.0  0.88320  0.75170  0.79470  1.0000 -0.1034512207
C   C146      1.0  0.83720  0.73390  0.84550  1.0000 0.1624534554
C   C147      1.0  0.81230  0.76790  0.85980  1.0000 -0.1968484693
C   C148      1.0  0.76480  0.75090  0.90460  1.0000 0.037583192
C   C149      1.0  0.76590  0.66620  0.92780  1.0000 0.0585601136
C   C150      1.0  0.81400  0.68170  0.88180  1.0000 -0.2121488804
C   C151      1.0  0.62720  0.84550  0.44670  1.0000 0.1698737494
C   C152      1.0  0.66640  0.83000  0.40180  1.0000 -0.3101608614
C   C153      1.0  0.66620  0.89910  0.49490  1.0000 -0.3009093977
C   C154      1.0  0.70600  0.88720  0.54650  1.0000 0.1786028149
C   C155      1.0  0.58890  0.85960  0.39650  1.0000 0.0517368724
C   C156      1.0  0.54650  0.86840  0.42850  1.0000 -0.150384527
C   C157      1.0  0.51200  0.88130  0.38370  1.0000 -0.150384527
C   C158      1.0  0.51980  0.88530  0.30690  1.0000 0.1205959482
C   C159      1.0  0.56220  0.87650  0.27480  1.0000 -0.1709407082
C   C160      1.0  0.59670  0.86360  0.31970  1.0000 -0.150384527
C   C161      1.0  0.48180  0.89830  0.25470  1.0000 -0.0538390066
C   C162      1.0  0.45650  0.90930  0.21360  1.0000 -0.1095584343
C   C163      1.0  0.42750  0.92630  0.16610  1.0000 0.1205959482
C   C164      1.0  0.40630  0.95690  0.18420  1.0000 -0.2121488804
C   C165      1.0  0.37580  0.97680  0.13800  1.0000 0.1000038536
C   C166      1.0  0.39010  0.93030  0.04120  1.0000 -0.0012315621
C   C167      1.0  0.41880  0.91340  0.08860  1.0000 -0.1968484693
C   C168      1.0  0.74440  0.94130  0.59780  1.0000 0.0517368724
C   C169      1.0  0.80380  0.96740  0.60020  1.0000 -0.1604797801
C   C170      1.0  0.83490  0.01270  0.64950  1.0000 -0.150384527
C   C171      1.0  0.80720  0.03310  0.69870  1.0000 0.1087010474
C   C172      1.0  0.74870  0.00850  0.69420  1.0000 -0.1435989649
C   C173      1.0  0.71640  0.96180  0.64610  1.0000 -0.150384527
C   C174      1.0  0.84180  0.07920  0.75170  1.0000 -0.0881280512
C   C175      1.0  0.86850  0.11680  0.79470  1.0000 -0.1034512207
C   C176      1.0  0.89670  0.16280  0.84550  1.0000 0.1624534554
C   C177      1.0  0.95560  0.18770  0.85980  1.0000 -0.1968484693
C   C178      1.0  0.98610  0.23520  0.90460  1.0000 0.037583192
C   C179      1.0  0.90030  0.23410  0.92780  1.0000 0.0585601136
C   C180      1.0  0.86770  0.18600  0.88180  1.0000 -0.2121488804
C   C181      1.0  0.15450  0.37280  0.55330  1.0000 0.1698737494
C   C182      1.0  0.17000  0.33360  0.59820  1.0000 -0.3101608614
C   C183      1.0  0.10090  0.33380  0.50510  1.0000 -0.3009093977
C   C184      1.0  0.11280  0.29400  0.45350  1.0000 0.1786028149
C   C185      1.0  0.14040  0.41110  0.60350  1.0000 0.0517368724
C   C186      1.0  0.13160  0.45350  0.57150  1.0000 -0.150384527
C   C187      1.0  0.11870  0.48800  0.61630  1.0000 -0.150384527
C   C188      1.0  0.11470  0.48020  0.69310  1.0000 0.1205959482
C   C189      1.0  0.12350  0.43780  0.72520  1.0000 -0.1709407082
C   C190      1.0  0.13640  0.40330  0.68030  1.0000 -0.150384527
C   C191      1.0  0.10170  0.51820  0.74530  1.0000 -0.0538390066
C   C192      1.0  0.09070  0.54350  0.78640  1.0000 -0.1095584343
C   C193      1.0  0.07370  0.57250  0.83390  1.0000 0.1205959482
C   C194      1.0  0.04310  0.59370  0.81580  1.0000 -0.2121488804
C   C195      1.0  0.02320  0.62420  0.86200  1.0000 0.1000038536
C   C196      1.0  0.06970  0.60990  0.95880  1.0000 -0.0012315621
C   C197      1.0  0.08660  0.58120  0.91140  1.0000 -0.1968484693
C   C198      1.0  0.05870  0.25560  0.40220  1.0000 0.0517368724
C   C199      1.0  0.03260  0.19620  0.39980  1.0000 -0.1604797801
C   C200      1.0  0.98730  0.16510  0.35050  1.0000 -0.150384527
C   C201      1.0  0.96690  0.19280  0.30130  1.0000 0.1087010474
C   C202      1.0  0.99150  0.25130  0.30580  1.0000 -0.1435989649
C   C203      1.0  0.03820  0.28360  0.35390  1.0000 -0.150384527
C   C204      1.0  0.92080  0.15820  0.24830  1.0000 -0.0881280512
C   C205      1.0  0.88320  0.13150  0.20530  1.0000 -0.1034512207
C   C206      1.0  0.83720  0.10330  0.15450  1.0000 0.1624534554
C   C207      1.0  0.81230  0.04440  0.14020  1.0000 -0.1968484693
C   C208      1.0  0.76480  0.01390  0.09540  1.0000 0.037583192
C   C209      1.0  0.76590  0.09970  0.07220  1.0000 0.0585601136
C   C210      1.0  0.81400  0.13230  0.11820  1.0000 -0.2121488804
C   C211      1.0  0.62720  0.78170  0.55330  1.0000 0.1698737494
C   C212      1.0  0.66640  0.83640  0.59820  1.0000 -0.3101608614
C   C213      1.0  0.66620  0.76710  0.50510  1.0000 -0.3009093977
C   C214      1.0  0.70600  0.81880  0.45350  1.0000 0.1786028149
C   C215      1.0  0.58890  0.72930  0.60350  1.0000 0.0517368724
C   C216      1.0  0.54650  0.67810  0.57150  1.0000 -0.150384527
C   C217      1.0  0.51200  0.63070  0.61630  1.0000 -0.150384527
C   C218      1.0  0.51980  0.63450  0.69310  1.0000 0.1205959482
C   C219      1.0  0.56220  0.68570  0.72520  1.0000 -0.1709407082
C   C220      1.0  0.59670  0.73310  0.68030  1.0000 -0.150384527
C   C221      1.0  0.48180  0.58350  0.74530  1.0000 -0.0538390066
C   C222      1.0  0.45650  0.54720  0.78640  1.0000 -0.1095584343
C   C223      1.0  0.42750  0.50120  0.83390  1.0000 0.1205959482
C   C224      1.0  0.40630  0.44940  0.81580  1.0000 -0.2121488804
C   C225      1.0  0.37580  0.39900  0.86200  1.0000 0.1000038536
C   C226      1.0  0.39010  0.45980  0.95880  1.0000 -0.0012315621
C   C227      1.0  0.41880  0.50540  0.91140  1.0000 -0.1968484693
C   C228      1.0  0.74440  0.80310  0.40220  1.0000 0.0517368724
C   C229      1.0  0.80380  0.83640  0.39980  1.0000 -0.1604797801
C   C230      1.0  0.83490  0.82220  0.35050  1.0000 -0.150384527
C   C231      1.0  0.80720  0.77410  0.30130  1.0000 0.1087010474
C   C232      1.0  0.74870  0.74020  0.30580  1.0000 -0.1435989649
C   C233      1.0  0.71640  0.75460  0.35390  1.0000 -0.150384527
C   C234      1.0  0.84180  0.76260  0.24830  1.0000 -0.0881280512
C   C235      1.0  0.86850  0.75170  0.20530  1.0000 -0.1034512207
C   C236      1.0  0.89670  0.73390  0.15450  1.0000 0.1624534554
C   C237      1.0  0.95560  0.76790  0.14020  1.0000 -0.1968484693
C   C238      1.0  0.98610  0.75090  0.09540  1.0000 0.037583192
C   C239      1.0  0.90030  0.66620  0.07220  1.0000 0.0585601136
C   C240      1.0  0.86770  0.68170  0.11820  1.0000 -0.2121488804
C   C241      1.0  0.21830  0.84550  0.55330  1.0000 0.1698737494
C   C242      1.0  0.16360  0.83000  0.59820  1.0000 -0.3101608614
C   C243      1.0  0.23290  0.89910  0.50510  1.0000 -0.3009093977
C   C244      1.0  0.18120  0.88720  0.45350  1.0000 0.1786028149
C   C245      1.0  0.27070  0.85960  0.60350  1.0000 0.0517368724
C   C246      1.0  0.32190  0.86840  0.57150  1.0000 -0.150384527
C   C247      1.0  0.36930  0.88130  0.61630  1.0000 -0.150384527
C   C248      1.0  0.36550  0.88530  0.69310  1.0000 0.1205959482
C   C249      1.0  0.31430  0.87650  0.72520  1.0000 -0.1709407082
C   C250      1.0  0.26690  0.86360  0.68030  1.0000 -0.150384527
C   C251      1.0  0.41650  0.89830  0.74530  1.0000 -0.0538390066
C   C252      1.0  0.45280  0.90930  0.78640  1.0000 -0.1095584343
C   C253      1.0  0.49880  0.92630  0.83390  1.0000 0.1205959482
C   C254      1.0  0.55060  0.95690  0.81580  1.0000 -0.2121488804
C   C255      1.0  0.60100  0.97680  0.86200  1.0000 0.1000038536
C   C256      1.0  0.54020  0.93030  0.95880  1.0000 -0.0012315621
C   C257      1.0  0.49460  0.91340  0.91140  1.0000 -0.1968484693
C   C258      1.0  0.19690  0.94130  0.40220  1.0000 0.0517368724
C   C259      1.0  0.16360  0.96740  0.39980  1.0000 -0.1604797801
C   C260      1.0  0.17780  0.01270  0.35050  1.0000 -0.150384527
C   C261      1.0  0.22590  0.03310  0.30130  1.0000 0.1087010474
C   C262      1.0  0.25980  0.00850  0.30580  1.0000 -0.1435989649
C   C263      1.0  0.24540  0.96180  0.35390  1.0000 -0.150384527
C   C264      1.0  0.23740  0.07920  0.24830  1.0000 -0.0881280512
C   C265      1.0  0.24830  0.11680  0.20530  1.0000 -0.1034512207
C   C266      1.0  0.26610  0.16280  0.15450  1.0000 0.1624534554
C   C267      1.0  0.23210  0.18770  0.14020  1.0000 -0.1968484693
C   C268      1.0  0.24910  0.23520  0.09540  1.0000 0.037583192
C   C269      1.0  0.33380  0.23410  0.07220  1.0000 0.0585601136
C   C270      1.0  0.31830  0.18600  0.11820  1.0000 -0.2121488804
C   C271      1.0  0.84550  0.62720  0.55330  1.0000 0.1698737494
C   C272      1.0  0.83000  0.66640  0.59820  1.0000 -0.3101608614
C   C273      1.0  0.89910  0.66620  0.50510  1.0000 -0.3009093977
C   C274      1.0  0.88720  0.70600  0.45350  1.0000 0.1786028149
C   C275      1.0  0.85960  0.58890  0.60350  1.0000 0.0517368724
C   C276      1.0  0.86840  0.54650  0.57150  1.0000 -0.150384527
C   C277      1.0  0.88130  0.51200  0.61630  1.0000 -0.150384527
C   C278      1.0  0.88530  0.51980  0.69310  1.0000 0.1205959482
C   C279      1.0  0.87650  0.56220  0.72520  1.0000 -0.1709407082
C   C280      1.0  0.86360  0.59670  0.68030  1.0000 -0.150384527
C   C281      1.0  0.89830  0.48180  0.74530  1.0000 -0.0538390066
C   C282      1.0  0.90930  0.45650  0.78640  1.0000 -0.1095584343
C   C283      1.0  0.92630  0.42750  0.83390  1.0000 0.1205959482
C   C284      1.0  0.95690  0.40630  0.81580  1.0000 -0.2121488804
C   C285      1.0  0.97680  0.37580  0.86200  1.0000 0.1000038536
C   C286      1.0  0.93030  0.39010  0.95880  1.0000 -0.0012315621
C   C287      1.0  0.91340  0.41880  0.91140  1.0000 -0.1968484693
C   C288      1.0  0.94130  0.74440  0.40220  1.0000 0.0517368724
C   C289      1.0  0.96740  0.80380  0.39980  1.0000 -0.1604797801
C   C290      1.0  0.01270  0.83490  0.35050  1.0000 -0.150384527
C   C291      1.0  0.03310  0.80720  0.30130  1.0000 0.1087010474
C   C292      1.0  0.00850  0.74870  0.30580  1.0000 -0.1435989649
C   C293      1.0  0.96180  0.71640  0.35390  1.0000 -0.150384527
C   C294      1.0  0.07920  0.84180  0.24830  1.0000 -0.0881280512
C   C295      1.0  0.11680  0.86850  0.20530  1.0000 -0.1034512207
C   C296      1.0  0.16280  0.89670  0.15450  1.0000 0.1624534554
C   C297      1.0  0.18770  0.95560  0.14020  1.0000 -0.1968484693
C   C298      1.0  0.23520  0.98610  0.09540  1.0000 0.037583192
C   C299      1.0  0.23410  0.90030  0.07220  1.0000 0.0585601136
C   C300      1.0  0.18600  0.86770  0.11820  1.0000 -0.2121488804
C   C301      1.0  0.37280  0.21830  0.55330  1.0000 0.1698737494
C   C302      1.0  0.33360  0.16360  0.59820  1.0000 -0.3101608614
C   C303      1.0  0.33380  0.23290  0.50510  1.0000 -0.3009093977
C   C304      1.0  0.29400  0.18120  0.45350  1.0000 0.1786028149
C   C305      1.0  0.41110  0.27070  0.60350  1.0000 0.0517368724
C   C306      1.0  0.45350  0.32190  0.57150  1.0000 -0.150384527
C   C307      1.0  0.48800  0.36930  0.61630  1.0000 -0.150384527
C   C308      1.0  0.48020  0.36550  0.69310  1.0000 0.1205959482
C   C309      1.0  0.43780  0.31430  0.72520  1.0000 -0.1709407082
C   C310      1.0  0.40330  0.26690  0.68030  1.0000 -0.150384527
C   C311      1.0  0.51820  0.41650  0.74530  1.0000 -0.0538390066
C   C312      1.0  0.54350  0.45280  0.78640  1.0000 -0.1095584343
C   C313      1.0  0.57250  0.49880  0.83390  1.0000 0.1205959482
C   C314      1.0  0.59370  0.55060  0.81580  1.0000 -0.2121488804
C   C315      1.0  0.62420  0.60100  0.86200  1.0000 0.1000038536
C   C316      1.0  0.60990  0.54020  0.95880  1.0000 -0.0012315621
C   C317      1.0  0.58120  0.49460  0.91140  1.0000 -0.1968484693
C   C318      1.0  0.25560  0.19690  0.40220  1.0000 0.0517368724
C   C319      1.0  0.19620  0.16360  0.39980  1.0000 -0.1604797801
C   C320      1.0  0.16510  0.17780  0.35050  1.0000 -0.150384527
C   C321      1.0  0.19280  0.22590  0.30130  1.0000 0.1087010474
C   C322      1.0  0.25130  0.25980  0.30580  1.0000 -0.1435989649
C   C323      1.0  0.28360  0.24540  0.35390  1.0000 -0.150384527
C   C324      1.0  0.15820  0.23740  0.24830  1.0000 -0.0881280512
C   C325      1.0  0.13150  0.24830  0.20530  1.0000 -0.1034512207
C   C326      1.0  0.10330  0.26610  0.15450  1.0000 0.1624534554
C   C327      1.0  0.04440  0.23210  0.14020  1.0000 -0.1968484693
C   C328      1.0  0.01390  0.24910  0.09540  1.0000 0.037583192
C   C329      1.0  0.09970  0.33380  0.07220  1.0000 0.0585601136
C   C330      1.0  0.13230  0.31830  0.11820  1.0000 -0.2121488804
C   C331      1.0  0.78170  0.15450  0.55330  1.0000 0.1698737494
C   C332      1.0  0.83640  0.17000  0.59820  1.0000 -0.3101608614
C   C333      1.0  0.76710  0.10090  0.50510  1.0000 -0.3009093977
C   C334      1.0  0.81880  0.11280  0.45350  1.0000 0.1786028149
C   C335      1.0  0.72930  0.14040  0.60350  1.0000 0.0517368724
C   C336      1.0  0.67810  0.13160  0.57150  1.0000 -0.150384527
C   C337      1.0  0.63070  0.11870  0.61630  1.0000 -0.150384527
C   C338      1.0  0.63450  0.11470  0.69310  1.0000 0.1205959482
C   C339      1.0  0.68570  0.12350  0.72520  1.0000 -0.1709407082
C   C340      1.0  0.73310  0.13640  0.68030  1.0000 -0.150384527
C   C341      1.0  0.58350  0.10170  0.74530  1.0000 -0.0538390066
C   C342      1.0  0.54720  0.09070  0.78640  1.0000 -0.1095584343
C   C343      1.0  0.50120  0.07370  0.83390  1.0000 0.1205959482
C   C344      1.0  0.44940  0.04310  0.81580  1.0000 -0.2121488804
C   C345      1.0  0.39900  0.02320  0.86200  1.0000 0.1000038536
C   C346      1.0  0.45980  0.06970  0.95880  1.0000 -0.0012315621
C   C347      1.0  0.50540  0.08660  0.91140  1.0000 -0.1968484693
C   C348      1.0  0.80310  0.05870  0.40220  1.0000 0.0517368724
C   C349      1.0  0.83640  0.03260  0.39980  1.0000 -0.1604797801
C   C350      1.0  0.82220  0.98730  0.35050  1.0000 -0.150384527
C   C351      1.0  0.77410  0.96690  0.30130  1.0000 0.1087010474
C   C352      1.0  0.74020  0.99150  0.30580  1.0000 -0.1435989649
C   C353      1.0  0.75460  0.03820  0.35390  1.0000 -0.150384527
C   C354      1.0  0.76260  0.92080  0.24830  1.0000 -0.0881280512
C   C355      1.0  0.75170  0.88320  0.20530  1.0000 -0.1034512207
C   C356      1.0  0.73390  0.83720  0.15450  1.0000 0.1624534554
C   C357      1.0  0.76790  0.81230  0.14020  1.0000 -0.1968484693
C   C358      1.0  0.75090  0.76480  0.09540  1.0000 0.037583192
C   C359      1.0  0.66620  0.76590  0.07220  1.0000 0.0585601136
C   C360      1.0  0.68170  0.81400  0.11820  1.0000 -0.2121488804
C   C361      1.0  0.79510  0.59020  0.50000  1.0000 -0.3009093977
C   C362      1.0  0.87070  0.74140  0.50000  1.0000 -0.3327863475
C   C363      1.0  0.79510  0.20490  0.50000  1.0000 -0.3009093977
C   C364      1.0  0.87070  0.12930  0.50000  1.0000 -0.3327863475
C   C365      1.0  0.40980  0.20490  0.50000  1.0000 -0.3009093977
C   C366      1.0  0.25860  0.12930  0.50000  1.0000 -0.3327863475
C   C367      1.0  0.20490  0.40980  0.50000  1.0000 -0.3009093977
C   C368      1.0  0.12930  0.25860  0.50000  1.0000 -0.3327863475
C   C369      1.0  0.20490  0.79510  0.50000  1.0000 -0.3009093977
C   C370      1.0  0.12930  0.87070  0.50000  1.0000 -0.3327863475
C   C371      1.0  0.59020  0.79510  0.50000  1.0000 -0.3009093977
C   C372      1.0  0.74140  0.87070  0.50000  1.0000 -0.3327863475
N   N1        1.0  0.40390  0.36950  0.06870  1.0000 -0.1968484693
N   N2        1.0  0.69830  0.95760  0.93990  1.0000 -0.2224371531
N   N3        1.0  0.96560  0.59610  0.06870  1.0000 -0.1968484693
N   N4        1.0  0.25930  0.30170  0.93990  1.0000 -0.2224371531
N   N5        1.0  0.63050  0.03440  0.06870  1.0000 -0.1968484693
N   N6        1.0  0.04240  0.74070  0.93990  1.0000 -0.2224371531
N   N7        1.0  0.59610  0.63050  0.06870  1.0000 -0.1968484693
N   N8        1.0  0.30170  0.04240  0.93990  1.0000 -0.2224371531
N   N9        1.0  0.03440  0.40390  0.06870  1.0000 -0.1968484693
N   N10       1.0  0.74070  0.69830  0.93990  1.0000 -0.2224371531
N   N11       1.0  0.36950  0.96560  0.06870  1.0000 -0.1968484693
N   N12       1.0  0.95760  0.25930  0.93990  1.0000 -0.2224371531
N   N13       1.0  0.03440  0.63050  0.93130  1.0000 -0.1968484693
N   N14       1.0  0.74070  0.04240  0.06010  1.0000 -0.2224371531
N   N15       1.0  0.36950  0.40390  0.93130  1.0000 -0.1968484693
N   N16       1.0  0.95760  0.69830  0.06010  1.0000 -0.2224371531
N   N17       1.0  0.59610  0.96560  0.93130  1.0000 -0.1968484693
N   N18       1.0  0.30170  0.25930  0.06010  1.0000 -0.2224371531
N   N19       1.0  0.96560  0.36950  0.93130  1.0000 -0.1968484693
N   N20       1.0  0.25930  0.95760  0.06010  1.0000 -0.2224371531
N   N21       1.0  0.63050  0.59610  0.93130  1.0000 -0.1968484693
N   N22       1.0  0.04240  0.30170  0.06010  1.0000 -0.2224371531
N   N23       1.0  0.40390  0.03440  0.93130  1.0000 -0.1968484693
N   N24       1.0  0.69830  0.74070  0.06010  1.0000 -0.2224371531
