# DDEC6 charges by PACMAN v1.1 (https://github.com/mtap-research/PACMAN-charge/)
data_2020[Zn][nan]3[FSR]4
_chemical_formula_sum              "Zn6 H144 C168 N24 O30"
_cell_length_a       12.3787
_cell_length_b       15.8239
_cell_length_c       26.096
_cell_angle_alpha    76.692
_cell_angle_beta     86.534
_cell_angle_gamma    78.358

_symmetry_space_group_name_H-M    "P 1"
_symmetry_Int_Tables_number       1

loop_
  _symmetry_equiv_pos_as_xyz
  'x, y, z'

loop_
  _atom_site_type_symbol
  _atom_site_label
  _atom_site_symmetry_multiplicity
  _atom_site_fract_x
  _atom_site_fract_y
  _atom_site_fract_z
  _atom_site_occupancy
  _atom_site_charge
Zn  Zn1       1.0  0.22905  0.12403  0.65018  1.0000 0.7395057046
Zn  Zn2       1.0  0.38450  0.60819  0.68187  1.0000 0.726945337
Zn  Zn3       1.0  0.74832  0.26168  0.99466  1.0000 0.726945337
Zn  Zn4       1.0  0.77095  0.87597  0.34982  1.0000 0.7395057046
Zn  Zn5       1.0  0.61550  0.39181  0.31813  1.0000 0.726945337
Zn  Zn6       1.0  0.25168  0.73832  0.00534  1.0000 0.726945337
H   H1        1.0  0.31670  0.06810  0.75810  1.0000 0.1116864827
H   H2        1.0  0.42510  0.95310  0.81250  1.0000 0.1376896837
H   H3        1.0  0.50640  0.84360  0.68650  1.0000 0.1376896837
H   H4        1.0  0.39600  0.96190  0.63660  1.0000 0.1187643095
H   H5        1.0  0.54260  0.70270  0.75400  1.0000 0.1187643095
H   H6        1.0  0.64460  0.75220  0.73930  1.0000 0.1187643095
H   H7        1.0  0.46340  0.83350  0.85870  1.0000 0.1116864827
H   H8        1.0  0.59480  0.79980  0.86170  1.0000 0.1187643095
H   H9        1.0  0.50480  0.68610  0.90730  1.0000 0.1293511887
H   H10       1.0  0.43930  0.69170  0.85520  1.0000 0.1116864827
H   H11       1.0  0.71900  0.69090  0.81670  1.0000 0.1116864827
H   H12       1.0  0.69240  0.61530  0.79080  1.0000 0.1187643095
H   H13       1.0  0.77600  0.51390  0.84770  1.0000 0.1376896837
H   H14       1.0  0.82110  0.37580  0.89890  1.0000 0.1116864827
H   H15       1.0  0.54320  0.40450  0.97900  1.0000 0.1116864827
H   H16       1.0  0.48650  0.54520  0.92940  1.0000 0.1376896837
H   H17       1.0  0.37330  0.23590  0.66840  1.0000 0.1187643095
H   H18       1.0  0.44950  0.34950  0.62820  1.0000 0.1506188476
H   H19       1.0  0.30890  0.34530  0.49460  1.0000 0.1376896837
H   H20       1.0  0.24620  0.22600  0.53970  1.0000 0.1187643095
H   H21       1.0  0.48150  0.41000  0.45730  1.0000 0.1187643095
H   H22       1.0  0.36440  0.47170  0.46110  1.0000 0.1116864827
H   H23       1.0  0.47800  0.48600  0.58500  1.0000 0.1293511887
H   H24       1.0  0.58130  0.42240  0.56610  1.0000 0.1187643095
H   H25       1.0  0.25160  0.79900  0.65430  1.0000 0.1187643095
H   H26       1.0  0.15630  0.90090  0.69390  1.0000 0.1376896837
H   H27       1.0  0.24470  0.73020  0.83260  1.0000 0.1376896837
H   H28       1.0  0.33280  0.63400  0.78740  1.0000 0.1116864827
H   H29       1.0  0.16890  0.82470  0.86970  1.0000 0.1293511887
H   H30       1.0  0.21030  0.91660  0.85190  1.0000 0.1187643095
H   H31       1.0  0.12230  0.01840  0.76210  1.0000 0.1187643095
H   H32       1.0  0.03900  0.97550  0.73640  1.0000 0.1187643095
H   H33       1.0  0.91410  0.98990  0.80020  1.0000 0.1116864827
H   H34       1.0  0.95350  0.08270  0.78160  1.0000 0.1187643095
H   H35       1.0  0.08970  0.92860  0.91280  1.0000 0.1116864827
H   H36       1.0  0.00600  0.88810  0.88580  1.0000 0.1116864827
H   H37       1.0  0.83930  0.14500  0.82640  1.0000 0.1376896837
H   H38       1.0  0.75050  0.23840  0.87690  1.0000 0.1116864827
H   H39       1.0  0.96020  0.13420  0.99090  1.0000 0.1116864827
H   H40       1.0  0.04190  0.02670  0.94740  1.0000 0.1293511887
H   H41       1.0  0.25750  0.47140  0.67980  1.0000 0.1116864827
H   H42       1.0  0.13730  0.43700  0.62710  1.0000 0.1376896837
H   H43       1.0  0.16010  0.66210  0.51990  1.0000 0.1293511887
H   H44       1.0  0.27500  0.69300  0.57760  1.0000 0.1116864827
H   H45       1.0  0.96560  0.63020  0.49590  1.0000 0.1187643095
H   H46       1.0  0.08640  0.61380  0.47080  1.0000 0.1187643095
H   H47       1.0  0.06610  0.40010  0.57230  1.0000 0.1187643095
H   H48       1.0  0.95000  0.46440  0.57440  1.0000 0.1187643095
H   H49       1.0  0.03400  0.40400  0.71770  1.0000 0.1116864827
H   H50       1.0  0.99580  0.46430  0.79700  1.0000 0.1293511887
H   H51       1.0  0.11400  0.22110  0.88180  1.0000 0.1376896837
H   H52       1.0  0.14560  0.16530  0.80380  1.0000 0.1116864827
H   H53       1.0  0.21590  0.42960  0.85810  1.0000 0.1293511887
H   H54       1.0  0.28410  0.53960  0.88290  1.0000 0.1116864827
H   H55       1.0  0.00180  0.60400  0.96200  1.0000 0.1187643095
H   H56       1.0  0.93710  0.49130  0.94050  1.0000 0.1293511887
H   H57       1.0  0.19290  0.94270  0.51490  1.0000 0.1187643095
H   H58       1.0  0.09800  0.84070  0.49560  1.0000 0.1293511887
H   H59       1.0  0.88230  0.87650  0.61490  1.0000 0.1293511887
H   H60       1.0  0.97820  0.97790  0.63330  1.0000 0.1187643095
H   H61       1.0  0.90050  0.64490  0.60290  1.0000 0.1293511887
H   H62       1.0  0.72680  0.61030  0.63830  1.0000 0.1187643095
H   H63       1.0  0.57250  0.85240  0.56580  1.0000 0.1187643095
H   H64       1.0  0.74110  0.89100  0.53280  1.0000 0.1376896837
H   H65       1.0  0.45260  0.42380  0.84010  1.0000 0.1116864827
H   H66       1.0  0.49790  0.29720  0.90660  1.0000 0.1376896837
H   H67       1.0  0.57200  0.14820  0.79850  1.0000 0.1293511887
H   H68       1.0  0.51410  0.27160  0.73260  1.0000 0.1116864827
H   H69       1.0  0.66240  0.98730  0.94350  1.0000 0.1376896837
H   H70       1.0  0.57770  0.86200  0.97520  1.0000 0.1187643095
H   H71       1.0  0.29170  0.01010  0.91030  1.0000 0.1116864827
H   H72       1.0  0.37570  0.13230  0.87970  1.0000 0.1293511887
H   H73       1.0  0.68330  0.93190  0.24190  1.0000 0.1116864827
H   H74       1.0  0.57490  0.04690  0.18750  1.0000 0.1376896837
H   H75       1.0  0.49360  0.15640  0.31350  1.0000 0.1376896837
H   H76       1.0  0.60400  0.03810  0.36340  1.0000 0.1187643095
H   H77       1.0  0.45740  0.29730  0.24600  1.0000 0.1187643095
H   H78       1.0  0.35540  0.24780  0.26070  1.0000 0.1187643095
H   H79       1.0  0.53660  0.16650  0.14130  1.0000 0.1116864827
H   H80       1.0  0.40520  0.20020  0.13830  1.0000 0.1187643095
H   H81       1.0  0.49520  0.31390  0.09270  1.0000 0.1293511887
H   H82       1.0  0.56070  0.30830  0.14480  1.0000 0.1116864827
H   H83       1.0  0.28100  0.30910  0.18330  1.0000 0.1116864827
H   H84       1.0  0.30760  0.38470  0.20920  1.0000 0.1187643095
H   H85       1.0  0.22400  0.48610  0.15230  1.0000 0.1376896837
H   H86       1.0  0.17890  0.62420  0.10110  1.0000 0.1116864827
H   H87       1.0  0.45680  0.59550  0.02100  1.0000 0.1116864827
H   H88       1.0  0.51350  0.45480  0.07060  1.0000 0.1376896837
H   H89       1.0  0.62670  0.76410  0.33160  1.0000 0.1187643095
H   H90       1.0  0.55050  0.65050  0.37180  1.0000 0.1506188476
H   H91       1.0  0.69110  0.65470  0.50540  1.0000 0.1376896837
H   H92       1.0  0.75380  0.77400  0.46030  1.0000 0.1187643095
H   H93       1.0  0.51850  0.59000  0.54270  1.0000 0.1187643095
H   H94       1.0  0.63560  0.52830  0.53890  1.0000 0.1116864827
H   H95       1.0  0.52200  0.51400  0.41500  1.0000 0.1293511887
H   H96       1.0  0.41870  0.57760  0.43390  1.0000 0.1187643095
H   H97       1.0  0.74840  0.20100  0.34570  1.0000 0.1187643095
H   H98       1.0  0.84370  0.09910  0.30610  1.0000 0.1376896837
H   H99       1.0  0.75530  0.26980  0.16740  1.0000 0.1376896837
H   H100      1.0  0.66720  0.36600  0.21260  1.0000 0.1116864827
H   H101      1.0  0.83110  0.17530  0.13030  1.0000 0.1293511887
H   H102      1.0  0.78970  0.08340  0.14810  1.0000 0.1187643095
H   H103      1.0  0.87770  0.98160  0.23790  1.0000 0.1187643095
H   H104      1.0  0.96100  0.02450  0.26360  1.0000 0.1187643095
H   H105      1.0  0.08590  0.01010  0.19980  1.0000 0.1116864827
H   H106      1.0  0.04650  0.91730  0.21840  1.0000 0.1116864827
H   H107      1.0  0.91030  0.07140  0.08720  1.0000 0.1116864827
H   H108      1.0  0.99400  0.11190  0.11420  1.0000 0.1116864827
H   H109      1.0  0.16070  0.85500  0.17360  1.0000 0.1376896837
H   H110      1.0  0.24950  0.76160  0.12310  1.0000 0.1116864827
H   H111      1.0  0.03980  0.86580  0.00910  1.0000 0.1116864827
H   H112      1.0  0.95810  0.97330  0.05260  1.0000 0.1293511887
H   H113      1.0  0.74250  0.52860  0.32020  1.0000 0.1116864827
H   H114      1.0  0.86270  0.56300  0.37290  1.0000 0.1376896837
H   H115      1.0  0.83990  0.33790  0.48010  1.0000 0.1293511887
H   H116      1.0  0.72500  0.30700  0.42240  1.0000 0.1116864827
H   H117      1.0  0.03440  0.36980  0.50410  1.0000 0.1187643095
H   H118      1.0  0.91360  0.38620  0.52920  1.0000 0.1187643095
H   H119      1.0  0.93390  0.59990  0.42770  1.0000 0.1187643095
H   H120      1.0  0.05000  0.53560  0.42560  1.0000 0.1187643095
H   H121      1.0  0.96600  0.59600  0.28230  1.0000 0.1116864827
H   H122      1.0  0.00420  0.53570  0.20300  1.0000 0.1293511887
H   H123      1.0  0.88600  0.77890  0.11820  1.0000 0.1376896837
H   H124      1.0  0.85440  0.83470  0.19620  1.0000 0.1116864827
H   H125      1.0  0.78410  0.57040  0.14190  1.0000 0.1293511887
H   H126      1.0  0.71590  0.46040  0.11710  1.0000 0.1116864827
H   H127      1.0  0.99820  0.39600  0.03800  1.0000 0.1187643095
H   H128      1.0  0.06290  0.50870  0.05950  1.0000 0.1293511887
H   H129      1.0  0.80710  0.05730  0.48510  1.0000 0.1187643095
H   H130      1.0  0.90200  0.15930  0.50440  1.0000 0.1293511887
H   H131      1.0  0.11770  0.12350  0.38510  1.0000 0.1293511887
H   H132      1.0  0.02180  0.02210  0.36670  1.0000 0.1187643095
H   H133      1.0  0.09950  0.35510  0.39710  1.0000 0.1293511887
H   H134      1.0  0.27320  0.38970  0.36170  1.0000 0.1187643095
H   H135      1.0  0.42750  0.14760  0.43420  1.0000 0.1187643095
H   H136      1.0  0.25890  0.10900  0.46720  1.0000 0.1376896837
H   H137      1.0  0.54740  0.57620  0.15990  1.0000 0.1116864827
H   H138      1.0  0.50210  0.70280  0.09340  1.0000 0.1376896837
H   H139      1.0  0.42800  0.85180  0.20150  1.0000 0.1293511887
H   H140      1.0  0.48590  0.72840  0.26740  1.0000 0.1116864827
H   H141      1.0  0.33760  0.01270  0.05650  1.0000 0.1376896837
H   H142      1.0  0.42230  0.13800  0.02480  1.0000 0.1187643095
H   H143      1.0  0.70830  0.98990  0.08970  1.0000 0.1116864827
H   H144      1.0  0.62430  0.86770  0.12030  1.0000 0.1293511887
C   C1        1.0  0.35600  0.02080  0.74360  1.0000 0.0638020524
C   C2        1.0  0.41890  0.95190  0.77660  1.0000 -0.2684863577
C   C3        1.0  0.47430  0.87930  0.75750  1.0000 0.2399356359
C   C4        1.0  0.46600  0.88840  0.70270  1.0000 -0.2511530604
C   C5        1.0  0.40150  0.95970  0.67300  1.0000 0.0925087371
C   C6        1.0  0.59550  0.73010  0.76850  1.0000 -0.1381886608
C   C7        1.0  0.52610  0.79130  0.84770  1.0000 -0.1381886608
C   C8        1.0  0.50990  0.69820  0.86840  1.0000 -0.1232511311
C   C9        1.0  0.65840  0.66590  0.80660  1.0000 -0.1232511311
C   C10       1.0  0.62430  0.54890  0.88180  1.0000 0.2399356359
C   C11       1.0  0.72590  0.49320  0.87440  1.0000 -0.2435966722
C   C12       1.0  0.75230  0.41180  0.90470  1.0000 0.0528200698
C   C13       1.0  0.59070  0.42750  0.95160  1.0000 0.1293511887
C   C14       1.0  0.55640  0.51180  0.92230  1.0000 -0.2922063357
C   C15       1.0  0.36280  0.25760  0.63160  1.0000 0.0638020524
C   C16       1.0  0.40830  0.32460  0.60800  1.0000 -0.2302680141
C   C17       1.0  0.39780  0.36060  0.55330  1.0000 0.2309490779
C   C18       1.0  0.32860  0.32220  0.53040  1.0000 -0.2589220143
C   C19       1.0  0.28890  0.25270  0.55810  1.0000 0.0998181795
C   C20       1.0  0.44240  0.46090  0.47150  1.0000 -0.1232511311
C   C21       1.0  0.51760  0.47030  0.55340  1.0000 -0.1294681844
C   C22       1.0  0.24870  0.78540  0.69170  1.0000 0.0693111309
C   C23       1.0  0.19180  0.84630  0.71520  1.0000 -0.2511530604
C   C24       1.0  0.18140  0.83410  0.76950  1.0000 0.2399356359
C   C25       1.0  0.24320  0.74650  0.79520  1.0000 -0.2684863577
C   C26       1.0  0.29630  0.69010  0.76830  1.0000 0.0784756114
C   C27       1.0  0.14670  0.88760  0.85140  1.0000 -0.1294681844
C   C28       1.0  0.06730  0.97940  0.77020  1.0000 -0.1232511311
C   C29       1.0  0.97730  0.01980  0.79950  1.0000 -0.1294681844
C   C30       1.0  0.06190  0.92620  0.87850  1.0000 -0.1232511311
C   C31       1.0  0.95290  0.07310  0.88240  1.0000 0.2196109482
C   C32       1.0  0.86340  0.13930  0.86120  1.0000 -0.2435966722
C   C33       1.0  0.81190  0.19500  0.89170  1.0000 0.0528200698
C   C34       1.0  0.93010  0.13430  0.95830  1.0000 0.0925087371
C   C35       1.0  0.98310  0.07150  0.93120  1.0000 -0.2684863577
C   C36       1.0  0.23700  0.51140  0.64720  1.0000 0.0998181795
C   C37       1.0  0.16460  0.49030  0.61540  1.0000 -0.2814118972
C   C38       1.0  0.13150  0.54510  0.56700  1.0000 0.2309490779
C   C39       1.0  0.17710  0.62210  0.55280  1.0000 -0.2814118972
C   C40       1.0  0.24760  0.63950  0.58750  1.0000 0.0784756114
C   C41       1.0  0.02550  0.58400  0.48680  1.0000 -0.1381886608
C   C42       1.0  0.01290  0.44880  0.55090  1.0000 -0.1294681844
C   C43       1.0  0.11020  0.24970  0.70410  1.0000 0.5528715217
C   C44       1.0  0.09210  0.28240  0.75390  1.0000 -0.0384547355
C   C45       1.0  0.05050  0.36600  0.75130  1.0000 -0.0918455831
C   C46       1.0  0.02800  0.40390  0.79880  1.0000 -0.209855022
C   C47       1.0  0.05650  0.34650  0.84400  1.0000 0.2196109482
C   C48       1.0  0.09770  0.25950  0.84830  1.0000 -0.209855022
C   C49       1.0  0.11640  0.22630  0.80170  1.0000 -0.1100947707
C   C50       1.0  0.07120  0.44580  0.89960  1.0000 0.2570940121
C   C51       1.0  0.17340  0.46340  0.88060  1.0000 -0.209855022
C   C52       1.0  0.21260  0.52970  0.89450  1.0000 -0.0918455831
C   C53       1.0  0.15030  0.58230  0.92510  1.0000 -0.0591440187
C   C54       1.0  0.04660  0.56740  0.94160  1.0000 -0.0918455831
C   C55       1.0  0.00890  0.50070  0.92890  1.0000 -0.209855022
C   C56       1.0  0.19610  0.64910  0.94420  1.0000 0.5386393829
C   C57       1.0  0.15990  0.03110  0.59030  1.0000 0.5386393829
C   C58       1.0  0.09560  0.96900  0.57610  1.0000 -0.0535694993
C   C59       1.0  0.13010  0.92910  0.53540  1.0000 -0.0817003557
C   C60       1.0  0.07350  0.86860  0.52390  1.0000 -0.2193527095
C   C61       1.0  0.98200  0.84860  0.55340  1.0000 0.2570940121
C   C62       1.0  0.94550  0.88950  0.59450  1.0000 -0.2302680141
C   C63       1.0  0.00280  0.94940  0.60520  1.0000 -0.096612022
C   C64       1.0  0.83280  0.76990  0.56400  1.0000 0.2399356359
C   C65       1.0  0.83370  0.68700  0.59540  1.0000 -0.2435966722
C   C66       1.0  0.72900  0.66680  0.61630  1.0000 -0.1100947707
C   C67       1.0  0.63190  0.72790  0.60490  1.0000 -0.0817003557
C   C68       1.0  0.63870  0.80980  0.57380  1.0000 -0.0817003557
C   C69       1.0  0.73870  0.83340  0.55330  1.0000 -0.2193527095
C   C70       1.0  0.52880  0.70080  0.62510  1.0000 0.5286307597
C   C71       1.0  0.45280  0.44130  0.73410  1.0000 0.5386393829
C   C72       1.0  0.47930  0.35970  0.77860  1.0000 -0.0294071882
C   C73       1.0  0.47510  0.36750  0.83160  1.0000 -0.096612022
C   C74       1.0  0.50390  0.29270  0.87080  1.0000 -0.2193527095
C   C75       1.0  0.54120  0.21130  0.85890  1.0000 0.2399356359
C   C76       1.0  0.54600  0.20410  0.80700  1.0000 -0.2193527095
C   C77       1.0  0.51320  0.27770  0.76800  1.0000 -0.0918455831
C   C78       1.0  0.52610  0.07120  0.91040  1.0000 0.2570940121
C   C79       1.0  0.58630  0.99170  0.93730  1.0000 -0.2193527095
C   C80       1.0  0.53690  0.91640  0.95610  1.0000 -0.096612022
C   C81       1.0  0.42740  0.92630  0.94530  1.0000 -0.0294071882
C   C82       1.0  0.36730  0.00570  0.91720  1.0000 -0.1100947707
C   C83       1.0  0.41660  0.07840  0.89930  1.0000 -0.2435966722
C   C84       1.0  0.36800  0.84530  0.96620  1.0000 0.5286307597
C   C85       1.0  0.64400  0.97920  0.25640  1.0000 0.0638020524
C   C86       1.0  0.58110  0.04810  0.22340  1.0000 -0.2684863577
C   C87       1.0  0.52570  0.12070  0.24250  1.0000 0.2399356359
C   C88       1.0  0.53400  0.11160  0.29730  1.0000 -0.2511530604
C   C89       1.0  0.59850  0.04030  0.32700  1.0000 0.0925087371
C   C90       1.0  0.40450  0.26990  0.23150  1.0000 -0.1381886608
C   C91       1.0  0.47390  0.20870  0.15230  1.0000 -0.1294681844
C   C92       1.0  0.49010  0.30180  0.13160  1.0000 -0.1232511311
C   C93       1.0  0.34160  0.33410  0.19340  1.0000 -0.1232511311
C   C94       1.0  0.37570  0.45110  0.11820  1.0000 0.2399356359
C   C95       1.0  0.27410  0.50680  0.12560  1.0000 -0.2435966722
C   C96       1.0  0.24770  0.58820  0.09530  1.0000 0.0528200698
C   C97       1.0  0.40930  0.57250  0.04840  1.0000 0.1293511887
C   C98       1.0  0.44360  0.48820  0.07770  1.0000 -0.2922063357
C   C99       1.0  0.63720  0.74240  0.36840  1.0000 0.0638020524
C   C100      1.0  0.59170  0.67540  0.39200  1.0000 -0.2302680141
C   C101      1.0  0.60220  0.63940  0.44670  1.0000 0.2309490779
C   C102      1.0  0.67140  0.67780  0.46960  1.0000 -0.2589220143
C   C103      1.0  0.71110  0.74730  0.44190  1.0000 0.0998181795
C   C104      1.0  0.55760  0.53910  0.52850  1.0000 -0.1232511311
C   C105      1.0  0.48240  0.52970  0.44660  1.0000 -0.1294681844
C   C106      1.0  0.75130  0.21460  0.30830  1.0000 0.0693111309
C   C107      1.0  0.80820  0.15370  0.28480  1.0000 -0.2511530604
C   C108      1.0  0.81860  0.16590  0.23050  1.0000 0.2399356359
C   C109      1.0  0.75680  0.25350  0.20480  1.0000 -0.2684863577
C   C110      1.0  0.70370  0.30990  0.23170  1.0000 0.0784756114
C   C111      1.0  0.85330  0.11240  0.14860  1.0000 -0.1294681844
C   C112      1.0  0.93270  0.02060  0.22980  1.0000 -0.1232511311
C   C113      1.0  0.02270  0.98020  0.20050  1.0000 -0.1294681844
C   C114      1.0  0.93810  0.07380  0.12150  1.0000 -0.1232511311
C   C115      1.0  0.04710  0.92690  0.11760  1.0000 0.2196109482
C   C116      1.0  0.13660  0.86070  0.13880  1.0000 -0.2435966722
C   C117      1.0  0.18810  0.80500  0.10830  1.0000 0.0528200698
C   C118      1.0  0.06990  0.86570  0.04170  1.0000 0.0925087371
C   C119      1.0  0.01690  0.92850  0.06880  1.0000 -0.2684863577
C   C120      1.0  0.76300  0.48860  0.35280  1.0000 0.0998181795
C   C121      1.0  0.83540  0.50970  0.38460  1.0000 -0.2814118972
C   C122      1.0  0.86850  0.45490  0.43300  1.0000 0.2309490779
C   C123      1.0  0.82290  0.37790  0.44720  1.0000 -0.2814118972
C   C124      1.0  0.75240  0.36050  0.41250  1.0000 0.0784756114
C   C125      1.0  0.97450  0.41600  0.51320  1.0000 -0.1381886608
C   C126      1.0  0.98710  0.55120  0.44910  1.0000 -0.1294681844
C   C127      1.0  0.88980  0.75030  0.29590  1.0000 0.5528715217
C   C128      1.0  0.90790  0.71760  0.24610  1.0000 -0.0384547355
C   C129      1.0  0.94950  0.63400  0.24870  1.0000 -0.0918455831
C   C130      1.0  0.97200  0.59610  0.20120  1.0000 -0.2193527095
C   C131      1.0  0.94350  0.65350  0.15600  1.0000 0.2196109482
C   C132      1.0  0.90230  0.74050  0.15170  1.0000 -0.209855022
C   C133      1.0  0.88360  0.77370  0.19830  1.0000 -0.1100947707
C   C134      1.0  0.92880  0.55420  0.10040  1.0000 0.2570940121
C   C135      1.0  0.82660  0.53660  0.11940  1.0000 -0.209855022
C   C136      1.0  0.78740  0.47030  0.10550  1.0000 -0.0918455831
C   C137      1.0  0.84970  0.41770  0.07490  1.0000 -0.0535694993
C   C138      1.0  0.95340  0.43260  0.05840  1.0000 -0.0918455831
C   C139      1.0  0.99110  0.49930  0.07110  1.0000 -0.209855022
C   C140      1.0  0.80390  0.35090  0.05580  1.0000 0.5386393829
C   C141      1.0  0.84010  0.96890  0.40970  1.0000 0.5386393829
C   C142      1.0  0.90440  0.03100  0.42390  1.0000 -0.0535694993
C   C143      1.0  0.86990  0.07090  0.46460  1.0000 -0.0817003557
C   C144      1.0  0.92650  0.13140  0.47610  1.0000 -0.2193527095
C   C145      1.0  0.01800  0.15140  0.44660  1.0000 0.2570940121
C   C146      1.0  0.05450  0.11050  0.40550  1.0000 -0.2302680141
C   C147      1.0  0.99720  0.05060  0.39480  1.0000 -0.096612022
C   C148      1.0  0.16720  0.23010  0.43600  1.0000 0.2399356359
C   C149      1.0  0.16630  0.31300  0.40460  1.0000 -0.2435966722
C   C150      1.0  0.27100  0.33320  0.38370  1.0000 -0.1100947707
C   C151      1.0  0.36810  0.27210  0.39510  1.0000 -0.0817003557
C   C152      1.0  0.36130  0.19020  0.42620  1.0000 -0.0817003557
C   C153      1.0  0.26130  0.16660  0.44670  1.0000 -0.2193527095
C   C154      1.0  0.47120  0.29920  0.37490  1.0000 0.5286307597
C   C155      1.0  0.54720  0.55870  0.26590  1.0000 0.5386393829
C   C156      1.0  0.52070  0.64030  0.22140  1.0000 -0.0294071882
C   C157      1.0  0.52490  0.63250  0.16840  1.0000 -0.096612022
C   C158      1.0  0.49610  0.70730  0.12920  1.0000 -0.2193527095
C   C159      1.0  0.45880  0.78870  0.14110  1.0000 0.2399356359
C   C160      1.0  0.45400  0.79590  0.19300  1.0000 -0.2193527095
C   C161      1.0  0.48680  0.72230  0.23200  1.0000 -0.0918455831
C   C162      1.0  0.47390  0.92880  0.08960  1.0000 0.2570940121
C   C163      1.0  0.41370  0.00830  0.06270  1.0000 -0.2193527095
C   C164      1.0  0.46310  0.08360  0.04390  1.0000 -0.0918455831
C   C165      1.0  0.57260  0.07370  0.05470  1.0000 -0.0294071882
C   C166      1.0  0.63270  0.99430  0.08280  1.0000 -0.1100947707
C   C167      1.0  0.58340  0.92160  0.10070  1.0000 -0.2435966722
C   C168      1.0  0.63200  0.15470  0.03380  1.0000 0.5286307597
N   N1        1.0  0.34540  0.02700  0.69200  1.0000 -0.2684863577
N   N2        1.0  0.53290  0.80670  0.78960  1.0000 -0.0695513169
N   N3        1.0  0.59870  0.63380  0.85270  1.0000 -0.0591440187
N   N4        1.0  0.68330  0.37810  0.94410  1.0000 -0.2435966722
N   N5        1.0  0.30340  0.21870  0.60750  1.0000 -0.2302680141
N   N6        1.0  0.44410  0.43230  0.52770  1.0000 -0.1294681844
N   N7        1.0  0.30250  0.70630  0.71660  1.0000 -0.2511530604
N   N8        1.0  0.12280  0.89150  0.79680  1.0000 -0.0817003557
N   N9        1.0  0.00820  0.01450  0.85290  1.0000 -0.1294681844
N   N10       1.0  0.84020  0.19470  0.94220  1.0000 -0.2589220143
N   N11       1.0  0.27880  0.58460  0.63420  1.0000 -0.2684863577
N   N12       1.0  0.06520  0.52340  0.53550  1.0000 -0.0695513169
N   N13       1.0  0.65460  0.97300  0.30800  1.0000 -0.2589220143
N   N14       1.0  0.46710  0.19330  0.21040  1.0000 -0.0695513169
N   N15       1.0  0.40130  0.36620  0.14730  1.0000 -0.0591440187
N   N16       1.0  0.31670  0.62190  0.05590  1.0000 -0.2435966722
N   N17       1.0  0.69660  0.78130  0.39250  1.0000 -0.2302680141
N   N18       1.0  0.55590  0.56770  0.47230  1.0000 -0.1294681844
N   N19       1.0  0.69750  0.29370  0.28340  1.0000 -0.2511530604
N   N20       1.0  0.87720  0.10850  0.20320  1.0000 -0.0817003557
N   N21       1.0  0.99180  0.98550  0.14710  1.0000 -0.1294681844
N   N22       1.0  0.15980  0.80530  0.05780  1.0000 -0.2589220143
N   N23       1.0  0.72120  0.41540  0.36580  1.0000 -0.2684863577
N   N24       1.0  0.93480  0.47660  0.46450  1.0000 -0.0695513169
O   O1        1.0  0.16390  0.17010  0.71150  1.0000 -0.5615831153
O   O2        1.0  0.07780  0.29530  0.66190  1.0000 -0.5307240969
O   O3        1.0  0.03110  0.37490  0.89210  1.0000 -0.2302680141
O   O4        1.0  0.13690  0.69490  0.97300  1.0000 -0.5307240969
O   O5        1.0  0.29470  0.65490  0.93400  1.0000 -0.5615831153
O   O6        1.0  0.11780  0.06880  0.62800  1.0000 -0.5507976349
O   O7        1.0  0.24860  0.04210  0.56830  1.0000 -0.5507976349
O   O8        1.0  0.93430  0.78400  0.54150  1.0000 -0.2302680141
O   O9        1.0  0.53080  0.63040  0.65800  1.0000 -0.5204376018
O   O10       1.0  0.44170  0.75040  0.60550  1.0000 -0.5746876038
O   O11       1.0  0.40430  0.51180  0.74630  1.0000 -0.5507976349
O   O12       1.0  0.48200  0.43160  0.68940  1.0000 -0.5404836571
O   O13       1.0  0.58130  0.14020  0.89850  1.0000 -0.209855022
O   O14       1.0  0.26630  0.86070  0.95640  1.0000 -0.5615831153
O   O15       1.0  0.42280  0.77680  0.99240  1.0000 -0.5404836571
O   O16       1.0  0.83610  0.82990  0.28850  1.0000 -0.5615831153
O   O17       1.0  0.92220  0.70470  0.33810  1.0000 -0.5307240969
O   O18       1.0  0.96890  0.62510  0.10790  1.0000 -0.2302680141
O   O19       1.0  0.86310  0.30510  0.02700  1.0000 -0.5307240969
O   O20       1.0  0.70530  0.34510  0.06600  1.0000 -0.5615831153
O   O21       1.0  0.88220  0.93120  0.37200  1.0000 -0.5507976349
O   O22       1.0  0.75140  0.95790  0.43170  1.0000 -0.5507976349
O   O23       1.0  0.06570  0.21600  0.45850  1.0000 -0.2302680141
O   O24       1.0  0.46920  0.36960  0.34200  1.0000 -0.5204376018
O   O25       1.0  0.55830  0.24960  0.39450  1.0000 -0.5746876038
O   O26       1.0  0.59570  0.48820  0.25370  1.0000 -0.5507976349
O   O27       1.0  0.51800  0.56840  0.31060  1.0000 -0.5404836571
O   O28       1.0  0.41870  0.85980  0.10150  1.0000 -0.209855022
O   O29       1.0  0.73370  0.13930  0.04360  1.0000 -0.5615831153
O   O30       1.0  0.57720  0.22320  0.00760  1.0000 -0.5404836571
