# DDEC6 charges by PACMAN v1.1 (https://github.com/mtap-research/PACMAN-charge/)
data_2021[Zn][pcu]3[FSR]8
_chemical_formula_sum              "Zn3 H44 C50 N8 O8"
_cell_length_a       9.7195
_cell_length_b       11.4739
_cell_length_c       18.8336
_cell_angle_alpha    87.203
_cell_angle_beta     80.313
_cell_angle_gamma    87.767

_symmetry_space_group_name_H-M    "P 1"
_symmetry_Int_Tables_number       1

loop_
  _symmetry_equiv_pos_as_xyz
  'x, y, z'

loop_
  _atom_site_type_symbol
  _atom_site_label
  _atom_site_symmetry_multiplicity
  _atom_site_fract_x
  _atom_site_fract_y
  _atom_site_fract_z
  _atom_site_occupancy
  _atom_site_charge
Zn  Zn1       1.0  0.03508  0.98394  0.29719  1.0000 0.6959237878
Zn  Zn2       1.0  0.96492  0.01606  0.70281  1.0000 0.6959237878
Zn  Zn3       1.0  0.00000  0.00000  0.50000  1.0000 0.8589159076
H   H1        1.0  0.53572  0.04985  0.32542  1.0000 0.0894000294
H   H2        1.0  0.54479  0.91250  0.33213  1.0000 0.0894000294
H   H3        1.0  0.59542  0.92112  0.44765  1.0000 0.1213581661
H   H4        1.0  0.58263  0.05688  0.44277  1.0000 0.1213581661
H   H5        1.0  0.18909  0.78236  0.51933  1.0000 0.0997644346
H   H6        1.0  0.80424  0.79558  0.49255  1.0000 0.0997644346
H   H7        1.0  0.80024  0.59839  0.48902  1.0000 0.1213581661
H   H8        1.0  0.20020  0.58394  0.51050  1.0000 0.1213581661
H   H9        1.0  0.84178  0.58305  0.28070  1.0000 0.1255055988
H   H10       1.0  0.36006  0.04975  0.42674  1.0000 0.1213581661
H   H11       1.0  0.36712  0.91370  0.43071  1.0000 0.1213581661
H   H12       1.0  0.84877  0.78087  0.28369  1.0000 0.1067880948
H   H13       1.0  0.83860  0.40065  0.28967  1.0000 0.1255055988
H   H14       1.0  0.24401  0.38792  0.29287  1.0000 0.1255055988
H   H15       1.0  0.23356  0.56393  0.31821  1.0000 0.1255055988
H   H16       1.0  0.82298  0.01517  0.19809  1.0000 0.1067880948
H   H17       1.0  0.84277  0.20300  0.29031  1.0000 0.0997644346
H   H18       1.0  0.22342  0.95486  0.14964  1.0000 0.1067880948
H   H19       1.0  0.23007  0.76121  0.31850  1.0000 0.1067880948
H   H20       1.0  0.24006  0.19114  0.29013  1.0000 0.1067880948
H   H21       1.0  0.80213  0.03009  0.07725  1.0000 0.1255055988
H   H22       1.0  0.21155  0.95721  0.02878  1.0000 0.1255055988
H   H23       1.0  0.46428  0.95015  0.67458  1.0000 0.0894000294
H   H24       1.0  0.45521  0.08750  0.66787  1.0000 0.0894000294
H   H25       1.0  0.40458  0.07888  0.55235  1.0000 0.1213581661
H   H26       1.0  0.41737  0.94312  0.55723  1.0000 0.1213581661
H   H27       1.0  0.81091  0.21764  0.48067  1.0000 0.0997644346
H   H28       1.0  0.19576  0.20442  0.50745  1.0000 0.0997644346
H   H29       1.0  0.19976  0.40161  0.51098  1.0000 0.1213581661
H   H30       1.0  0.79980  0.41606  0.48950  1.0000 0.1213581661
H   H31       1.0  0.15822  0.41695  0.71930  1.0000 0.1255055988
H   H32       1.0  0.63994  0.95025  0.57326  1.0000 0.1213581661
H   H33       1.0  0.63288  0.08630  0.56929  1.0000 0.1213581661
H   H34       1.0  0.15123  0.21913  0.71631  1.0000 0.1067880948
H   H35       1.0  0.16140  0.59935  0.71033  1.0000 0.1255055988
H   H36       1.0  0.75599  0.61208  0.70713  1.0000 0.1255055988
H   H37       1.0  0.76644  0.43607  0.68179  1.0000 0.1255055988
H   H38       1.0  0.17702  0.98483  0.80191  1.0000 0.1067880948
H   H39       1.0  0.15723  0.79700  0.70969  1.0000 0.0997644346
H   H40       1.0  0.77658  0.04514  0.85036  1.0000 0.1067880948
H   H41       1.0  0.76993  0.23879  0.68150  1.0000 0.1067880948
H   H42       1.0  0.75994  0.80886  0.70987  1.0000 0.1067880948
H   H43       1.0  0.19787  0.96991  0.92275  1.0000 0.1255055988
H   H44       1.0  0.78845  0.04279  0.97122  1.0000 0.1255055988
C   C1        1.0  0.99990  0.56520  0.50110  1.0000 0.0894000294
C   C2        1.0  0.52240  0.98270  0.35890  1.0000 -0.1035727958
C   C3        1.0  0.77000  0.99480  0.39435  1.0000 0.6209853117
C   C4        1.0  0.25670  0.97980  0.35540  1.0000 0.5949678843
C   C5        1.0  0.03980  0.41940  0.29400  1.0000 0.0997644346
C   C6        1.0  0.03790  0.54760  0.29770  1.0000 0.0997644346
C   C7        1.0  0.61400  0.98890  0.41510  1.0000 -0.3569765116
C   C8        1.0  0.10990  0.74520  0.51160  1.0000 0.0581282989
C   C9        1.0  0.88580  0.75260  0.49680  1.0000 0.0581282989
C   C10       1.0  0.88220  0.63330  0.49470  1.0000 -0.2181579459
C   C11       1.0  0.11640  0.62470  0.50810  1.0000 -0.2181579459
C   C12       1.0  0.92310  0.61700  0.28830  1.0000 -0.2103577865
C   C13       1.0  0.37510  0.98150  0.39760  1.0000 -0.3569765116
C   C14       1.0  0.92830  0.73670  0.29020  1.0000 0.0515831299
C   C15       1.0  0.92250  0.35960  0.29140  1.0000 -0.2181579459
C   C16       1.0  0.15970  0.35240  0.29280  1.0000 -0.2103577865
C   C17       1.0  0.15350  0.60610  0.31020  1.0000 -0.2103577865
C   C18       1.0  0.00630  0.99670  0.03880  1.0000 0.0997644346
C   C19       1.0  0.90270  0.00560  0.16360  1.0000 0.0581282989
C   C20       1.0  0.92590  0.24000  0.29110  1.0000 0.0581282989
C   C21       1.0  0.13710  0.96880  0.13530  1.0000 0.0701776029
C   C22       1.0  0.15010  0.72520  0.31070  1.0000 0.0701776029
C   C23       1.0  0.15620  0.23350  0.29150  1.0000 0.0581282989
C   C24       1.0  0.88890  0.01360  0.09070  1.0000 -0.2103577865
C   C25       1.0  0.13120  0.97190  0.06200  1.0000 -0.2103577865
C   C26       1.0  0.00010  0.43480  0.49890  1.0000 0.0894000294
C   C27       1.0  0.47760  0.01730  0.64110  1.0000 -0.1035727958
C   C28       1.0  0.23000  0.00520  0.60565  1.0000 0.6209853117
C   C29       1.0  0.74330  0.02020  0.64460  1.0000 0.5949678843
C   C30       1.0  0.96020  0.58060  0.70600  1.0000 0.0997644346
C   C31       1.0  0.96210  0.45240  0.70230  1.0000 0.0997644346
C   C32       1.0  0.38600  0.01110  0.58490  1.0000 -0.3569765116
C   C33       1.0  0.89010  0.25480  0.48840  1.0000 0.0581282989
C   C34       1.0  0.11420  0.24740  0.50320  1.0000 0.0581282989
C   C35       1.0  0.11780  0.36670  0.50530  1.0000 -0.2181579459
C   C36       1.0  0.88360  0.37530  0.49190  1.0000 -0.2181579459
C   C37       1.0  0.07690  0.38300  0.71170  1.0000 -0.2103577865
C   C38       1.0  0.62490  0.01850  0.60240  1.0000 -0.3569765116
C   C39       1.0  0.07170  0.26330  0.70980  1.0000 0.0515831299
C   C40       1.0  0.07750  0.64040  0.70860  1.0000 -0.2181579459
C   C41       1.0  0.84030  0.64760  0.70720  1.0000 -0.2103577865
C   C42       1.0  0.84650  0.39390  0.68980  1.0000 -0.2103577865
C   C43       1.0  0.99370  0.00330  0.96120  1.0000 0.0997644346
C   C44       1.0  0.09730  0.99440  0.83640  1.0000 0.0581282989
C   C45       1.0  0.07410  0.76000  0.70890  1.0000 0.0515831299
C   C46       1.0  0.86290  0.03120  0.86470  1.0000 0.0701776029
C   C47       1.0  0.84990  0.27480  0.68930  1.0000 0.0701776029
C   C48       1.0  0.84380  0.76650  0.70850  1.0000 0.0581282989
C   C49       1.0  0.11110  0.98640  0.90930  1.0000 -0.2103577865
C   C50       1.0  0.86880  0.02810  0.93800  1.0000 -0.2103577865
N   N1        1.0  0.99680  0.81060  0.50445  1.0000 -0.2181579459
N   N2        1.0  0.04060  0.17410  0.29192  1.0000 -0.2020719375
N   N3        1.0  0.02550  0.98480  0.18607  1.0000 -0.2362670998
N   N4        1.0  0.04040  0.79330  0.30083  1.0000 -0.2103577865
N   N5        1.0  0.00320  0.18940  0.49555  1.0000 -0.2181579459
N   N6        1.0  0.95940  0.82590  0.70808  1.0000 -0.2020719375
N   N7        1.0  0.97450  0.01520  0.81393  1.0000 -0.2362670998
N   N8        1.0  0.95960  0.20670  0.69917  1.0000 -0.2103577865
O   O1        1.0  0.13120  0.98500  0.39080  1.0000 -0.5914703484
O   O2        1.0  0.27440  0.97520  0.28912  1.0000 -0.5598985429
O   O3        1.0  0.82670  0.98640  0.32961  1.0000 -0.5690693434
O   O4        1.0  0.83410  0.00770  0.44577  1.0000 -0.5914703484
O   O5        1.0  0.86880  0.01500  0.60920  1.0000 -0.5914703484
O   O6        1.0  0.72560  0.02480  0.71088  1.0000 -0.5598985429
O   O7        1.0  0.17330  0.01360  0.67039  1.0000 -0.5690693434
O   O8        1.0  0.16590  0.99230  0.55423  1.0000 -0.5914703484
