# DDEC6 charges by PACMAN v1.1 (https://github.com/mtap-research/PACMAN-charge/)
data_2021[Ni][qtz]3[FSR]3
_chemical_formula_sum              "Ni3 H120 C168 N12 Cl6 O24"
_cell_length_a       21.5232
_cell_length_b       21.5232
_cell_length_c       15.8169
_cell_angle_alpha    90
_cell_angle_beta     90
_cell_angle_gamma    120

_symmetry_space_group_name_H-M    "P 1"
_symmetry_Int_Tables_number       1

loop_
  _symmetry_equiv_pos_as_xyz
  'x, y, z'

loop_
  _atom_site_type_symbol
  _atom_site_label
  _atom_site_symmetry_multiplicity
  _atom_site_fract_x
  _atom_site_fract_y
  _atom_site_fract_z
  _atom_site_occupancy
  _atom_site_charge
Ni  Ni1       1.0  0.50000  0.50000  0.16667  1.0000 0.5355459828
Ni  Ni2       1.0  0.00000  0.50000  0.83333  1.0000 0.5355459828
Ni  Ni3       1.0  0.50000  0.00000  0.50000  1.0000 0.5355459828
H   H1        1.0  0.53434  0.39624  0.07526  1.0000 0.1075514931
H   H2        1.0  0.51020  0.27921  0.08266  1.0000 0.1298940353
H   H3        1.0  0.39807  0.36177  0.26150  1.0000 0.1075514931
H   H4        1.0  0.37544  0.24404  0.27614  1.0000 0.1402033298
H   H5        1.0  0.56884  0.09200  0.21875  1.0000 0.1181184274
H   H6        1.0  0.70576  0.09584  0.98919  1.0000 0.1181184274
H   H7        1.0  0.47413  0.07701  0.19290  1.0000 0.1033303741
H   H8        1.0  0.40657  0.05190  0.13072  1.0000 0.1033303741
H   H9        1.0  0.74388  0.10196  0.12586  1.0000 0.1181184274
H   H10       1.0  0.67928  0.10880  0.23487  1.0000 0.1298940353
H   H11       1.0  0.86190  0.46566  0.74192  1.0000 0.1075514931
H   H12       1.0  0.76901  0.48980  0.74932  1.0000 0.1298940353
H   H13       1.0  0.96370  0.60193  0.92816  1.0000 0.1075514931
H   H14       1.0  0.86860  0.62456  0.94280  1.0000 0.1402033298
H   H15       1.0  0.52316  0.43116  0.88541  1.0000 0.1181184274
H   H16       1.0  0.39008  0.29424  0.65585  1.0000 0.1181184274
H   H17       1.0  0.60288  0.52587  0.85956  1.0000 0.1033303741
H   H18       1.0  0.64533  0.59343  0.79738  1.0000 0.1033303741
H   H19       1.0  0.35808  0.25612  0.79252  1.0000 0.1181184274
H   H20       1.0  0.42952  0.32072  0.90153  1.0000 0.1298940353
H   H21       1.0  0.60376  0.13810  0.40859  1.0000 0.1075514931
H   H22       1.0  0.72079  0.23099  0.41599  1.0000 0.1298940353
H   H23       1.0  0.63823  0.03630  0.59483  1.0000 0.1075514931
H   H24       1.0  0.75596  0.13140  0.60947  1.0000 0.1402033298
H   H25       1.0  0.90800  0.47684  0.55208  1.0000 0.1181184274
H   H26       1.0  0.90416  0.60992  0.32252  1.0000 0.1181184274
H   H27       1.0  0.92299  0.39712  0.52623  1.0000 0.1033303741
H   H28       1.0  0.94810  0.35467  0.46405  1.0000 0.1033303741
H   H29       1.0  0.89804  0.64192  0.45919  1.0000 0.1181184274
H   H30       1.0  0.89120  0.57048  0.56820  1.0000 0.1298940353
H   H31       1.0  0.46566  0.60376  0.07526  1.0000 0.1075514931
H   H32       1.0  0.48980  0.72079  0.08266  1.0000 0.1298940353
H   H33       1.0  0.60193  0.63823  0.26150  1.0000 0.1075514931
H   H34       1.0  0.62456  0.75596  0.27614  1.0000 0.1402033298
H   H35       1.0  0.43116  0.90800  0.21875  1.0000 0.1181184274
H   H36       1.0  0.29424  0.90416  0.98919  1.0000 0.1181184274
H   H37       1.0  0.52587  0.92299  0.19290  1.0000 0.1033303741
H   H38       1.0  0.59343  0.94810  0.13072  1.0000 0.1033303741
H   H39       1.0  0.25612  0.89804  0.12586  1.0000 0.1181184274
H   H40       1.0  0.32072  0.89120  0.23487  1.0000 0.1298940353
H   H41       1.0  0.13810  0.53434  0.74192  1.0000 0.1075514931
H   H42       1.0  0.23099  0.51020  0.74932  1.0000 0.1298940353
H   H43       1.0  0.03630  0.39807  0.92816  1.0000 0.1075514931
H   H44       1.0  0.13140  0.37544  0.94280  1.0000 0.1402033298
H   H45       1.0  0.47684  0.56884  0.88541  1.0000 0.1181184274
H   H46       1.0  0.60992  0.70576  0.65585  1.0000 0.1181184274
H   H47       1.0  0.39712  0.47413  0.85956  1.0000 0.1033303741
H   H48       1.0  0.35467  0.40657  0.79738  1.0000 0.1033303741
H   H49       1.0  0.64192  0.74388  0.79252  1.0000 0.1181184274
H   H50       1.0  0.57048  0.67928  0.90153  1.0000 0.1298940353
H   H51       1.0  0.39624  0.86190  0.40859  1.0000 0.1075514931
H   H52       1.0  0.27921  0.76901  0.41599  1.0000 0.1298940353
H   H53       1.0  0.36177  0.96370  0.59483  1.0000 0.1075514931
H   H54       1.0  0.24404  0.86860  0.60947  1.0000 0.1402033298
H   H55       1.0  0.09200  0.52316  0.55208  1.0000 0.1181184274
H   H56       1.0  0.09584  0.39008  0.32252  1.0000 0.1181184274
H   H57       1.0  0.07701  0.60288  0.52623  1.0000 0.1033303741
H   H58       1.0  0.05190  0.64533  0.46405  1.0000 0.1033303741
H   H59       1.0  0.10196  0.35808  0.45919  1.0000 0.1181184274
H   H60       1.0  0.10880  0.42952  0.56820  1.0000 0.1298940353
H   H61       1.0  0.13810  0.60376  0.92474  1.0000 0.1075514931
H   H62       1.0  0.23099  0.72079  0.91734  1.0000 0.1298940353
H   H63       1.0  0.03630  0.63823  0.73850  1.0000 0.1075514931
H   H64       1.0  0.13140  0.75596  0.72386  1.0000 0.1402033298
H   H65       1.0  0.47684  0.90800  0.78125  1.0000 0.1181184274
H   H66       1.0  0.60992  0.90416  0.01081  1.0000 0.1181184274
H   H67       1.0  0.39712  0.92299  0.80710  1.0000 0.1033303741
H   H68       1.0  0.35467  0.94810  0.86928  1.0000 0.1033303741
H   H69       1.0  0.64192  0.89804  0.87414  1.0000 0.1181184274
H   H70       1.0  0.57048  0.89120  0.76513  1.0000 0.1298940353
H   H71       1.0  0.39624  0.53434  0.25808  1.0000 0.1075514931
H   H72       1.0  0.27921  0.51020  0.25068  1.0000 0.1298940353
H   H73       1.0  0.36177  0.39807  0.07184  1.0000 0.1075514931
H   H74       1.0  0.24404  0.37544  0.05720  1.0000 0.1402033298
H   H75       1.0  0.09200  0.56884  0.11459  1.0000 0.1181184274
H   H76       1.0  0.09584  0.70576  0.34415  1.0000 0.1181184274
H   H77       1.0  0.07701  0.47413  0.14044  1.0000 0.1033303741
H   H78       1.0  0.05190  0.40657  0.20262  1.0000 0.1033303741
H   H79       1.0  0.10196  0.74388  0.20748  1.0000 0.1181184274
H   H80       1.0  0.10880  0.67928  0.09847  1.0000 0.1298940353
H   H81       1.0  0.46566  0.86190  0.59141  1.0000 0.1075514931
H   H82       1.0  0.48980  0.76901  0.58401  1.0000 0.1298940353
H   H83       1.0  0.60193  0.96370  0.40517  1.0000 0.1075514931
H   H84       1.0  0.62456  0.86860  0.39053  1.0000 0.1402033298
H   H85       1.0  0.43116  0.52316  0.44792  1.0000 0.1181184274
H   H86       1.0  0.29424  0.39008  0.67748  1.0000 0.1181184274
H   H87       1.0  0.52587  0.60288  0.47377  1.0000 0.1033303741
H   H88       1.0  0.59343  0.64533  0.53595  1.0000 0.1033303741
H   H89       1.0  0.25612  0.35808  0.54081  1.0000 0.1181184274
H   H90       1.0  0.32072  0.42952  0.43180  1.0000 0.1298940353
H   H91       1.0  0.86190  0.39624  0.92474  1.0000 0.1075514931
H   H92       1.0  0.76901  0.27921  0.91734  1.0000 0.1298940353
H   H93       1.0  0.96370  0.36177  0.73850  1.0000 0.1075514931
H   H94       1.0  0.86860  0.24404  0.72386  1.0000 0.1402033298
H   H95       1.0  0.52316  0.09200  0.78125  1.0000 0.1181184274
H   H96       1.0  0.39008  0.09584  0.01081  1.0000 0.1181184274
H   H97       1.0  0.60288  0.07701  0.80710  1.0000 0.1033303741
H   H98       1.0  0.64533  0.05190  0.86928  1.0000 0.1033303741
H   H99       1.0  0.35808  0.10196  0.87414  1.0000 0.1181184274
H   H100      1.0  0.42952  0.10880  0.76513  1.0000 0.1298940353
H   H101      1.0  0.60376  0.46566  0.25808  1.0000 0.1075514931
H   H102      1.0  0.72079  0.48980  0.25068  1.0000 0.1298940353
H   H103      1.0  0.63823  0.60193  0.07184  1.0000 0.1075514931
H   H104      1.0  0.75596  0.62456  0.05720  1.0000 0.1402033298
H   H105      1.0  0.90800  0.43116  0.11459  1.0000 0.1181184274
H   H106      1.0  0.90416  0.29424  0.34415  1.0000 0.1181184274
H   H107      1.0  0.92299  0.52587  0.14044  1.0000 0.1033303741
H   H108      1.0  0.94810  0.59343  0.20262  1.0000 0.1033303741
H   H109      1.0  0.89804  0.25612  0.20748  1.0000 0.1181184274
H   H110      1.0  0.89120  0.32072  0.09847  1.0000 0.1298940353
H   H111      1.0  0.53434  0.13810  0.59141  1.0000 0.1075514931
H   H112      1.0  0.51020  0.23099  0.58401  1.0000 0.1298940353
H   H113      1.0  0.39807  0.03630  0.40517  1.0000 0.1075514931
H   H114      1.0  0.37544  0.13140  0.39053  1.0000 0.1402033298
H   H115      1.0  0.56884  0.47684  0.44792  1.0000 0.1181184274
H   H116      1.0  0.70576  0.60992  0.67748  1.0000 0.1181184274
H   H117      1.0  0.47413  0.39712  0.47377  1.0000 0.1033303741
H   H118      1.0  0.40657  0.35467  0.53595  1.0000 0.1033303741
H   H119      1.0  0.74388  0.64192  0.54081  1.0000 0.1181184274
H   H120      1.0  0.67928  0.57048  0.43180  1.0000 0.1298940353
C   C1        1.0  0.42330  0.17270  0.18687  1.0000 0.5037643342
C   C2        1.0  0.50100  0.36520  0.11637  1.0000 0.0849204067
C   C3        1.0  0.48680  0.29500  0.12077  1.0000 -0.1729235274
C   C4        1.0  0.42200  0.34510  0.22557  1.0000 0.0674051596
C   C5        1.0  0.43940  0.24730  0.17907  1.0000 -0.0229832436
C   C6        1.0  0.50150  0.08850  0.06797  1.0000 -0.0229832436
C   C7        1.0  0.40740  0.27410  0.23347  1.0000 -0.1318757009
C   C8        1.0  0.59600  0.09450  0.17017  1.0000 -0.1318757009
C   C9        1.0  0.56540  0.09000  0.08407  1.0000 0.0349309522
C   C10       1.0  0.61120  0.09150  0.01527  1.0000 0.0408938046
C   C11       1.0  0.67650  0.09580  0.03417  1.0000 -0.1534068556
C   C12       1.0  0.45770  0.08830  0.13957  1.0000 -0.0806711362
C   C13       1.0  0.69960  0.10020  0.11497  1.0000 -0.1150923294
C   C14       1.0  0.66000  0.10190  0.17937  1.0000 -0.0882984098
C   C15       1.0  0.74940  0.57670  0.85353  1.0000 0.5037643342
C   C16       1.0  0.86420  0.49900  0.78303  1.0000 0.0849204067
C   C17       1.0  0.80820  0.51320  0.78743  1.0000 -0.1729235274
C   C18       1.0  0.92310  0.57800  0.89223  1.0000 0.0674051596
C   C19       1.0  0.80790  0.56060  0.84573  1.0000 -0.0229832436
C   C20       1.0  0.58700  0.49850  0.73463  1.0000 -0.0229832436
C   C21       1.0  0.86670  0.59260  0.90013  1.0000 -0.1318757009
C   C22       1.0  0.49850  0.40400  0.83683  1.0000 -0.1318757009
C   C23       1.0  0.52460  0.43460  0.75073  1.0000 0.0349309522
C   C24       1.0  0.48030  0.38880  0.68193  1.0000 0.0408938046
C   C25       1.0  0.41930  0.32350  0.70083  1.0000 -0.1534068556
C   C26       1.0  0.63060  0.54230  0.80623  1.0000 -0.0806711362
C   C27       1.0  0.40060  0.30040  0.78163  1.0000 -0.1150923294
C   C28       1.0  0.44190  0.34000  0.84603  1.0000 -0.0882984098
C   C29       1.0  0.82730  0.25060  0.52020  1.0000 0.5037643342
C   C30       1.0  0.63480  0.13580  0.44970  1.0000 0.0849204067
C   C31       1.0  0.70500  0.19180  0.45410  1.0000 -0.1729235274
C   C32       1.0  0.65490  0.07690  0.55890  1.0000 0.0674051596
C   C33       1.0  0.75270  0.19210  0.51240  1.0000 -0.0229832436
C   C34       1.0  0.91150  0.41300  0.40130  1.0000 -0.0229832436
C   C35       1.0  0.72590  0.13330  0.56680  1.0000 -0.1318757009
C   C36       1.0  0.90550  0.50150  0.50350  1.0000 -0.1318757009
C   C37       1.0  0.91000  0.47540  0.41740  1.0000 0.0408938046
C   C38       1.0  0.90850  0.51970  0.34860  1.0000 0.0408938046
C   C39       1.0  0.90420  0.58070  0.36750  1.0000 -0.1534068556
C   C40       1.0  0.91170  0.36940  0.47290  1.0000 -0.0806711362
C   C41       1.0  0.89980  0.59940  0.44830  1.0000 -0.1146924045
C   C42       1.0  0.89810  0.55810  0.51270  1.0000 -0.0882984098
C   C43       1.0  0.57670  0.82730  0.18687  1.0000 0.5037643342
C   C44       1.0  0.49900  0.63480  0.11637  1.0000 0.0849204067
C   C45       1.0  0.51320  0.70500  0.12077  1.0000 -0.1729235274
C   C46       1.0  0.57800  0.65490  0.22557  1.0000 0.0674051596
C   C47       1.0  0.56060  0.75270  0.17907  1.0000 -0.0229832436
C   C48       1.0  0.49850  0.91150  0.06797  1.0000 -0.0229832436
C   C49       1.0  0.59260  0.72590  0.23347  1.0000 -0.1318757009
C   C50       1.0  0.40400  0.90550  0.17017  1.0000 -0.1318757009
C   C51       1.0  0.43460  0.91000  0.08407  1.0000 0.0349309522
C   C52       1.0  0.38880  0.90850  0.01527  1.0000 0.0408938046
C   C53       1.0  0.32350  0.90420  0.03417  1.0000 -0.1534068556
C   C54       1.0  0.54230  0.91170  0.13957  1.0000 -0.0806711362
C   C55       1.0  0.30040  0.89980  0.11497  1.0000 -0.1150923294
C   C56       1.0  0.34000  0.89810  0.17937  1.0000 -0.0882984098
C   C57       1.0  0.25060  0.42330  0.85353  1.0000 0.5037643342
C   C58       1.0  0.13580  0.50100  0.78303  1.0000 0.0849204067
C   C59       1.0  0.19180  0.48680  0.78743  1.0000 -0.1729235274
C   C60       1.0  0.07690  0.42200  0.89223  1.0000 0.0674051596
C   C61       1.0  0.19210  0.43940  0.84573  1.0000 -0.0229832436
C   C62       1.0  0.41300  0.50150  0.73463  1.0000 -0.0229832436
C   C63       1.0  0.13330  0.40740  0.90013  1.0000 -0.1318757009
C   C64       1.0  0.50150  0.59600  0.83683  1.0000 -0.1318757009
C   C65       1.0  0.47540  0.56540  0.75073  1.0000 0.0349309522
C   C66       1.0  0.51970  0.61120  0.68193  1.0000 0.0408938046
C   C67       1.0  0.58070  0.67650  0.70083  1.0000 -0.1534068556
C   C68       1.0  0.36940  0.45770  0.80623  1.0000 -0.0806711362
C   C69       1.0  0.59940  0.69960  0.78163  1.0000 -0.1146924045
C   C70       1.0  0.55810  0.66000  0.84603  1.0000 -0.0882984098
C   C71       1.0  0.17270  0.74940  0.52020  1.0000 0.5037643342
C   C72       1.0  0.36520  0.86420  0.44970  1.0000 0.0849204067
C   C73       1.0  0.29500  0.80820  0.45410  1.0000 -0.1729235274
C   C74       1.0  0.34510  0.92310  0.55890  1.0000 0.0674051596
C   C75       1.0  0.24730  0.80790  0.51240  1.0000 -0.0229832436
C   C76       1.0  0.08850  0.58700  0.40130  1.0000 -0.0229832436
C   C77       1.0  0.27410  0.86670  0.56680  1.0000 -0.1318757009
C   C78       1.0  0.09450  0.49850  0.50350  1.0000 -0.1318757009
C   C79       1.0  0.09000  0.52460  0.41740  1.0000 0.0349309522
C   C80       1.0  0.09150  0.48030  0.34860  1.0000 0.0408938046
C   C81       1.0  0.09580  0.41930  0.36750  1.0000 -0.1534068556
C   C82       1.0  0.08830  0.63060  0.47290  1.0000 -0.0806711362
C   C83       1.0  0.10020  0.40060  0.44830  1.0000 -0.1150923294
C   C84       1.0  0.10190  0.44190  0.51270  1.0000 -0.0882984098
C   C85       1.0  0.25060  0.82730  0.81313  1.0000 0.5037643342
C   C86       1.0  0.13580  0.63480  0.88363  1.0000 0.0849204067
C   C87       1.0  0.19180  0.70500  0.87923  1.0000 -0.1729235274
C   C88       1.0  0.07690  0.65490  0.77443  1.0000 0.0674051596
C   C89       1.0  0.19210  0.75270  0.82093  1.0000 -0.0229832436
C   C90       1.0  0.41300  0.91150  0.93203  1.0000 -0.0229832436
C   C91       1.0  0.13330  0.72590  0.76653  1.0000 -0.1318757009
C   C92       1.0  0.50150  0.90550  0.82983  1.0000 -0.1318757009
C   C93       1.0  0.47540  0.91000  0.91593  1.0000 0.0349309522
C   C94       1.0  0.51970  0.90850  0.98473  1.0000 0.0408938046
C   C95       1.0  0.58070  0.90420  0.96583  1.0000 -0.1534068556
C   C96       1.0  0.36940  0.91170  0.86043  1.0000 -0.0806711362
C   C97       1.0  0.59940  0.89980  0.88503  1.0000 -0.1146924045
C   C98       1.0  0.55810  0.89810  0.82063  1.0000 -0.0882984098
C   C99       1.0  0.17270  0.42330  0.14647  1.0000 0.5037643342
C   C100      1.0  0.36520  0.50100  0.21697  1.0000 0.0849204067
C   C101      1.0  0.29500  0.48680  0.21257  1.0000 -0.1729235274
C   C102      1.0  0.34510  0.42200  0.10777  1.0000 0.0674051596
C   C103      1.0  0.24730  0.43940  0.15427  1.0000 -0.0229832436
C   C104      1.0  0.08850  0.50150  0.26537  1.0000 -0.0229832436
C   C105      1.0  0.27410  0.40740  0.09987  1.0000 -0.1318757009
C   C106      1.0  0.09450  0.59600  0.16317  1.0000 -0.1318757009
C   C107      1.0  0.09000  0.56540  0.24927  1.0000 0.0349309522
C   C108      1.0  0.09150  0.61120  0.31807  1.0000 0.0408938046
C   C109      1.0  0.09580  0.67650  0.29917  1.0000 -0.1534068556
C   C110      1.0  0.08830  0.45770  0.19377  1.0000 -0.0806711362
C   C111      1.0  0.10020  0.69960  0.21837  1.0000 -0.1150923294
C   C112      1.0  0.10190  0.66000  0.15397  1.0000 -0.0882984098
C   C113      1.0  0.57670  0.74940  0.47980  1.0000 0.5037643342
C   C114      1.0  0.49900  0.86420  0.55030  1.0000 0.0849204067
C   C115      1.0  0.51320  0.80820  0.54590  1.0000 -0.1729235274
C   C116      1.0  0.57800  0.92310  0.44110  1.0000 0.0674051596
C   C117      1.0  0.56060  0.80790  0.48760  1.0000 -0.0229832436
C   C118      1.0  0.49850  0.58700  0.59870  1.0000 -0.0229832436
C   C119      1.0  0.59260  0.86670  0.43320  1.0000 -0.1318757009
C   C120      1.0  0.40400  0.49850  0.49650  1.0000 -0.1318757009
C   C121      1.0  0.43460  0.52460  0.58260  1.0000 0.0349309522
C   C122      1.0  0.38880  0.48030  0.65140  1.0000 0.0408938046
C   C123      1.0  0.32350  0.41930  0.63250  1.0000 -0.1534068556
C   C124      1.0  0.54230  0.63060  0.52710  1.0000 -0.0806711362
C   C125      1.0  0.30040  0.40060  0.55170  1.0000 -0.1150923294
C   C126      1.0  0.34000  0.44190  0.48730  1.0000 -0.0882984098
C   C127      1.0  0.74940  0.17270  0.81313  1.0000 0.5037643342
C   C128      1.0  0.86420  0.36520  0.88363  1.0000 0.0849204067
C   C129      1.0  0.80820  0.29500  0.87923  1.0000 -0.1729235274
C   C130      1.0  0.92310  0.34510  0.77443  1.0000 0.0674051596
C   C131      1.0  0.80790  0.24730  0.82093  1.0000 -0.0229832436
C   C132      1.0  0.58700  0.08850  0.93203  1.0000 -0.0229832436
C   C133      1.0  0.86670  0.27410  0.76653  1.0000 -0.1318757009
C   C134      1.0  0.49850  0.09450  0.82983  1.0000 -0.1318757009
C   C135      1.0  0.52460  0.09000  0.91593  1.0000 0.0349309522
C   C136      1.0  0.48030  0.09150  0.98473  1.0000 0.0408938046
C   C137      1.0  0.41930  0.09580  0.96583  1.0000 -0.1534068556
C   C138      1.0  0.63060  0.08830  0.86043  1.0000 -0.0806711362
C   C139      1.0  0.40060  0.10020  0.88503  1.0000 -0.1146924045
C   C140      1.0  0.44190  0.10190  0.82063  1.0000 -0.0882984098
C   C141      1.0  0.82730  0.57670  0.14647  1.0000 0.5037643342
C   C142      1.0  0.63480  0.49900  0.21697  1.0000 0.0849204067
C   C143      1.0  0.70500  0.51320  0.21257  1.0000 -0.1729235274
C   C144      1.0  0.65490  0.57800  0.10777  1.0000 0.0674051596
C   C145      1.0  0.75270  0.56060  0.15427  1.0000 -0.0229832436
C   C146      1.0  0.91150  0.49850  0.26537  1.0000 -0.0229832436
C   C147      1.0  0.72590  0.59260  0.09987  1.0000 -0.1318757009
C   C148      1.0  0.90550  0.40400  0.16317  1.0000 -0.1318757009
C   C149      1.0  0.91000  0.43460  0.24927  1.0000 0.0408938046
C   C150      1.0  0.90850  0.38880  0.31807  1.0000 0.0408938046
C   C151      1.0  0.90420  0.32350  0.29917  1.0000 -0.1534068556
C   C152      1.0  0.91170  0.54230  0.19377  1.0000 -0.0806711362
C   C153      1.0  0.89980  0.30040  0.21837  1.0000 -0.1150923294
C   C154      1.0  0.89810  0.34000  0.15397  1.0000 -0.0882984098
C   C155      1.0  0.42330  0.25060  0.47980  1.0000 0.5037643342
C   C156      1.0  0.50100  0.13580  0.55030  1.0000 0.0849204067
C   C157      1.0  0.48680  0.19180  0.54590  1.0000 -0.1729235274
C   C158      1.0  0.42200  0.07690  0.44110  1.0000 0.0674051596
C   C159      1.0  0.43940  0.19210  0.48760  1.0000 -0.0229832436
C   C160      1.0  0.50150  0.41300  0.59870  1.0000 -0.0229832436
C   C161      1.0  0.40740  0.13330  0.43320  1.0000 -0.1318757009
C   C162      1.0  0.59600  0.50150  0.49650  1.0000 -0.1318757009
C   C163      1.0  0.56540  0.47540  0.58260  1.0000 0.0349309522
C   C164      1.0  0.61120  0.51970  0.65140  1.0000 0.0408938046
C   C165      1.0  0.67650  0.58070  0.63250  1.0000 -0.1534068556
C   C166      1.0  0.45770  0.36940  0.52710  1.0000 -0.0806711362
C   C167      1.0  0.69960  0.59940  0.55170  1.0000 -0.1146924045
C   C168      1.0  0.66000  0.55810  0.48730  1.0000 -0.0882984098
N   N1        1.0  0.47020  0.39090  0.16697  1.0000 -0.1922293615
N   N2        1.0  0.92070  0.52980  0.83363  1.0000 -0.1922293615
N   N3        1.0  0.60910  0.07930  0.50030  1.0000 -0.1922293615
N   N4        1.0  0.52980  0.60910  0.16697  1.0000 -0.1922293615
N   N5        1.0  0.07930  0.47020  0.83363  1.0000 -0.1922293615
N   N6        1.0  0.39090  0.92070  0.50030  1.0000 -0.1922293615
N   N7        1.0  0.07930  0.60910  0.83303  1.0000 -0.1922293615
N   N8        1.0  0.39090  0.47020  0.16637  1.0000 -0.1922293615
N   N9        1.0  0.52980  0.92070  0.49970  1.0000 -0.1922293615
N   N10       1.0  0.92070  0.39090  0.83303  1.0000 -0.1922293615
N   N11       1.0  0.60910  0.52980  0.16637  1.0000 -0.1922293615
N   N12       1.0  0.47020  0.07930  0.49970  1.0000 -0.1922293615
Cl  Cl1       1.0  0.50000  0.50000  0.01513  1.0000 -0.5958481651
Cl  Cl2       1.0  0.00000  0.50000  0.68179  1.0000 -0.5958481651
Cl  Cl3       1.0  0.50000  0.00000  0.34846  1.0000 -0.5958481651
Cl  Cl4       1.0  0.00000  0.50000  0.98487  1.0000 -0.5958481651
Cl  Cl5       1.0  0.50000  0.50000  0.31821  1.0000 -0.5958481651
Cl  Cl6       1.0  0.50000  0.00000  0.65154  1.0000 -0.5958481651
O   O1        1.0  0.46700  0.16180  0.14337  1.0000 -0.1922293615
O   O2        1.0  0.37390  0.12800  0.22597  1.0000 -0.4396030924
O   O3        1.0  0.69480  0.53300  0.81003  1.0000 -0.1951572668
O   O4        1.0  0.75410  0.62610  0.89263  1.0000 -0.4396030924
O   O5        1.0  0.83820  0.30520  0.47670  1.0000 -0.1951572668
O   O6        1.0  0.87200  0.24590  0.55930  1.0000 -0.4396030924
O   O7        1.0  0.53300  0.83820  0.14337  1.0000 -0.1922293615
O   O8        1.0  0.62610  0.87200  0.22597  1.0000 -0.4396030924
O   O9        1.0  0.30520  0.46700  0.81003  1.0000 -0.1922293615
O   O10       1.0  0.24590  0.37390  0.89263  1.0000 -0.4396030924
O   O11       1.0  0.16180  0.69480  0.47670  1.0000 -0.1922293615
O   O12       1.0  0.12800  0.75410  0.55930  1.0000 -0.4396030924
O   O13       1.0  0.30520  0.83820  0.85663  1.0000 -0.1922293615
O   O14       1.0  0.24590  0.87200  0.77403  1.0000 -0.4396030924
O   O15       1.0  0.16180  0.46700  0.18997  1.0000 -0.1922293615
O   O16       1.0  0.12800  0.37390  0.10737  1.0000 -0.4396030924
O   O17       1.0  0.53300  0.69480  0.52330  1.0000 -0.1951572668
O   O18       1.0  0.62610  0.75410  0.44070  1.0000 -0.4396030924
O   O19       1.0  0.69480  0.16180  0.85663  1.0000 -0.1922293615
O   O20       1.0  0.75410  0.12800  0.77403  1.0000 -0.4396030924
O   O21       1.0  0.83820  0.53300  0.18997  1.0000 -0.1951572668
O   O22       1.0  0.87200  0.62610  0.10737  1.0000 -0.4396030924
O   O23       1.0  0.46700  0.30520  0.52330  1.0000 -0.1922293615
O   O24       1.0  0.37390  0.24590  0.44070  1.0000 -0.4396030924
