# DDEC6 charges by PACMAN v1.1 (https://github.com/mtap-research/PACMAN-charge/)
data_2023[Zn][eta]3[FSR]4
_chemical_formula_sum              "Zn24 H336 C240 Br24 N72"
_cell_length_a       16.0383
_cell_length_b       16.0383
_cell_length_c       53.4954
_cell_angle_alpha    90
_cell_angle_beta     90
_cell_angle_gamma    120

_symmetry_space_group_name_H-M    "P 1"
_symmetry_Int_Tables_number       1

loop_
  _symmetry_equiv_pos_as_xyz
  'x, y, z'

loop_
  _atom_site_type_symbol
  _atom_site_label
  _atom_site_symmetry_multiplicity
  _atom_site_fract_x
  _atom_site_fract_y
  _atom_site_fract_z
  _atom_site_occupancy
  _atom_site_charge
Zn  Zn1       1.0  0.43910  0.59622  0.61419  1.0000 0.608831863
Zn  Zn2       1.0  0.40378  0.84288  0.28086  1.0000 0.608831863
Zn  Zn3       1.0  0.15712  0.56090  0.94752  1.0000 0.608831863
Zn  Zn4       1.0  0.56090  0.40378  0.11419  1.0000 0.608831863
Zn  Zn5       1.0  0.59622  0.15712  0.78086  1.0000 0.608831863
Zn  Zn6       1.0  0.84288  0.43910  0.44752  1.0000 0.608831863
Zn  Zn7       1.0  0.34765  0.78421  0.52626  1.0000 0.608831863
Zn  Zn8       1.0  0.21579  0.56344  0.19293  1.0000 0.608831863
Zn  Zn9       1.0  0.43656  0.65235  0.85959  1.0000 0.608831863
Zn  Zn10      1.0  0.65235  0.21579  0.02626  1.0000 0.608831863
Zn  Zn11      1.0  0.78421  0.43656  0.69293  1.0000 0.608831863
Zn  Zn12      1.0  0.56344  0.34765  0.35959  1.0000 0.608831863
Zn  Zn13      1.0  0.13902  0.46856  0.69811  1.0000 0.608831863
Zn  Zn14      1.0  0.53144  0.67046  0.36478  1.0000 0.608831863
Zn  Zn15      1.0  0.32954  0.86098  0.03144  1.0000 0.608831863
Zn  Zn16      1.0  0.86098  0.53144  0.19811  1.0000 0.608831863
Zn  Zn17      1.0  0.46856  0.32954  0.86478  1.0000 0.608831863
Zn  Zn18      1.0  0.67046  0.13902  0.53144  1.0000 0.608831863
Zn  Zn19      1.0  0.48366  0.27736  0.60848  1.0000 0.6313277189
Zn  Zn20      1.0  0.72264  0.20630  0.27515  1.0000 0.6313277189
Zn  Zn21      1.0  0.79370  0.51634  0.94181  1.0000 0.6313277189
Zn  Zn22      1.0  0.51634  0.72264  0.10848  1.0000 0.6313277189
Zn  Zn23      1.0  0.27736  0.79370  0.77515  1.0000 0.6313277189
Zn  Zn24      1.0  0.20630  0.48366  0.44181  1.0000 0.6313277189
H   H1        1.0  0.26766  0.33190  0.61257  1.0000 0.1203895752
H   H2        1.0  0.66810  0.93576  0.27924  1.0000 0.1203895752
H   H3        1.0  0.06424  0.73234  0.94590  1.0000 0.1203895752
H   H4        1.0  0.73234  0.66810  0.11257  1.0000 0.1203895752
H   H5        1.0  0.33190  0.06424  0.77924  1.0000 0.1203895752
H   H6        1.0  0.93576  0.26766  0.44590  1.0000 0.1203895752
H   H7        1.0  0.35760  0.34246  0.58054  1.0000 0.0895569714
H   H8        1.0  0.65754  0.01514  0.24721  1.0000 0.0895569714
H   H9        1.0  0.98486  0.64240  0.91387  1.0000 0.0895569714
H   H10       1.0  0.64240  0.65754  0.08054  1.0000 0.0895569714
H   H11       1.0  0.34246  0.98486  0.74721  1.0000 0.0895569714
H   H12       1.0  0.01514  0.35760  0.41387  1.0000 0.0895569714
H   H13       1.0  0.25073  0.64435  0.59455  1.0000 0.1296344927
H   H14       1.0  0.35565  0.60638  0.26122  1.0000 0.1296344927
H   H15       1.0  0.39362  0.74927  0.92788  1.0000 0.1296344927
H   H16       1.0  0.74927  0.35565  0.09455  1.0000 0.1296344927
H   H17       1.0  0.64435  0.39362  0.76122  1.0000 0.1296344927
H   H18       1.0  0.60638  0.25073  0.42788  1.0000 0.1296344927
H   H19       1.0  0.26044  0.55297  0.59004  1.0000 0.1100845924
H   H20       1.0  0.44703  0.70747  0.25671  1.0000 0.1100845924
H   H21       1.0  0.29253  0.73956  0.92337  1.0000 0.1100845924
H   H22       1.0  0.73956  0.44703  0.09004  1.0000 0.1100845924
H   H23       1.0  0.55297  0.29253  0.75671  1.0000 0.1100845924
H   H24       1.0  0.70747  0.26044  0.42337  1.0000 0.1100845924
H   H25       1.0  0.64809  0.80427  0.59293  1.0000 0.1564541227
H   H26       1.0  0.19573  0.84382  0.25960  1.0000 0.1564541227
H   H27       1.0  0.15618  0.35191  0.92626  1.0000 0.1564541227
H   H28       1.0  0.35191  0.19573  0.09293  1.0000 0.1564541227
H   H29       1.0  0.80427  0.15618  0.75960  1.0000 0.1564541227
H   H30       1.0  0.84382  0.64809  0.42626  1.0000 0.1564541227
H   H31       1.0  0.66814  0.79959  0.56443  1.0000 0.1296344927
H   H32       1.0  0.20041  0.86855  0.23110  1.0000 0.1296344927
H   H33       1.0  0.13145  0.33186  0.89776  1.0000 0.1296344927
H   H34       1.0  0.33186  0.20041  0.06443  1.0000 0.1296344927
H   H35       1.0  0.79959  0.13145  0.73110  1.0000 0.1296344927
H   H36       1.0  0.86855  0.66814  0.39776  1.0000 0.1296344927
H   H37       1.0  0.62769  0.70663  0.58095  1.0000 0.1203895752
H   H38       1.0  0.29337  0.92106  0.24762  1.0000 0.1203895752
H   H39       1.0  0.07894  0.37231  0.91428  1.0000 0.1203895752
H   H40       1.0  0.37231  0.29337  0.08095  1.0000 0.1203895752
H   H41       1.0  0.70663  0.07894  0.74762  1.0000 0.1203895752
H   H42       1.0  0.92106  0.62769  0.41428  1.0000 0.1203895752
H   H43       1.0  0.29899  0.65177  0.68508  1.0000 0.1100845924
H   H44       1.0  0.34823  0.64722  0.35175  1.0000 0.1100845924
H   H45       1.0  0.35278  0.70101  0.01841  1.0000 0.1100845924
H   H46       1.0  0.70101  0.34823  0.18508  1.0000 0.1100845924
H   H47       1.0  0.65177  0.35278  0.85175  1.0000 0.1100845924
H   H48       1.0  0.64722  0.29899  0.51841  1.0000 0.1100845924
H   H49       1.0  0.39980  0.68609  0.67292  1.0000 0.1296344927
H   H50       1.0  0.31391  0.71371  0.33959  1.0000 0.1296344927
H   H51       1.0  0.28629  0.60020  0.00625  1.0000 0.1296344927
H   H52       1.0  0.60020  0.31391  0.17292  1.0000 0.1296344927
H   H53       1.0  0.68609  0.28629  0.83959  1.0000 0.1296344927
H   H54       1.0  0.71371  0.39980  0.50625  1.0000 0.1296344927
H   H55       1.0  0.53001  0.52038  0.57490  1.0000 0.0895569714
H   H56       1.0  0.47962  0.00963  0.24157  1.0000 0.0895569714
H   H57       1.0  0.99037  0.46999  0.90823  1.0000 0.0895569714
H   H58       1.0  0.46999  0.47962  0.07490  1.0000 0.0895569714
H   H59       1.0  0.52038  0.99037  0.74157  1.0000 0.0895569714
H   H60       1.0  0.00963  0.53001  0.40823  1.0000 0.0895569714
H   H61       1.0  0.37164  0.50290  0.55481  1.0000 0.1203895752
H   H62       1.0  0.49710  0.86874  0.22148  1.0000 0.1203895752
H   H63       1.0  0.13126  0.62836  0.88814  1.0000 0.1203895752
H   H64       1.0  0.62836  0.49710  0.05481  1.0000 0.1203895752
H   H65       1.0  0.50290  0.13126  0.72148  1.0000 0.1203895752
H   H66       1.0  0.86874  0.37164  0.38814  1.0000 0.1203895752
H   H67       1.0  0.27574  0.40534  0.55917  1.0000 0.1296344927
H   H68       1.0  0.59466  0.87040  0.22584  1.0000 0.1296344927
H   H69       1.0  0.12960  0.72426  0.89250  1.0000 0.1296344927
H   H70       1.0  0.72426  0.59466  0.05917  1.0000 0.1296344927
H   H71       1.0  0.40534  0.12960  0.72584  1.0000 0.1296344927
H   H72       1.0  0.87040  0.27574  0.39250  1.0000 0.1296344927
H   H73       1.0  0.22905  0.61670  0.54629  1.0000 0.1100845924
H   H74       1.0  0.38330  0.61235  0.21296  1.0000 0.1100845924
H   H75       1.0  0.38765  0.77095  0.87962  1.0000 0.1100845924
H   H76       1.0  0.77095  0.38330  0.04629  1.0000 0.1203895752
H   H77       1.0  0.61670  0.38765  0.71296  1.0000 0.1100845924
H   H78       1.0  0.61235  0.22905  0.37962  1.0000 0.1100845924
H   H79       1.0  0.14592  0.59392  0.56530  1.0000 0.1296344927
H   H80       1.0  0.40608  0.55200  0.23197  1.0000 0.1296344927
H   H81       1.0  0.44800  0.85408  0.89863  1.0000 0.1296344927
H   H82       1.0  0.85408  0.40608  0.06530  1.0000 0.1296344927
H   H83       1.0  0.59392  0.44800  0.73197  1.0000 0.1296344927
H   H84       1.0  0.55200  0.14592  0.39863  1.0000 0.1296344927
H   H85       1.0  0.16937  0.51335  0.55782  1.0000 0.1203895752
H   H86       1.0  0.48665  0.65602  0.22449  1.0000 0.1203895752
H   H87       1.0  0.34398  0.83063  0.89115  1.0000 0.1203895752
H   H88       1.0  0.83063  0.48665  0.05782  1.0000 0.1203895752
H   H89       1.0  0.51335  0.34398  0.72449  1.0000 0.1203895752
H   H90       1.0  0.65602  0.16937  0.39115  1.0000 0.1203895752
H   H91       1.0  0.61000  0.87064  0.53174  1.0000 0.1203895752
H   H92       1.0  0.12936  0.73936  0.19841  1.0000 0.1203895752
H   H93       1.0  0.26064  0.39000  0.86507  1.0000 0.1203895752
H   H94       1.0  0.39000  0.12936  0.03174  1.0000 0.1203895752
H   H95       1.0  0.87064  0.26064  0.69841  1.0000 0.1203895752
H   H96       1.0  0.73936  0.61000  0.36507  1.0000 0.1203895752
H   H97       1.0  0.36909  0.74889  0.64110  1.0000 0.1296344927
H   H98       1.0  0.25111  0.62020  0.30777  1.0000 0.1296344927
H   H99       1.0  0.37980  0.63091  0.97443  1.0000 0.1296344927
H   H100      1.0  0.63091  0.25111  0.14110  1.0000 0.1296344927
H   H101      1.0  0.74889  0.37980  0.80777  1.0000 0.1296344927
H   H102      1.0  0.62020  0.36909  0.47443  1.0000 0.1296344927
H   H103      1.0  0.31353  0.76835  0.66232  1.0000 0.1100845924
H   H104      1.0  0.23165  0.54518  0.32899  1.0000 0.1100845924
H   H105      1.0  0.45482  0.68647  0.99565  1.0000 0.1100845924
H   H106      1.0  0.68647  0.23165  0.16232  1.0000 0.1100845924
H   H107      1.0  0.76835  0.45482  0.82899  1.0000 0.1100845924
H   H108      1.0  0.54518  0.31353  0.49565  1.0000 0.1100845924
H   H109      1.0  0.25738  0.68229  0.64377  1.0000 0.1203895752
H   H110      1.0  0.31771  0.57509  0.31044  1.0000 0.1203895752
H   H111      1.0  0.42491  0.74262  0.97710  1.0000 0.1203895752
H   H112      1.0  0.74262  0.31771  0.14377  1.0000 0.1203895752
H   H113      1.0  0.68229  0.42491  0.81044  1.0000 0.1203895752
H   H114      1.0  0.57509  0.25738  0.47710  1.0000 0.1203895752
H   H115      1.0  0.08569  0.28403  0.66207  1.0000 0.1203895752
H   H116      1.0  0.71597  0.80166  0.32874  1.0000 0.1203895752
H   H117      1.0  0.19834  0.91431  0.99540  1.0000 0.1203895752
H   H118      1.0  0.91431  0.71597  0.16207  1.0000 0.1203895752
H   H119      1.0  0.28403  0.19834  0.82874  1.0000 0.1203895752
H   H120      1.0  0.80166  0.08569  0.49540  1.0000 0.1203895752
H   H121      1.0  0.16668  0.28381  0.67842  1.0000 0.1564541227
H   H122      1.0  0.71619  0.88287  0.34509  1.0000 0.1564541227
H   H123      1.0  0.11713  0.83332  0.01175  1.0000 0.1564541227
H   H124      1.0  0.83332  0.71619  0.17842  1.0000 0.1564541227
H   H125      1.0  0.28381  0.11713  0.84509  1.0000 0.1564541227
H   H126      1.0  0.88287  0.16668  0.51175  1.0000 0.1564541227
H   H127      1.0  0.15918  0.25869  0.64989  1.0000 0.1296344927
H   H128      1.0  0.74131  0.90049  0.31656  1.0000 0.1296344927
H   H129      1.0  0.09951  0.84082  0.98322  1.0000 0.1296344927
H   H130      1.0  0.84082  0.74131  0.14989  1.0000 0.1296344927
H   H131      1.0  0.25869  0.09951  0.81656  1.0000 0.1296344927
H   H132      1.0  0.90049  0.15918  0.48322  1.0000 0.1296344927
H   H133      1.0  0.58402  0.44318  0.54772  1.0000 0.1296344927
H   H134      1.0  0.55682  0.14084  0.21439  1.0000 0.1296344927
H   H135      1.0  0.85916  0.41598  0.88105  1.0000 0.1296344927
H   H136      1.0  0.41598  0.55682  0.04772  1.0000 0.1296344927
H   H137      1.0  0.44318  0.85916  0.71439  1.0000 0.1296344927
H   H138      1.0  0.14084  0.58402  0.38105  1.0000 0.1296344927
H   H139      1.0  0.48814  0.34464  0.55110  1.0000 0.1203895752
H   H140      1.0  0.65536  0.14350  0.21777  1.0000 0.1203895752
H   H141      1.0  0.85650  0.51186  0.88443  1.0000 0.1203895752
H   H142      1.0  0.51186  0.65536  0.05110  1.0000 0.1203895752
H   H143      1.0  0.34464  0.85650  0.71777  1.0000 0.1203895752
H   H144      1.0  0.14350  0.48814  0.38443  1.0000 0.1203895752
H   H145      1.0  0.33424  0.41181  0.51815  1.0000 0.1100845924
H   H146      1.0  0.58819  0.92243  0.18482  1.0000 0.1100845924
H   H147      1.0  0.07757  0.66576  0.85148  1.0000 0.1100845924
H   H148      1.0  0.66576  0.58819  0.01815  1.0000 0.1100845924
H   H149      1.0  0.41181  0.07757  0.68482  1.0000 0.1100845924
H   H150      1.0  0.92243  0.33424  0.35148  1.0000 0.1100845924
H   H151      1.0  0.32972  0.32482  0.53294  1.0000 0.1100845924
H   H152      1.0  0.67518  0.00490  0.19961  1.0000 0.1100845924
H   H153      1.0  0.99510  0.67028  0.86627  1.0000 0.1100845924
H   H154      1.0  0.67028  0.67518  0.03294  1.0000 0.1100845924
H   H155      1.0  0.32482  0.99510  0.69961  1.0000 0.1100845924
H   H156      1.0  0.00490  0.32972  0.36627  1.0000 0.1100845924
H   H157      1.0  0.50113  0.50784  0.52729  1.0000 0.1035490509
H   H158      1.0  0.49216  0.99329  0.19396  1.0000 0.1035490509
H   H159      1.0  0.00671  0.49887  0.86062  1.0000 0.1035490509
H   H160      1.0  0.49887  0.49216  0.02729  1.0000 0.1035490509
H   H161      1.0  0.50784  0.00671  0.69396  1.0000 0.1035490509
H   H162      1.0  0.99329  0.50113  0.36062  1.0000 0.1035490509
H   H163      1.0  0.48328  0.41426  0.51333  1.0000 0.1035490509
H   H164      1.0  0.58574  0.06902  0.18000  1.0000 0.1035490509
H   H165      1.0  0.93098  0.51672  0.84666  1.0000 0.1035490509
H   H166      1.0  0.51672  0.58574  0.01333  1.0000 0.1035490509
H   H167      1.0  0.41426  0.93098  0.68000  1.0000 0.1035490509
H   H168      1.0  0.06902  0.48328  0.34666  1.0000 0.1035490509
H   H169      1.0  0.63491  0.54369  0.60516  1.0000 0.1203895752
H   H170      1.0  0.45631  0.09122  0.27183  1.0000 0.1203895752
H   H171      1.0  0.90878  0.36509  0.93849  1.0000 0.1203895752
H   H172      1.0  0.36509  0.45631  0.10516  1.0000 0.1203895752
H   H173      1.0  0.54369  0.90878  0.77183  1.0000 0.1203895752
H   H174      1.0  0.09122  0.63491  0.43849  1.0000 0.1203895752
H   H175      1.0  0.61497  0.95755  0.49922  1.0000 0.0895569714
H   H176      1.0  0.04245  0.65742  0.16589  1.0000 0.0895569714
H   H177      1.0  0.34258  0.38503  0.83255  1.0000 0.0895569714
H   H178      1.0  0.38503  0.04245  0.99922  1.0000 0.0895569714
H   H179      1.0  0.95755  0.34258  0.66589  1.0000 0.0895569714
H   H180      1.0  0.65742  0.61497  0.33255  1.0000 0.0895569714
H   H181      1.0  0.44182  0.96119  0.48939  1.0000 0.0895569714
H   H182      1.0  0.03881  0.48063  0.15606  1.0000 0.0895569714
H   H183      1.0  0.51937  0.55818  0.82272  1.0000 0.0895569714
H   H184      1.0  0.55818  0.03881  0.98939  1.0000 0.0895569714
H   H185      1.0  0.96119  0.51937  0.65606  1.0000 0.0895569714
H   H186      1.0  0.48063  0.44182  0.32272  1.0000 0.0895569714
H   H187      1.0  0.46048  0.82189  0.46904  1.0000 0.1203895752
H   H188      1.0  0.17811  0.63859  0.13571  1.0000 0.1203895752
H   H189      1.0  0.36141  0.53952  0.80237  1.0000 0.1203895752
H   H190      1.0  0.53952  0.17811  0.96904  1.0000 0.1203895752
H   H191      1.0  0.82189  0.36141  0.63571  1.0000 0.1203895752
H   H192      1.0  0.63859  0.46048  0.30237  1.0000 0.1203895752
H   H193      1.0  0.55201  0.81462  0.47584  1.0000 0.1296344927
H   H194      1.0  0.18538  0.73739  0.14251  1.0000 0.1296344927
H   H195      1.0  0.26261  0.44799  0.80917  1.0000 0.1296344927
H   H196      1.0  0.44799  0.18538  0.97584  1.0000 0.1296344927
H   H197      1.0  0.81462  0.26261  0.64251  1.0000 0.1296344927
H   H198      1.0  0.73739  0.55201  0.30917  1.0000 0.1296344927
H   H199      1.0  0.62820  0.09615  0.47173  1.0000 0.1203895752
H   H200      1.0  0.90385  0.53205  0.13840  1.0000 0.1203895752
H   H201      1.0  0.46795  0.37180  0.80506  1.0000 0.1203895752
H   H202      1.0  0.37180  0.90385  0.97173  1.0000 0.1203895752
H   H203      1.0  0.09615  0.46795  0.63840  1.0000 0.1203895752
H   H204      1.0  0.53205  0.62820  0.30506  1.0000 0.1203895752
H   H205      1.0  0.53337  0.09683  0.46509  1.0000 0.1203895752
H   H206      1.0  0.90317  0.43654  0.13176  1.0000 0.1203895752
H   H207      1.0  0.56346  0.46663  0.79842  1.0000 0.1203895752
H   H208      1.0  0.46663  0.90317  0.96509  1.0000 0.1203895752
H   H209      1.0  0.09683  0.56346  0.63176  1.0000 0.1203895752
H   H210      1.0  0.43654  0.53337  0.29842  1.0000 0.1203895752
H   H211      1.0  0.65136  0.95917  0.45356  1.0000 0.1100845924
H   H212      1.0  0.04083  0.69219  0.12023  1.0000 0.1100845924
H   H213      1.0  0.30781  0.34864  0.78689  1.0000 0.1100845924
H   H214      1.0  0.34864  0.04083  0.95356  1.0000 0.1100845924
H   H215      1.0  0.95917  0.30781  0.62023  1.0000 0.1100845924
H   H216      1.0  0.69219  0.65136  0.28689  1.0000 0.1100845924
H   H217      1.0  0.57209  0.88433  0.43544  1.0000 0.1100845924
H   H218      1.0  0.11567  0.68776  0.10211  1.0000 0.1100845924
H   H219      1.0  0.31224  0.42791  0.76877  1.0000 0.1100845924
H   H220      1.0  0.42791  0.11567  0.93544  1.0000 0.1100845924
H   H221      1.0  0.88433  0.31224  0.60211  1.0000 0.1100845924
H   H222      1.0  0.68776  0.57209  0.26877  1.0000 0.1100845924
H   H223      1.0  0.83726  0.60899  0.64318  1.0000 0.1296344927
H   H224      1.0  0.39101  0.22827  0.30985  1.0000 0.1296344927
H   H225      1.0  0.77173  0.16274  0.97651  1.0000 0.1296344927
H   H226      1.0  0.16274  0.39101  0.14318  1.0000 0.1296344927
H   H227      1.0  0.60899  0.77173  0.80985  1.0000 0.1296344927
H   H228      1.0  0.22827  0.83726  0.47651  1.0000 0.1296344927
H   H229      1.0  0.75267  0.63110  0.64131  1.0000 0.1401874924
H   H230      1.0  0.36890  0.12157  0.30798  1.0000 0.1401874924
H   H231      1.0  0.87843  0.24733  0.97464  1.0000 0.1401874924
H   H232      1.0  0.24733  0.36890  0.14131  1.0000 0.1401874924
H   H233      1.0  0.63110  0.87843  0.80798  1.0000 0.1401874924
H   H234      1.0  0.12157  0.75267  0.47464  1.0000 0.1401874924
H   H235      1.0  0.78444  0.61256  0.66747  1.0000 0.1496910325
H   H236      1.0  0.38744  0.17188  0.33414  1.0000 0.1496910325
H   H237      1.0  0.82812  0.21556  0.00080  1.0000 0.1496910325
H   H238      1.0  0.21556  0.38744  0.16747  1.0000 0.1496910325
H   H239      1.0  0.61256  0.82812  0.83414  1.0000 0.1496910325
H   H240      1.0  0.17188  0.78444  0.50080  1.0000 0.1496910325
H   H241      1.0  0.65957  0.24366  0.67361  1.0000 0.1100845924
H   H242      1.0  0.75634  0.41591  0.34028  1.0000 0.1100845924
H   H243      1.0  0.58409  0.34043  0.00694  1.0000 0.1100845924
H   H244      1.0  0.34043  0.75634  0.17361  1.0000 0.1100845924
H   H245      1.0  0.24366  0.58409  0.84028  1.0000 0.1100845924
H   H246      1.0  0.41591  0.65957  0.50694  1.0000 0.1100845924
H   H247      1.0  0.55504  0.22363  0.67855  1.0000 0.1203895752
H   H248      1.0  0.77637  0.33141  0.34522  1.0000 0.1203895752
H   H249      1.0  0.66859  0.44496  0.01188  1.0000 0.1203895752
H   H250      1.0  0.44496  0.77637  0.17855  1.0000 0.1203895752
H   H251      1.0  0.22363  0.66859  0.84522  1.0000 0.1203895752
H   H252      1.0  0.33141  0.55504  0.51188  1.0000 0.1203895752
H   H253      1.0  0.40927  0.03898  0.51806  1.0000 0.1203895752
H   H254      1.0  0.96102  0.37029  0.18473  1.0000 0.1203895752
H   H255      1.0  0.62971  0.59073  0.85139  1.0000 0.1203895752
H   H256      1.0  0.59073  0.96102  0.01806  1.0000 0.1203895752
H   H257      1.0  0.03898  0.62971  0.68473  1.0000 0.1203895752
H   H258      1.0  0.37029  0.40927  0.35139  1.0000 0.1203895752
H   H259      1.0  0.47896  0.95796  0.44102  1.0000 0.1035490509
H   H260      1.0  0.04204  0.52100  0.10769  1.0000 0.1035490509
H   H261      1.0  0.47900  0.52104  0.77435  1.0000 0.1035490509
H   H262      1.0  0.52104  0.04204  0.94102  1.0000 0.1035490509
H   H263      1.0  0.95796  0.47900  0.60769  1.0000 0.1035490509
H   H264      1.0  0.52100  0.47896  0.27435  1.0000 0.1035490509
H   H265      1.0  0.58156  0.03516  0.43149  1.0000 0.1035490509
H   H266      1.0  0.96484  0.54640  0.09816  1.0000 0.1035490509
H   H267      1.0  0.45360  0.41844  0.76482  1.0000 0.1035490509
H   H268      1.0  0.41844  0.96484  0.93149  1.0000 0.1035490509
H   H269      1.0  0.03516  0.45360  0.59816  1.0000 0.1035490509
H   H270      1.0  0.54640  0.58156  0.26482  1.0000 0.1035490509
H   H271      1.0  0.59537  0.17944  0.63210  1.0000 0.1203895752
H   H272      1.0  0.82056  0.41593  0.29877  1.0000 0.1203895752
H   H273      1.0  0.58407  0.40463  0.96543  1.0000 0.1203895752
H   H274      1.0  0.40463  0.82056  0.13210  1.0000 0.1203895752
H   H275      1.0  0.17944  0.58407  0.79877  1.0000 0.1203895752
H   H276      1.0  0.41593  0.59537  0.46543  1.0000 0.1203895752
H   H277      1.0  0.57808  0.10888  0.65433  1.0000 0.1203895752
H   H278      1.0  0.89112  0.46920  0.32100  1.0000 0.1203895752
H   H279      1.0  0.53080  0.42192  0.98766  1.0000 0.1203895752
H   H280      1.0  0.42192  0.89112  0.15433  1.0000 0.1203895752
H   H281      1.0  0.10888  0.53080  0.82100  1.0000 0.1203895752
H   H282      1.0  0.46920  0.57808  0.48766  1.0000 0.1203895752
H   H283      1.0  0.49671  0.13047  0.64634  1.0000 0.1203895752
H   H284      1.0  0.86953  0.36624  0.31301  1.0000 0.1203895752
H   H285      1.0  0.63376  0.50329  0.97967  1.0000 0.1203895752
H   H286      1.0  0.50329  0.86953  0.14634  1.0000 0.1203895752
H   H287      1.0  0.13047  0.63376  0.81301  1.0000 0.1203895752
H   H288      1.0  0.36624  0.49671  0.47967  1.0000 0.1203895752
H   H289      1.0  0.72976  0.25734  0.58749  1.0000 0.1203895752
H   H290      1.0  0.74266  0.47242  0.25416  1.0000 0.1203895752
H   H291      1.0  0.52758  0.27024  0.92082  1.0000 0.1203895752
H   H292      1.0  0.27024  0.74266  0.08749  1.0000 0.1203895752
H   H293      1.0  0.25734  0.52758  0.75416  1.0000 0.1203895752
H   H294      1.0  0.47242  0.72976  0.42082  1.0000 0.1203895752
H   H295      1.0  0.67778  0.29692  0.60456  1.0000 0.1100845924
H   H296      1.0  0.70308  0.38086  0.27123  1.0000 0.1100845924
H   H297      1.0  0.61914  0.32222  0.93789  1.0000 0.1100845924
H   H298      1.0  0.32222  0.70308  0.10456  1.0000 0.1100845924
H   H299      1.0  0.29692  0.61914  0.77123  1.0000 0.1100845924
H   H300      1.0  0.38086  0.67778  0.43789  1.0000 0.1100845924
H   H301      1.0  0.31962  0.10842  0.57973  1.0000 0.1496910325
H   H302      1.0  0.89158  0.21120  0.24640  1.0000 0.1496910325
H   H303      1.0  0.78880  0.68038  0.91306  1.0000 0.1496910325
H   H304      1.0  0.68038  0.89158  0.07973  1.0000 0.1496910325
H   H305      1.0  0.10842  0.78880  0.74640  1.0000 0.1496910325
H   H306      1.0  0.21120  0.31962  0.41306  1.0000 0.1496910325
H   H307      1.0  0.30860  0.06199  0.55328  1.0000 0.1496910325
H   H308      1.0  0.93801  0.24661  0.21995  1.0000 0.1496910325
H   H309      1.0  0.75339  0.69140  0.88661  1.0000 0.1496910325
H   H310      1.0  0.69140  0.93801  0.05328  1.0000 0.1496910325
H   H311      1.0  0.06199  0.75339  0.71995  1.0000 0.1496910325
H   H312      1.0  0.24661  0.30860  0.38661  1.0000 0.1496910325
H   H313      1.0  0.33317  0.16936  0.55559  1.0000 0.1203895752
H   H314      1.0  0.83064  0.16381  0.22226  1.0000 0.1203895752
H   H315      1.0  0.83619  0.66683  0.88892  1.0000 0.1203895752
H   H316      1.0  0.66683  0.83064  0.05559  1.0000 0.1203895752
H   H317      1.0  0.16936  0.83619  0.72226  1.0000 0.1203895752
H   H318      1.0  0.16381  0.33317  0.38892  1.0000 0.1203895752
H   H319      1.0  0.77731  0.38042  0.56001  1.0000 0.1296344927
H   H320      1.0  0.61958  0.39689  0.22668  1.0000 0.1296344927
H   H321      1.0  0.60311  0.22269  0.89334  1.0000 0.1296344927
H   H322      1.0  0.22269  0.61958  0.06001  1.0000 0.1296344927
H   H323      1.0  0.38042  0.60311  0.72668  1.0000 0.1296344927
H   H324      1.0  0.39689  0.77731  0.39334  1.0000 0.1296344927
H   H325      1.0  0.79723  0.42997  0.58630  1.0000 0.1203895752
H   H326      1.0  0.57003  0.36726  0.25297  1.0000 0.1203895752
H   H327      1.0  0.63274  0.20277  0.91963  1.0000 0.1203895752
H   H328      1.0  0.20277  0.57003  0.08630  1.0000 0.1203895752
H   H329      1.0  0.42997  0.63274  0.75297  1.0000 0.1203895752
H   H330      1.0  0.36726  0.79723  0.41963  1.0000 0.1203895752
H   H331      1.0  0.70565  0.41044  0.57109  1.0000 0.1203895752
H   H332      1.0  0.58956  0.29521  0.23776  1.0000 0.1203895752
H   H333      1.0  0.70479  0.29435  0.90442  1.0000 0.1203895752
H   H334      1.0  0.29435  0.58956  0.07109  1.0000 0.1203895752
H   H335      1.0  0.41044  0.70479  0.73776  1.0000 0.1203895752
H   H336      1.0  0.29521  0.70565  0.40442  1.0000 0.1203895752
C   C1        1.0  0.36830  0.67320  0.57385  1.0000 0.3381323686
C   C2        1.0  0.32680  0.69510  0.24052  1.0000 0.3381323686
C   C3        1.0  0.30490  0.63170  0.90718  1.0000 0.3381323686
C   C4        1.0  0.63170  0.32680  0.07385  1.0000 0.3381323686
C   C5        1.0  0.67320  0.30490  0.74052  1.0000 0.3381323686
C   C6        1.0  0.69510  0.36830  0.40718  1.0000 0.3381323686
C   C7        1.0  0.52590  0.74160  0.57214  1.0000 0.1880006099
C   C8        1.0  0.25840  0.78430  0.23881  1.0000 0.1880006099
C   C9        1.0  0.21570  0.47410  0.90547  1.0000 0.1880006099
C   C10       1.0  0.47410  0.25840  0.07214  1.0000 0.1880006099
C   C11       1.0  0.74160  0.21570  0.73881  1.0000 0.1880006099
C   C12       1.0  0.78430  0.52590  0.40547  1.0000 0.1880006099
C   C13       1.0  0.29680  0.55860  0.65959  1.0000 0.3381323686
C   C14       1.0  0.44140  0.73820  0.32626  1.0000 0.3381323686
C   C15       1.0  0.26180  0.70320  0.99292  1.0000 0.3381323686
C   C16       1.0  0.70320  0.44140  0.15959  1.0000 0.3381323686
C   C17       1.0  0.55860  0.26180  0.82626  1.0000 0.3381323686
C   C18       1.0  0.73820  0.29680  0.49292  1.0000 0.3381323686
C   C19       1.0  0.27890  0.43990  0.63661  1.0000 0.0279152686
C   C20       1.0  0.56010  0.83900  0.30328  1.0000 0.0279152686
C   C21       1.0  0.16100  0.72110  0.96994  1.0000 0.0279152686
C   C22       1.0  0.72110  0.56010  0.13661  1.0000 0.0279152686
C   C23       1.0  0.43990  0.16100  0.80328  1.0000 0.0279152686
C   C24       1.0  0.83900  0.27890  0.46994  1.0000 0.0279152686
C   C25       1.0  0.30270  0.39780  0.61556  1.0000 0.0594987361
C   C26       1.0  0.60220  0.90490  0.28223  1.0000 0.0594987361
C   C27       1.0  0.09510  0.69730  0.94889  1.0000 0.0594987361
C   C28       1.0  0.69730  0.60220  0.11556  1.0000 0.0594987361
C   C29       1.0  0.39780  0.09510  0.78223  1.0000 0.0594987361
C   C30       1.0  0.90490  0.30270  0.44889  1.0000 0.0594987361
C   C31       1.0  0.38960  0.41250  0.57854  1.0000 0.0494956251
C   C32       1.0  0.58750  0.97710  0.24521  1.0000 0.0594987361
C   C33       1.0  0.02290  0.61040  0.91187  1.0000 0.0594987361
C   C34       1.0  0.61040  0.58750  0.07854  1.0000 0.0594987361
C   C35       1.0  0.41250  0.02290  0.74521  1.0000 0.0494956251
C   C36       1.0  0.97710  0.38960  0.41187  1.0000 0.0594987361
C   C37       1.0  0.26650  0.61020  0.58217  1.0000 -0.239438728
C   C38       1.0  0.38980  0.65630  0.24884  1.0000 -0.239438728
C   C39       1.0  0.34370  0.73350  0.91550  1.0000 -0.239438728
C   C40       1.0  0.73350  0.38980  0.08217  1.0000 -0.239438728
C   C41       1.0  0.61020  0.34370  0.74884  1.0000 -0.239438728
C   C42       1.0  0.65630  0.26650  0.41550  1.0000 -0.239438728
C   C43       1.0  0.49330  0.77440  0.55261  1.0000 0.0279152686
C   C44       1.0  0.22560  0.71890  0.21928  1.0000 0.0279152686
C   C45       1.0  0.28110  0.50670  0.88594  1.0000 0.0279152686
C   C46       1.0  0.50670  0.22560  0.05261  1.0000 0.0279152686
C   C47       1.0  0.77440  0.28110  0.71928  1.0000 0.0279152686
C   C48       1.0  0.71890  0.49330  0.38594  1.0000 0.0279152686
C   C49       1.0  0.62650  0.76510  0.57815  1.0000 -0.4509315635
C   C50       1.0  0.23490  0.86140  0.24482  1.0000 -0.4509315635
C   C51       1.0  0.13860  0.37350  0.91148  1.0000 -0.4509315635
C   C52       1.0  0.37350  0.23490  0.07815  1.0000 -0.4509315635
C   C53       1.0  0.76510  0.13860  0.74482  1.0000 -0.4509315635
C   C54       1.0  0.86140  0.62650  0.41148  1.0000 -0.4509315635
C   C55       1.0  0.33150  0.65670  0.66940  1.0000 -0.239438728
C   C56       1.0  0.34330  0.67480  0.33607  1.0000 -0.239438728
C   C57       1.0  0.32520  0.66850  0.00273  1.0000 -0.239438728
C   C58       1.0  0.66850  0.34330  0.16940  1.0000 -0.239438728
C   C59       1.0  0.65670  0.32520  0.83607  1.0000 -0.239438728
C   C60       1.0  0.67480  0.33150  0.50273  1.0000 -0.239438728
C   C61       1.0  0.21620  0.40080  0.65629  1.0000 0.1817857056
C   C62       1.0  0.59920  0.81540  0.32296  1.0000 0.1817857056
C   C63       1.0  0.18460  0.78380  0.98962  1.0000 0.1817857056
C   C64       1.0  0.78380  0.59920  0.15629  1.0000 0.1817857056
C   C65       1.0  0.40080  0.18460  0.82296  1.0000 0.1817857056
C   C66       1.0  0.81540  0.21620  0.48962  1.0000 0.1817857056
C   C67       1.0  0.49610  0.44980  0.57513  1.0000 0.0594987361
C   C68       1.0  0.55020  0.04630  0.24180  1.0000 0.0594987361
C   C69       1.0  0.95370  0.50390  0.90846  1.0000 0.0594987361
C   C70       1.0  0.50390  0.55020  0.07513  1.0000 0.0594987361
C   C71       1.0  0.44980  0.95370  0.74180  1.0000 0.0594987361
C   C72       1.0  0.04630  0.49610  0.40846  1.0000 0.0594987361
C   C73       1.0  0.34440  0.43380  0.55634  1.0000 -0.2268446705
C   C74       1.0  0.56620  0.91060  0.22301  1.0000 -0.2268446705
C   C75       1.0  0.08940  0.65560  0.88967  1.0000 -0.2268446705
C   C76       1.0  0.65560  0.56620  0.05634  1.0000 -0.2268446705
C   C77       1.0  0.43380  0.08940  0.72301  1.0000 -0.2268446705
C   C78       1.0  0.91060  0.34440  0.38967  1.0000 -0.2268446705
C   C79       1.0  0.19640  0.58090  0.56100  1.0000 -0.3501608032
C   C80       1.0  0.41910  0.61550  0.22767  1.0000 -0.3501608032
C   C81       1.0  0.38450  0.80360  0.89433  1.0000 -0.3501608032
C   C82       1.0  0.80360  0.41910  0.06100  1.0000 -0.3501608032
C   C83       1.0  0.58090  0.38450  0.72767  1.0000 -0.3501608032
C   C84       1.0  0.61550  0.19640  0.39433  1.0000 -0.3501608032
C   C85       1.0  0.54340  0.84130  0.53304  1.0000 0.0494956251
C   C86       1.0  0.15870  0.70210  0.19971  1.0000 0.0494956251
C   C87       1.0  0.29790  0.45660  0.86637  1.0000 0.0494956251
C   C88       1.0  0.45660  0.15870  0.03304  1.0000 0.0494956251
C   C89       1.0  0.84130  0.29790  0.69971  1.0000 0.0494956251
C   C90       1.0  0.70210  0.54340  0.36637  1.0000 0.0494956251
C   C91       1.0  0.31660  0.71930  0.65280  1.0000 -0.3501608032
C   C92       1.0  0.28070  0.59730  0.31947  1.0000 -0.3501608032
C   C93       1.0  0.40270  0.68340  0.98613  1.0000 -0.3501608032
C   C94       1.0  0.68340  0.28070  0.15280  1.0000 -0.3501608032
C   C95       1.0  0.71930  0.40270  0.81947  1.0000 -0.3501608032
C   C96       1.0  0.59730  0.31660  0.48613  1.0000 -0.3501608032
C   C97       1.0  0.15120  0.29770  0.66219  1.0000 -0.4509315635
C   C98       1.0  0.70230  0.85350  0.32886  1.0000 -0.4509315635
C   C99       1.0  0.14650  0.84880  0.99552  1.0000 -0.4509315635
C   C100      1.0  0.84880  0.70230  0.16219  1.0000 -0.4509315635
C   C101      1.0  0.29770  0.14650  0.82886  1.0000 -0.4509315635
C   C102      1.0  0.85350  0.15120  0.49552  1.0000 -0.4509315635
C   C103      1.0  0.51520  0.41390  0.55032  1.0000 -0.239438728
C   C104      1.0  0.58610  0.10130  0.21699  1.0000 -0.239438728
C   C105      1.0  0.89870  0.48480  0.88365  1.0000 -0.239438728
C   C106      1.0  0.48480  0.58610  0.05032  1.0000 -0.239438728
C   C107      1.0  0.41390  0.89870  0.71699  1.0000 -0.239438728
C   C108      1.0  0.10130  0.51520  0.38365  1.0000 -0.239438728
C   C109      1.0  0.36100  0.39450  0.53215  1.0000 -0.1605164218
C   C110      1.0  0.60550  0.96650  0.19882  1.0000 -0.1605164218
C   C111      1.0  0.03350  0.63900  0.86548  1.0000 -0.1605164218
C   C112      1.0  0.63900  0.60550  0.03215  1.0000 -0.1605164218
C   C113      1.0  0.39450  0.03350  0.69882  1.0000 -0.1605164218
C   C114      1.0  0.96650  0.36100  0.36548  1.0000 -0.1605164218
C   C115      1.0  0.47110  0.43850  0.52870  1.0000 -0.1605164218
C   C116      1.0  0.56150  0.03260  0.19537  1.0000 -0.1605164218
C   C117      1.0  0.96740  0.52890  0.86203  1.0000 -0.1605164218
C   C118      1.0  0.52890  0.56150  0.02870  1.0000 -0.1605164218
C   C119      1.0  0.43850  0.96740  0.69537  1.0000 -0.1605164218
C   C120      1.0  0.03260  0.47110  0.36203  1.0000 -0.1605164218
C   C121      1.0  0.60380  0.47840  0.60896  1.0000 0.0594987361
C   C122      1.0  0.52160  0.12540  0.27563  1.0000 0.0594987361
C   C123      1.0  0.87460  0.39620  0.94229  1.0000 0.0594987361
C   C124      1.0  0.39620  0.52160  0.10896  1.0000 0.0594987361
C   C125      1.0  0.47840  0.87460  0.77563  1.0000 0.0594987361
C   C126      1.0  0.12540  0.60380  0.44229  1.0000 0.0594987361
C   C127      1.0  0.54580  0.92230  0.49559  1.0000 0.0594987361
C   C128      1.0  0.07770  0.62350  0.16226  1.0000 0.0594987361
C   C129      1.0  0.37650  0.45420  0.82892  1.0000 0.0594987361
C   C130      1.0  0.45420  0.07770  0.99559  1.0000 0.0594987361
C   C131      1.0  0.92230  0.37650  0.66226  1.0000 0.0594987361
C   C132      1.0  0.62350  0.54580  0.32892  1.0000 0.0594987361
C   C133      1.0  0.63580  0.44390  0.62925  1.0000 0.0279152686
C   C134      1.0  0.55610  0.19190  0.29592  1.0000 0.0279152686
C   C135      1.0  0.80810  0.36420  0.96258  1.0000 0.0279152686
C   C136      1.0  0.36420  0.55610  0.12925  1.0000 0.0279152686
C   C137      1.0  0.44390  0.80810  0.79592  1.0000 0.0279152686
C   C138      1.0  0.19190  0.63580  0.46258  1.0000 0.0279152686
C   C139      1.0  0.51180  0.99580  0.49176  1.0000 0.0594987361
C   C140      1.0  0.00420  0.51600  0.15843  1.0000 0.0594987361
C   C141      1.0  0.48400  0.48820  0.82509  1.0000 0.0594987361
C   C142      1.0  0.48820  0.00420  0.99176  1.0000 0.0594987361
C   C143      1.0  0.99580  0.48400  0.65843  1.0000 0.0594987361
C   C144      1.0  0.51600  0.51180  0.32509  1.0000 0.0594987361
C   C145      1.0  0.52880  0.85910  0.47265  1.0000 -0.2268446705
C   C146      1.0  0.14090  0.66970  0.13932  1.0000 -0.2268446705
C   C147      1.0  0.33030  0.47120  0.80598  1.0000 -0.2268446705
C   C148      1.0  0.47120  0.14090  0.97265  1.0000 -0.2268446705
C   C149      1.0  0.85910  0.33030  0.63932  1.0000 -0.2268446705
C   C150      1.0  0.66970  0.52880  0.30598  1.0000 -0.2268446705
C   C151      1.0  0.70620  0.49000  0.64759  1.0000 0.2089486474
C   C152      1.0  0.51000  0.21620  0.31426  1.0000 0.2089486474
C   C153      1.0  0.78380  0.29380  0.98092  1.0000 0.2089486474
C   C154      1.0  0.29380  0.51000  0.14759  1.0000 0.2089486474
C   C155      1.0  0.49000  0.78380  0.81426  1.0000 0.2089486474
C   C156      1.0  0.21620  0.70620  0.48092  1.0000 0.2089486474
C   C157      1.0  0.62920  0.33480  0.65443  1.0000 0.3381323686
C   C158      1.0  0.66520  0.29440  0.32110  1.0000 0.3381323686
C   C159      1.0  0.70560  0.37080  0.98776  1.0000 0.3381323686
C   C160      1.0  0.37080  0.66520  0.15443  1.0000 0.3381323686
C   C161      1.0  0.33480  0.70560  0.82110  1.0000 0.3381323686
C   C162      1.0  0.29440  0.62920  0.48776  1.0000 0.3381323686
C   C163      1.0  0.55990  0.05530  0.46851  1.0000 -0.239438728
C   C164      1.0  0.94470  0.50460  0.13518  1.0000 -0.239438728
C   C165      1.0  0.49540  0.44010  0.80184  1.0000 -0.239438728
C   C166      1.0  0.44010  0.94470  0.96851  1.0000 -0.239438728
C   C167      1.0  0.05530  0.49540  0.63518  1.0000 -0.239438728
C   C168      1.0  0.50460  0.55990  0.30184  1.0000 -0.239438728
C   C169      1.0  0.58280  0.92380  0.45016  1.0000 -0.1605164218
C   C170      1.0  0.07620  0.65900  0.11683  1.0000 -0.1605164218
C   C171      1.0  0.34100  0.41720  0.78349  1.0000 -0.1605164218
C   C172      1.0  0.41720  0.07620  0.95016  1.0000 -0.1605164218
C   C173      1.0  0.92380  0.34100  0.61683  1.0000 -0.1605164218
C   C174      1.0  0.65900  0.58280  0.28349  1.0000 -0.1605164218
C   C175      1.0  0.77640  0.59500  0.65012  1.0000 -0.4646320537
C   C176      1.0  0.40500  0.18140  0.31679  1.0000 -0.4646320537
C   C177      1.0  0.81860  0.22360  0.98345  1.0000 -0.4646320537
C   C178      1.0  0.22360  0.40500  0.15012  1.0000 -0.4646320537
C   C179      1.0  0.59500  0.81860  0.81679  1.0000 -0.4646320537
C   C180      1.0  0.18140  0.77640  0.48345  1.0000 -0.4646320537
C   C181      1.0  0.60280  0.23830  0.66562  1.0000 -0.239438728
C   C182      1.0  0.76170  0.36450  0.33229  1.0000 -0.239438728
C   C183      1.0  0.63550  0.39720  0.99895  1.0000 -0.239438728
C   C184      1.0  0.39720  0.76170  0.16562  1.0000 -0.239438728
C   C185      1.0  0.23830  0.63550  0.83229  1.0000 -0.239438728
C   C186      1.0  0.36450  0.60280  0.49895  1.0000 -0.239438728
C   C187      1.0  0.47170  0.06900  0.52433  1.0000 0.0594987361
C   C188      1.0  0.93100  0.40270  0.19100  1.0000 0.0594987361
C   C189      1.0  0.59730  0.52830  0.85766  1.0000 0.0594987361
C   C190      1.0  0.52830  0.93100  0.02433  1.0000 0.0594987361
C   C191      1.0  0.06900  0.59730  0.69100  1.0000 0.0594987361
C   C192      1.0  0.40270  0.47170  0.35766  1.0000 0.0594987361
C   C193      1.0  0.54670  0.99370  0.44544  1.0000 -0.1605164218
C   C194      1.0  0.00630  0.55300  0.11211  1.0000 -0.1605164218
C   C195      1.0  0.44700  0.45330  0.77877  1.0000 -0.1605164218
C   C196      1.0  0.45330  0.00630  0.94544  1.0000 -0.1605164218
C   C197      1.0  0.99370  0.44700  0.61211  1.0000 -0.1605164218
C   C198      1.0  0.55300  0.54670  0.27877  1.0000 -0.1605164218
C   C199      1.0  0.56500  0.15730  0.64809  1.0000 -0.3501608032
C   C200      1.0  0.84270  0.40770  0.31476  1.0000 -0.3501608032
C   C201      1.0  0.59230  0.43500  0.98142  1.0000 -0.3501608032
C   C202      1.0  0.43500  0.84270  0.14809  1.0000 -0.3501608032
C   C203      1.0  0.15730  0.59230  0.81476  1.0000 -0.3501608032
C   C204      1.0  0.40770  0.56500  0.48142  1.0000 -0.3501608032
C   C205      1.0  0.49730  0.12970  0.54588  1.0000 0.0212493034
C   C206      1.0  0.87030  0.36760  0.21255  1.0000 0.0212493034
C   C207      1.0  0.63240  0.50270  0.87921  1.0000 0.0212493034
C   C208      1.0  0.50270  0.87030  0.04588  1.0000 0.0212493034
C   C209      1.0  0.12970  0.63240  0.71255  1.0000 0.0212493034
C   C210      1.0  0.36760  0.49730  0.37921  1.0000 0.0212493034
C   C211      1.0  0.59810  0.22530  0.57398  1.0000 0.3531225825
C   C212      1.0  0.77470  0.37280  0.24065  1.0000 0.3531225825
C   C213      1.0  0.62720  0.40190  0.90731  1.0000 0.3531225825
C   C214      1.0  0.40190  0.77470  0.07398  1.0000 0.3531225825
C   C215      1.0  0.22530  0.62720  0.74065  1.0000 0.3531225825
C   C216      1.0  0.37280  0.59810  0.40731  1.0000 0.3531225825
C   C217      1.0  0.44570  0.15170  0.56272  1.0000 0.1817857056
C   C218      1.0  0.84830  0.29400  0.22939  1.0000 0.1817857056
C   C219      1.0  0.70600  0.55430  0.89605  1.0000 0.1817857056
C   C220      1.0  0.55430  0.84830  0.06272  1.0000 0.1817857056
C   C221      1.0  0.15170  0.70600  0.72939  1.0000 0.1817857056
C   C222      1.0  0.29400  0.44570  0.39605  1.0000 0.1817857056
C   C223      1.0  0.69130  0.28860  0.58735  1.0000 -0.239438728
C   C224      1.0  0.71140  0.40270  0.25402  1.0000 -0.239438728
C   C225      1.0  0.59730  0.30870  0.92068  1.0000 -0.239438728
C   C226      1.0  0.30870  0.71140  0.08735  1.0000 -0.239438728
C   C227      1.0  0.28860  0.59730  0.75402  1.0000 -0.239438728
C   C228      1.0  0.40270  0.69130  0.42068  1.0000 -0.239438728
C   C229      1.0  0.34290  0.12010  0.56284  1.0000 -0.4698829448
C   C230      1.0  0.87990  0.22280  0.22951  1.0000 -0.4698829448
C   C231      1.0  0.77720  0.65710  0.89617  1.0000 -0.4698829448
C   C232      1.0  0.65710  0.87990  0.06284  1.0000 -0.4698829448
C   C233      1.0  0.12010  0.77720  0.72951  1.0000 -0.4698829448
C   C234      1.0  0.22280  0.34290  0.39617  1.0000 -0.4698829448
C   C235      1.0  0.74810  0.38630  0.57507  1.0000 -0.3590625272
C   C236      1.0  0.61370  0.36180  0.24174  1.0000 -0.3590625272
C   C237      1.0  0.63820  0.25190  0.90840  1.0000 -0.3590625272
C   C238      1.0  0.25190  0.61370  0.07507  1.0000 -0.3590625272
C   C239      1.0  0.38630  0.63820  0.74174  1.0000 -0.3590625272
C   C240      1.0  0.36180  0.74810  0.40840  1.0000 -0.3590625272
Br  Br1       1.0  0.57941  0.65814  0.63899  1.0000 -0.5111319667
Br  Br2       1.0  0.34186  0.92127  0.30566  1.0000 -0.5111319667
Br  Br3       1.0  0.07873  0.42059  0.97232  1.0000 -0.5111319667
Br  Br4       1.0  0.42059  0.34186  0.13899  1.0000 -0.5111319667
Br  Br5       1.0  0.65814  0.07873  0.80566  1.0000 -0.5111319667
Br  Br6       1.0  0.92127  0.57941  0.47232  1.0000 -0.5111319667
Br  Br7       1.0  0.06837  0.33084  0.72281  1.0000 -0.5321995016
Br  Br8       1.0  0.66916  0.73753  0.38948  1.0000 -0.5321995016
Br  Br9       1.0  0.26247  0.93163  0.05614  1.0000 -0.5321995016
Br  Br10      1.0  0.93163  0.66916  0.22281  1.0000 -0.5321995016
Br  Br11      1.0  0.33084  0.26247  0.88948  1.0000 -0.5321995016
Br  Br12      1.0  0.73753  0.06837  0.55614  1.0000 -0.5321995016
Br  Br13      1.0  0.86031  0.59061  0.71139  1.0000 -0.5111319667
Br  Br14      1.0  0.40939  0.26970  0.37806  1.0000 -0.5111319667
Br  Br15      1.0  0.73030  0.13969  0.04472  1.0000 -0.5111319667
Br  Br16      1.0  0.13969  0.40939  0.21139  1.0000 -0.5111319667
Br  Br17      1.0  0.59061  0.73030  0.87806  1.0000 -0.5111319667
Br  Br18      1.0  0.26970  0.86031  0.54472  1.0000 -0.5111319667
Br  Br19      1.0  0.33024  0.18905  0.62674  1.0000 -0.5482635593
Br  Br20      1.0  0.81095  0.14119  0.29341  1.0000 -0.5482635593
Br  Br21      1.0  0.85881  0.66976  0.96007  1.0000 -0.5482635593
Br  Br22      1.0  0.66976  0.81095  0.12674  1.0000 -0.5482635593
Br  Br23      1.0  0.18905  0.85881  0.79341  1.0000 -0.5482635593
Br  Br24      1.0  0.14119  0.33024  0.46007  1.0000 -0.5482635593
N   N1        1.0  0.44520  0.67760  0.58544  1.0000 -0.4109165763
N   N2        1.0  0.32240  0.76760  0.25211  1.0000 -0.4109165763
N   N3        1.0  0.23240  0.55480  0.91877  1.0000 -0.4109165763
N   N4        1.0  0.55480  0.32240  0.08544  1.0000 -0.4109165763
N   N5        1.0  0.67760  0.23240  0.75211  1.0000 -0.4109165763
N   N6        1.0  0.76760  0.44520  0.41877  1.0000 -0.4109165763
N   N7        1.0  0.32710  0.53780  0.63889  1.0000 -0.3436875041
N   N8        1.0  0.46220  0.78930  0.30556  1.0000 -0.3436875041
N   N9        1.0  0.21070  0.67290  0.97222  1.0000 -0.3436875041
N   N10       1.0  0.67290  0.46220  0.13889  1.0000 -0.3436875041
N   N11       1.0  0.53780  0.21070  0.80556  1.0000 -0.3436875041
N   N12       1.0  0.78930  0.32710  0.47222  1.0000 -0.3436875041
N   N13       1.0  0.37220  0.45300  0.60139  1.0000 -0.239438728
N   N14       1.0  0.54700  0.91920  0.26806  1.0000 -0.239438728
N   N15       1.0  0.08080  0.62780  0.93472  1.0000 -0.239438728
N   N16       1.0  0.62780  0.54700  0.10139  1.0000 -0.239438728
N   N17       1.0  0.45300  0.08080  0.76806  1.0000 -0.239438728
N   N18       1.0  0.91920  0.37220  0.43472  1.0000 -0.239438728
N   N19       1.0  0.39470  0.73030  0.55405  1.0000 -0.3501608032
N   N20       1.0  0.26970  0.66440  0.22072  1.0000 -0.3501608032
N   N21       1.0  0.33560  0.60530  0.88738  1.0000 -0.3501608032
N   N22       1.0  0.60530  0.26970  0.05405  1.0000 -0.3501608032
N   N23       1.0  0.73030  0.33560  0.72072  1.0000 -0.3501608032
N   N24       1.0  0.66440  0.39470  0.38738  1.0000 -0.3501608032
N   N25       1.0  0.22850  0.47590  0.67094  1.0000 -0.4026722805
N   N26       1.0  0.52410  0.75260  0.33761  1.0000 -0.4026722805
N   N27       1.0  0.24740  0.77150  0.00427  1.0000 -0.4026722805
N   N28       1.0  0.77150  0.52410  0.17094  1.0000 -0.4026722805
N   N29       1.0  0.47590  0.24740  0.83761  1.0000 -0.4026722805
N   N30       1.0  0.75260  0.22850  0.50427  1.0000 -0.4026722805
N   N31       1.0  0.53170  0.41810  0.59610  1.0000 -0.2470031687
N   N32       1.0  0.58190  0.11360  0.26277  1.0000 -0.2470031687
N   N33       1.0  0.88640  0.46830  0.92943  1.0000 -0.2470031687
N   N34       1.0  0.46830  0.58190  0.09610  1.0000 -0.2470031687
N   N35       1.0  0.41810  0.88640  0.76277  1.0000 -0.2470031687
N   N36       1.0  0.11360  0.53170  0.42943  1.0000 -0.2470031687
N   N37       1.0  0.49510  0.86060  0.51724  1.0000 -0.2470031687
N   N38       1.0  0.13940  0.63450  0.18391  1.0000 -0.2470031687
N   N39       1.0  0.36550  0.50490  0.85057  1.0000 -0.2470031687
N   N40       1.0  0.50490  0.13940  0.01724  1.0000 -0.2470031687
N   N41       1.0  0.86060  0.36550  0.68391  1.0000 -0.2470031687
N   N42       1.0  0.63450  0.49510  0.35057  1.0000 -0.2470031687
N   N43       1.0  0.05730  0.52140  0.68070  1.0000 -0.239438728
N   N44       1.0  0.47860  0.53590  0.34737  1.0000 -0.239438728
N   N45       1.0  0.46410  0.94270  0.01403  1.0000 -0.239438728
N   N46       1.0  0.94270  0.47860  0.18070  1.0000 -0.239438728
N   N47       1.0  0.52140  0.46410  0.84737  1.0000 -0.239438728
N   N48       1.0  0.53590  0.05730  0.51403  1.0000 -0.239438728
N   N49       1.0  0.17710  0.58370  0.71998  1.0000 -0.3590625272
N   N50       1.0  0.41630  0.59340  0.38665  1.0000 -0.3590625272
N   N51       1.0  0.40660  0.82290  0.05331  1.0000 -0.3590625272
N   N52       1.0  0.82290  0.41630  0.21998  1.0000 -0.3590625272
N   N53       1.0  0.58370  0.40660  0.88665  1.0000 -0.3590625272
N   N54       1.0  0.59340  0.17710  0.55331  1.0000 -0.3590625272
N   N55       1.0  0.58880  0.34550  0.63420  1.0000 -0.3590625272
N   N56       1.0  0.65450  0.24330  0.30087  1.0000 -0.3590625272
N   N57       1.0  0.75670  0.41120  0.96753  1.0000 -0.3590625272
N   N58       1.0  0.41120  0.65450  0.13420  1.0000 -0.3590625272
N   N59       1.0  0.34550  0.75670  0.80087  1.0000 -0.3590625272
N   N60       1.0  0.24330  0.58880  0.46753  1.0000 -0.3590625272
N   N61       1.0  0.70140  0.42130  0.66319  1.0000 -0.4026722805
N   N62       1.0  0.57870  0.28010  0.32986  1.0000 -0.4026722805
N   N63       1.0  0.71990  0.29860  0.99652  1.0000 -0.4026722805
N   N64       1.0  0.29860  0.57870  0.16319  1.0000 -0.4026722805
N   N65       1.0  0.42130  0.71990  0.82986  1.0000 -0.4026722805
N   N66       1.0  0.28010  0.70140  0.49652  1.0000 -0.4026722805
N   N67       1.0  0.51070  0.21180  0.58061  1.0000 -0.4026722805
N   N68       1.0  0.78820  0.29890  0.24728  1.0000 -0.4026722805
N   N69       1.0  0.70110  0.48930  0.91394  1.0000 -0.4026722805
N   N70       1.0  0.48930  0.78820  0.08061  1.0000 -0.4026722805
N   N71       1.0  0.21180  0.70110  0.74728  1.0000 -0.4026722805
N   N72       1.0  0.29890  0.51070  0.41394  1.0000 -0.4026722805
