# DDEC6 charges by PACMAN v1.1 (https://github.com/mtap-research/PACMAN-charge/)
data_2023[Zn][eta]3[FSR]3
_chemical_formula_sum              "Zn24 H336 C240 Br24 N72"
_cell_length_a       15.8568
_cell_length_b       15.8568
_cell_length_c       53.8336
_cell_angle_alpha    90
_cell_angle_beta     90
_cell_angle_gamma    120

_symmetry_space_group_name_H-M    "P 1"
_symmetry_Int_Tables_number       1

loop_
  _symmetry_equiv_pos_as_xyz
  'x, y, z'

loop_
  _atom_site_type_symbol
  _atom_site_label
  _atom_site_symmetry_multiplicity
  _atom_site_fract_x
  _atom_site_fract_y
  _atom_site_fract_z
  _atom_site_occupancy
  _atom_site_charge
Zn  Zn1       1.0  0.65140  0.21559  0.38461  1.0000 0.6078941958
Zn  Zn2       1.0  0.78441  0.43581  0.71794  1.0000 0.6078941958
Zn  Zn3       1.0  0.56419  0.34860  0.05128  1.0000 0.6078941958
Zn  Zn4       1.0  0.34860  0.78441  0.88461  1.0000 0.6078941958
Zn  Zn5       1.0  0.21559  0.56419  0.21794  1.0000 0.6078941958
Zn  Zn6       1.0  0.43581  0.65140  0.55128  1.0000 0.6078941958
Zn  Zn7       1.0  0.15859  0.56206  0.46274  1.0000 0.6078941958
Zn  Zn8       1.0  0.43794  0.59653  0.79607  1.0000 0.6078941958
Zn  Zn9       1.0  0.40347  0.84141  0.12941  1.0000 0.6078941958
Zn  Zn10      1.0  0.84141  0.43794  0.96274  1.0000 0.6078941958
Zn  Zn11      1.0  0.56206  0.40347  0.29607  1.0000 0.6078941958
Zn  Zn12      1.0  0.59653  0.15859  0.62941  1.0000 0.6078941958
Zn  Zn13      1.0  0.79360  0.51780  0.46894  1.0000 0.6355587231
Zn  Zn14      1.0  0.48220  0.27580  0.80227  1.0000 0.6355587231
Zn  Zn15      1.0  0.72420  0.20640  0.13561  1.0000 0.6355587231
Zn  Zn16      1.0  0.20640  0.48220  0.96894  1.0000 0.6355587231
Zn  Zn17      1.0  0.51780  0.72420  0.30227  1.0000 0.6355587231
Zn  Zn18      1.0  0.27580  0.79360  0.63561  1.0000 0.6355587231
Zn  Zn19      1.0  0.46383  0.32498  0.54511  1.0000 0.6200775888
Zn  Zn20      1.0  0.67502  0.13885  0.87844  1.0000 0.6200775888
Zn  Zn21      1.0  0.86115  0.53617  0.21178  1.0000 0.6200775888
Zn  Zn22      1.0  0.53617  0.67502  0.04511  1.0000 0.6200775888
Zn  Zn23      1.0  0.32498  0.86115  0.37844  1.0000 0.6200775888
Zn  Zn24      1.0  0.13885  0.46383  0.71178  1.0000 0.6200775888
H   H1        1.0  0.06355  0.73553  0.46475  1.0000 0.1202473166
H   H2        1.0  0.26447  0.32802  0.79808  1.0000 0.1202473166
H   H3        1.0  0.67198  0.93645  0.13142  1.0000 0.1202473166
H   H4        1.0  0.93645  0.26447  0.96475  1.0000 0.1202473166
H   H5        1.0  0.73553  0.67198  0.29808  1.0000 0.1202473166
H   H6        1.0  0.32802  0.06355  0.63142  1.0000 0.1202473166
H   H7        1.0  0.90955  0.36467  0.47200  1.0000 0.1202473166
H   H8        1.0  0.63533  0.54488  0.80533  1.0000 0.1202473166
H   H9        1.0  0.45512  0.09045  0.13867  1.0000 0.1202473166
H   H10       1.0  0.09045  0.63533  0.97200  1.0000 0.1202473166
H   H11       1.0  0.36467  0.45512  0.30533  1.0000 0.1202473166
H   H12       1.0  0.54488  0.90955  0.63867  1.0000 0.1202473166
H   H13       1.0  0.62778  0.58722  0.55982  1.0000 0.1202473166
H   H14       1.0  0.41278  0.04056  0.89315  1.0000 0.1202473166
H   H15       1.0  0.95944  0.37222  0.22649  1.0000 0.1202473166
H   H16       1.0  0.37222  0.41278  0.05982  1.0000 0.1202473166
H   H17       1.0  0.58722  0.95944  0.39315  1.0000 0.1202473166
H   H18       1.0  0.04056  0.62778  0.72649  1.0000 0.1202473166
H   H19       1.0  0.25508  0.38581  0.54537  1.0000 0.1202473166
H   H20       1.0  0.61419  0.86927  0.87870  1.0000 0.1202473166
H   H21       1.0  0.13073  0.74492  0.21204  1.0000 0.1202473166
H   H22       1.0  0.74492  0.61419  0.04537  1.0000 0.1202473166
H   H23       1.0  0.38581  0.13073  0.37870  1.0000 0.1202473166
H   H24       1.0  0.86927  0.25508  0.71204  1.0000 0.1202473166
H   H25       1.0  0.61935  0.32394  0.47260  1.0000 0.1090973989
H   H26       1.0  0.67606  0.29541  0.80593  1.0000 0.1090973989
H   H27       1.0  0.70459  0.38065  0.13927  1.0000 0.1090973989
H   H28       1.0  0.38065  0.67606  0.97260  1.0000 0.1090973989
H   H29       1.0  0.32394  0.70459  0.30593  1.0000 0.1090973989
H   H30       1.0  0.29541  0.61935  0.63927  1.0000 0.1090973989
H   H31       1.0  0.52574  0.26943  0.48913  1.0000 0.1202473166
H   H32       1.0  0.73057  0.25631  0.82246  1.0000 0.1202473166
H   H33       1.0  0.74369  0.47426  0.15580  1.0000 0.1202473166
H   H34       1.0  0.47426  0.73057  0.98913  1.0000 0.1202473166
H   H35       1.0  0.26943  0.74369  0.32246  1.0000 0.1202473166
H   H36       1.0  0.25631  0.52574  0.65580  1.0000 0.1202473166
H   H37       1.0  0.83772  0.66854  0.52254  1.0000 0.1202473166
H   H38       1.0  0.33146  0.16918  0.85587  1.0000 0.1202473166
H   H39       1.0  0.83082  0.16228  0.18921  1.0000 0.1202473166
H   H40       1.0  0.16228  0.33146  0.02254  1.0000 0.1202473166
H   H41       1.0  0.66854  0.83082  0.35587  1.0000 0.1202473166
H   H42       1.0  0.16918  0.83772  0.68921  1.0000 0.1202473166
H   H43       1.0  0.75470  0.69457  0.52451  1.0000 0.148413663
H   H44       1.0  0.30543  0.06013  0.85784  1.0000 0.148413663
H   H45       1.0  0.93987  0.24530  0.19118  1.0000 0.148413663
H   H46       1.0  0.24530  0.30543  0.02451  1.0000 0.148413663
H   H47       1.0  0.69457  0.93987  0.35784  1.0000 0.148413663
H   H48       1.0  0.06013  0.75470  0.69118  1.0000 0.148413663
H   H49       1.0  0.79214  0.68423  0.49837  1.0000 0.148413663
H   H50       1.0  0.31577  0.10791  0.83170  1.0000 0.148413663
H   H51       1.0  0.89209  0.20786  0.16504  1.0000 0.148413663
H   H52       1.0  0.20786  0.31577  0.99837  1.0000 0.148413663
H   H53       1.0  0.68423  0.89209  0.33170  1.0000 0.148413663
H   H54       1.0  0.10791  0.79214  0.66504  1.0000 0.148413663
H   H55       1.0  0.66907  0.44598  0.39872  1.0000 0.1202473166
H   H56       1.0  0.55402  0.22309  0.73205  1.0000 0.1202473166
H   H57       1.0  0.77691  0.33093  0.06539  1.0000 0.1202473166
H   H58       1.0  0.33093  0.55402  0.89872  1.0000 0.1202473166
H   H59       1.0  0.44598  0.77691  0.23205  1.0000 0.1202473166
H   H60       1.0  0.22309  0.66907  0.56539  1.0000 0.1202473166
H   H61       1.0  0.58310  0.34073  0.40394  1.0000 0.1090973989
H   H62       1.0  0.65927  0.24237  0.73727  1.0000 0.1090973989
H   H63       1.0  0.75763  0.41690  0.07061  1.0000 0.1090973989
H   H64       1.0  0.41690  0.65927  0.90394  1.0000 0.1090973989
H   H65       1.0  0.34073  0.75763  0.23727  1.0000 0.1090973989
H   H66       1.0  0.24237  0.58310  0.57061  1.0000 0.1090973989
H   H67       1.0  0.29692  0.74370  0.48758  1.0000 0.1090973989
H   H68       1.0  0.25630  0.55322  0.82091  1.0000 0.1090973989
H   H69       1.0  0.44678  0.70308  0.15425  1.0000 0.1090973989
H   H70       1.0  0.70308  0.25630  0.98758  1.0000 0.1090973989
H   H71       1.0  0.74370  0.44678  0.32091  1.0000 0.1090973989
H   H72       1.0  0.55322  0.29692  0.65425  1.0000 0.1090973989
H   H73       1.0  0.39723  0.74998  0.48246  1.0000 0.1286234436
H   H74       1.0  0.25002  0.64725  0.81579  1.0000 0.1286234436
H   H75       1.0  0.35275  0.60277  0.14913  1.0000 0.1286234436
H   H76       1.0  0.60277  0.25002  0.98246  1.0000 0.1286234436
H   H77       1.0  0.74998  0.35275  0.31579  1.0000 0.1286234436
H   H78       1.0  0.64725  0.39723  0.64913  1.0000 0.1286234436
H   H79       1.0  0.78160  0.16695  0.43780  1.0000 0.1286234436
H   H80       1.0  0.83305  0.61465  0.77113  1.0000 0.1286234436
H   H81       1.0  0.38535  0.21840  0.10447  1.0000 0.1286234436
H   H82       1.0  0.21840  0.83305  0.93780  1.0000 0.1286234436
H   H83       1.0  0.16695  0.38535  0.27113  1.0000 0.1286234436
H   H84       1.0  0.61465  0.78160  0.60447  1.0000 0.1286234436
H   H85       1.0  0.88689  0.25325  0.43248  1.0000 0.1397986846
H   H86       1.0  0.74675  0.63364  0.76581  1.0000 0.1397986846
H   H87       1.0  0.36636  0.11311  0.09915  1.0000 0.1397986846
H   H88       1.0  0.11311  0.74675  0.93248  1.0000 0.1397986846
H   H89       1.0  0.25325  0.36636  0.26581  1.0000 0.1397986846
H   H90       1.0  0.63364  0.88689  0.59915  1.0000 0.1397986846
H   H91       1.0  0.81413  0.20225  0.41046  1.0000 0.148413663
H   H92       1.0  0.79775  0.61188  0.74379  1.0000 0.148413663
H   H93       1.0  0.38812  0.18587  0.07713  1.0000 0.148413663
H   H94       1.0  0.18587  0.79775  0.91046  1.0000 0.148413663
H   H95       1.0  0.20225  0.38812  0.24379  1.0000 0.148413663
H   H96       1.0  0.61188  0.81413  0.57713  1.0000 0.148413663
H   H97       1.0  0.27920  0.59757  0.40209  1.0000 0.1286234436
H   H98       1.0  0.40243  0.68163  0.73542  1.0000 0.1286234436
H   H99       1.0  0.31837  0.72080  0.06876  1.0000 0.1286234436
H   H100      1.0  0.72080  0.40243  0.90209  1.0000 0.1286234436
H   H101      1.0  0.59757  0.31837  0.23542  1.0000 0.1286234436
H   H102      1.0  0.68163  0.27920  0.56876  1.0000 0.1286234436
H   H103      1.0  0.35169  0.70129  0.39166  1.0000 0.1090973989
H   H104      1.0  0.29871  0.65040  0.72499  1.0000 0.1090973989
H   H105      1.0  0.34960  0.64831  0.05833  1.0000 0.1090973989
H   H106      1.0  0.64831  0.29871  0.89166  1.0000 0.1090973989
H   H107      1.0  0.70129  0.34960  0.22499  1.0000 0.1090973989
H   H108      1.0  0.65040  0.35169  0.55833  1.0000 0.1090973989
H   H109      1.0  0.99169  0.47019  0.50253  1.0000 0.0905447924
H   H110      1.0  0.52981  0.52150  0.83586  1.0000 0.0905447924
H   H111      1.0  0.47850  0.00831  0.16920  1.0000 0.0905447924
H   H112      1.0  0.00831  0.52981  0.00253  1.0000 0.0905447924
H   H113      1.0  0.47019  0.47850  0.33586  1.0000 0.0905447924
H   H114      1.0  0.52150  0.99169  0.66920  1.0000 0.0905447924
H   H115      1.0  0.98589  0.64444  0.49676  1.0000 0.0905447924
H   H116      1.0  0.35556  0.34145  0.83009  1.0000 0.0905447924
H   H117      1.0  0.65855  0.01411  0.16343  1.0000 0.0905447924
H   H118      1.0  0.01411  0.35556  0.99676  1.0000 0.0905447924
H   H119      1.0  0.64444  0.65855  0.33009  1.0000 0.0905447924
H   H120      1.0  0.34145  0.98589  0.66343  1.0000 0.0905447924
H   H121      1.0  0.53223  0.42898  0.42263  1.0000 0.1202473166
H   H122      1.0  0.57102  0.10325  0.75596  1.0000 0.1202473166
H   H123      1.0  0.89675  0.46777  0.08930  1.0000 0.1202473166
H   H124      1.0  0.46777  0.57102  0.92263  1.0000 0.1202473166
H   H125      1.0  0.42898  0.89675  0.25596  1.0000 0.1202473166
H   H126      1.0  0.10325  0.53223  0.58930  1.0000 0.1202473166
H   H127      1.0  0.63682  0.50664  0.43159  1.0000 0.1202473166
H   H128      1.0  0.49336  0.13018  0.76492  1.0000 0.1202473166
H   H129      1.0  0.86982  0.36318  0.09826  1.0000 0.1202473166
H   H130      1.0  0.36318  0.49336  0.93159  1.0000 0.1202473166
H   H131      1.0  0.50664  0.86982  0.26492  1.0000 0.1202473166
H   H132      1.0  0.13018  0.63682  0.59826  1.0000 0.1202473166
H   H133      1.0  0.58065  0.40532  0.44491  1.0000 0.1202473166
H   H134      1.0  0.59468  0.17533  0.77824  1.0000 0.1202473166
H   H135      1.0  0.82467  0.41935  0.11158  1.0000 0.1202473166
H   H136      1.0  0.41935  0.59468  0.94491  1.0000 0.1202473166
H   H137      1.0  0.40532  0.82467  0.27824  1.0000 0.1202473166
H   H138      1.0  0.17533  0.58065  0.61158  1.0000 0.1202473166
H   H139      1.0  0.85611  0.51186  0.52632  1.0000 0.1202473166
H   H140      1.0  0.48814  0.34425  0.85965  1.0000 0.1202473166
H   H141      1.0  0.65575  0.14389  0.19299  1.0000 0.1202473166
H   H142      1.0  0.14389  0.48814  0.02632  1.0000 0.1202473166
H   H143      1.0  0.51186  0.65575  0.35965  1.0000 0.1202473166
H   H144      1.0  0.34425  0.85611  0.69299  1.0000 0.1202473166
H   H145      1.0  0.86005  0.41553  0.52977  1.0000 0.1286234436
H   H146      1.0  0.58447  0.44452  0.86310  1.0000 0.1286234436
H   H147      1.0  0.55548  0.13995  0.19644  1.0000 0.1286234436
H   H148      1.0  0.13995  0.58447  0.02977  1.0000 0.1286234436
H   H149      1.0  0.41553  0.55548  0.36310  1.0000 0.1286234436
H   H150      1.0  0.44452  0.86005  0.69644  1.0000 0.1286234436
H   H151      1.0  0.63547  0.20421  0.48983  1.0000 0.1202473166
H   H152      1.0  0.79579  0.43126  0.82316  1.0000 0.1202473166
H   H153      1.0  0.56874  0.36453  0.15650  1.0000 0.1202473166
H   H154      1.0  0.36453  0.79579  0.98983  1.0000 0.1202473166
H   H155      1.0  0.20421  0.56874  0.32316  1.0000 0.1202473166
H   H156      1.0  0.43126  0.63547  0.65650  1.0000 0.1202473166
H   H157      1.0  0.59894  0.21722  0.51584  1.0000 0.1286234436
H   H158      1.0  0.78278  0.38172  0.84917  1.0000 0.1286234436
H   H159      1.0  0.61828  0.40106  0.18251  1.0000 0.1286234436
H   H160      1.0  0.40106  0.78278  0.01584  1.0000 0.1286234436
H   H161      1.0  0.21722  0.61828  0.34917  1.0000 0.1286234436
H   H162      1.0  0.38172  0.59894  0.68251  1.0000 0.1286234436
H   H163      1.0  0.70330  0.29395  0.50651  1.0000 0.1202473166
H   H164      1.0  0.70605  0.40935  0.83984  1.0000 0.1202473166
H   H165      1.0  0.59065  0.29670  0.17318  1.0000 0.1202473166
H   H166      1.0  0.29670  0.70605  0.00651  1.0000 0.1202473166
H   H167      1.0  0.29395  0.59065  0.33984  1.0000 0.1202473166
H   H168      1.0  0.40935  0.70330  0.67318  1.0000 0.1202473166
H   H169      1.0  0.00941  0.50071  0.54951  1.0000 0.1030236184
H   H170      1.0  0.49929  0.50870  0.88284  1.0000 0.1030236184
H   H171      1.0  0.49130  0.99059  0.21618  1.0000 0.1030236184
H   H172      1.0  0.99059  0.49929  0.04951  1.0000 0.1030236184
H   H173      1.0  0.50071  0.49130  0.38284  1.0000 0.1030236184
H   H174      1.0  0.50870  0.00941  0.71618  1.0000 0.1030236184
H   H175      1.0  0.93298  0.51845  0.56353  1.0000 0.1090973989
H   H176      1.0  0.48155  0.41453  0.89686  1.0000 0.1090973989
H   H177      1.0  0.58547  0.06702  0.23020  1.0000 0.1090973989
H   H178      1.0  0.06702  0.48155  0.06353  1.0000 0.1090973989
H   H179      1.0  0.51845  0.58547  0.39686  1.0000 0.1090973989
H   H180      1.0  0.41453  0.93298  0.73020  1.0000 0.1090973989
H   H181      1.0  0.33852  0.38167  0.57799  1.0000 0.0905447924
H   H182      1.0  0.61833  0.95685  0.91132  1.0000 0.0905447924
H   H183      1.0  0.04315  0.66148  0.24466  1.0000 0.0905447924
H   H184      1.0  0.66148  0.61833  0.07799  1.0000 0.0905447924
H   H185      1.0  0.38167  0.04315  0.41132  1.0000 0.0905447924
H   H186      1.0  0.95685  0.33852  0.74466  1.0000 0.0905447924
H   H187      1.0  0.13302  0.72855  0.51765  1.0000 0.1286234436
H   H188      1.0  0.27145  0.40447  0.85098  1.0000 0.1286234436
H   H189      1.0  0.59553  0.86698  0.18432  1.0000 0.1286234436
H   H190      1.0  0.86698  0.27145  0.01765  1.0000 0.1286234436
H   H191      1.0  0.72855  0.59553  0.35098  1.0000 0.1286234436
H   H192      1.0  0.40447  0.13302  0.68432  1.0000 0.1286234436
H   H193      1.0  0.13607  0.63213  0.52190  1.0000 0.1202473166
H   H194      1.0  0.36787  0.50394  0.85523  1.0000 0.1202473166
H   H195      1.0  0.49606  0.86393  0.18857  1.0000 0.1202473166
H   H196      1.0  0.86393  0.36787  0.02190  1.0000 0.1202473166
H   H197      1.0  0.63213  0.49606  0.35523  1.0000 0.1202473166
H   H198      1.0  0.50394  0.13607  0.68857  1.0000 0.1202473166
H   H199      1.0  0.07951  0.66783  0.55878  1.0000 0.1090973989
H   H200      1.0  0.33217  0.41168  0.89211  1.0000 0.1090973989
H   H201      1.0  0.58832  0.92049  0.22545  1.0000 0.1090973989
H   H202      1.0  0.92049  0.33217  0.05878  1.0000 0.1090973989
H   H203      1.0  0.66783  0.58832  0.39211  1.0000 0.1090973989
H   H204      1.0  0.41168  0.07951  0.72545  1.0000 0.1090973989
H   H205      1.0  0.99606  0.67219  0.54407  1.0000 0.1090973989
H   H206      1.0  0.32781  0.32387  0.87740  1.0000 0.1090973989
H   H207      1.0  0.67613  0.00394  0.21074  1.0000 0.1090973989
H   H208      1.0  0.00394  0.32781  0.04407  1.0000 0.1090973989
H   H209      1.0  0.67219  0.67613  0.37740  1.0000 0.1090973989
H   H210      1.0  0.32387  0.99606  0.71074  1.0000 0.1090973989
H   H211      1.0  0.30710  0.42551  0.64156  1.0000 0.1090973989
H   H212      1.0  0.57449  0.88159  0.97489  1.0000 0.1090973989
H   H213      1.0  0.11841  0.69290  0.30823  1.0000 0.1090973989
H   H214      1.0  0.69290  0.57449  0.14156  1.0000 0.1090973989
H   H215      1.0  0.42551  0.11841  0.47489  1.0000 0.1090973989
H   H216      1.0  0.88159  0.30710  0.80823  1.0000 0.1090973989
H   H217      1.0  0.29772  0.34191  0.62403  1.0000 0.1090973989
H   H218      1.0  0.65809  0.95581  0.95736  1.0000 0.1090973989
H   H219      1.0  0.04419  0.70228  0.29070  1.0000 0.1090973989
H   H220      1.0  0.70228  0.65809  0.12403  1.0000 0.1090973989
H   H221      1.0  0.34191  0.04419  0.45736  1.0000 0.1090973989
H   H222      1.0  0.95581  0.29772  0.79070  1.0000 0.1090973989
H   H223      1.0  0.08043  0.37304  0.49386  1.0000 0.1202473166
H   H224      1.0  0.62696  0.70739  0.82719  1.0000 0.1202473166
H   H225      1.0  0.29261  0.91957  0.16053  1.0000 0.1202473166
H   H226      1.0  0.91957  0.62696  0.99386  1.0000 0.1202473166
H   H227      1.0  0.37304  0.29261  0.32719  1.0000 0.1202473166
H   H228      1.0  0.70739  0.08043  0.66053  1.0000 0.1202473166
H   H229      1.0  0.12457  0.33249  0.51338  1.0000 0.1286234436
H   H230      1.0  0.66751  0.79208  0.84671  1.0000 0.1286234436
H   H231      1.0  0.20792  0.87543  0.18005  1.0000 0.1286234436
H   H232      1.0  0.87543  0.66751  0.01338  1.0000 0.1286234436
H   H233      1.0  0.33249  0.20792  0.34671  1.0000 0.1286234436
H   H234      1.0  0.79208  0.12457  0.68005  1.0000 0.1286234436
H   H235      1.0  0.16014  0.34774  0.48572  1.0000 0.158722906
H   H236      1.0  0.65226  0.81240  0.81905  1.0000 0.158722906
H   H237      1.0  0.18760  0.83986  0.15239  1.0000 0.158722906
H   H238      1.0  0.83986  0.65226  0.98572  1.0000 0.158722906
H   H239      1.0  0.34774  0.18760  0.31905  1.0000 0.158722906
H   H240      1.0  0.81240  0.16014  0.65239  1.0000 0.158722906
H   H241      1.0  0.51497  0.55199  0.58845  1.0000 0.0905447924
H   H242      1.0  0.44801  0.96298  0.92178  1.0000 0.0905447924
H   H243      1.0  0.03702  0.48503  0.25512  1.0000 0.0905447924
H   H244      1.0  0.48503  0.44801  0.08845  1.0000 0.0905447924
H   H245      1.0  0.55199  0.03702  0.42178  1.0000 0.0905447924
H   H246      1.0  0.96298  0.51497  0.75512  1.0000 0.0905447924
H   H247      1.0  0.25777  0.44268  0.60099  1.0000 0.1286234436
H   H248      1.0  0.55732  0.81509  0.93432  1.0000 0.1286234436
H   H249      1.0  0.18491  0.74223  0.26766  1.0000 0.1286234436
H   H250      1.0  0.74223  0.55732  0.10099  1.0000 0.1286234436
H   H251      1.0  0.44268  0.18491  0.43432  1.0000 0.1286234436
H   H252      1.0  0.81509  0.25777  0.76766  1.0000 0.1286234436
H   H253      1.0  0.35689  0.53487  0.60824  1.0000 0.1202473166
H   H254      1.0  0.46513  0.82202  0.94157  1.0000 0.1202473166
H   H255      1.0  0.17798  0.64311  0.27491  1.0000 0.1202473166
H   H256      1.0  0.64311  0.46513  0.10824  1.0000 0.1202473166
H   H257      1.0  0.53487  0.17798  0.44157  1.0000 0.1202473166
H   H258      1.0  0.82202  0.35689  0.77491  1.0000 0.1202473166
H   H259      1.0  0.19407  0.91800  0.41633  1.0000 0.1202473166
H   H260      1.0  0.08200  0.27607  0.74966  1.0000 0.1202473166
H   H261      1.0  0.72393  0.80593  0.08300  1.0000 0.1202473166
H   H262      1.0  0.80593  0.08200  0.91633  1.0000 0.1202473166
H   H263      1.0  0.91800  0.72393  0.24966  1.0000 0.1202473166
H   H264      1.0  0.27607  0.19407  0.58300  1.0000 0.1202473166
H   H265      1.0  0.09053  0.83942  0.42572  1.0000 0.1397986846
H   H266      1.0  0.16058  0.25111  0.75905  1.0000 0.1397986846
H   H267      1.0  0.74889  0.90947  0.09239  1.0000 0.1397986846
H   H268      1.0  0.90947  0.16058  0.92572  1.0000 0.1397986846
H   H269      1.0  0.83942  0.74889  0.25905  1.0000 0.1397986846
H   H270      1.0  0.25111  0.09053  0.59239  1.0000 0.1397986846
H   H271      1.0  0.11902  0.84066  0.39778  1.0000 0.148413663
H   H272      1.0  0.15934  0.27836  0.73111  1.0000 0.148413663
H   H273      1.0  0.72164  0.88098  0.06445  1.0000 0.148413663
H   H274      1.0  0.88098  0.15934  0.89778  1.0000 0.148413663
H   H275      1.0  0.84066  0.72164  0.23111  1.0000 0.148413663
H   H276      1.0  0.27836  0.11902  0.56445  1.0000 0.148413663
H   H277      1.0  0.39020  0.86502  0.51204  1.0000 0.1202473166
H   H278      1.0  0.13498  0.52518  0.84537  1.0000 0.1202473166
H   H279      1.0  0.47482  0.60980  0.17871  1.0000 0.1202473166
H   H280      1.0  0.60980  0.13498  0.01204  1.0000 0.1202473166
H   H281      1.0  0.86502  0.47482  0.34537  1.0000 0.1202473166
H   H282      1.0  0.52518  0.39020  0.67871  1.0000 0.1202473166
H   H283      1.0  0.45977  0.82391  0.51782  1.0000 0.1286234436
H   H284      1.0  0.17609  0.63586  0.85115  1.0000 0.1286234436
H   H285      1.0  0.36414  0.54023  0.18449  1.0000 0.1286234436
H   H286      1.0  0.54023  0.17609  0.01782  1.0000 0.1286234436
H   H287      1.0  0.82391  0.36414  0.35115  1.0000 0.1286234436
H   H288      1.0  0.63586  0.45977  0.68449  1.0000 0.1286234436
H   H289      1.0  0.35804  0.77898  0.53091  1.0000 0.1202473166
H   H290      1.0  0.22102  0.57906  0.86424  1.0000 0.1202473166
H   H291      1.0  0.42094  0.64196  0.19758  1.0000 0.1202473166
H   H292      1.0  0.64196  0.22102  0.03091  1.0000 0.1202473166
H   H293      1.0  0.77898  0.42094  0.36424  1.0000 0.1202473166
H   H294      1.0  0.57906  0.35804  0.69758  1.0000 0.1202473166
H   H295      1.0  0.45734  0.36078  0.60506  1.0000 0.1202473166
H   H296      1.0  0.63922  0.09656  0.93839  1.0000 0.1202473166
H   H297      1.0  0.90344  0.54266  0.27173  1.0000 0.1202473166
H   H298      1.0  0.54266  0.63922  0.10506  1.0000 0.1202473166
H   H299      1.0  0.36078  0.90344  0.43839  1.0000 0.1202473166
H   H300      1.0  0.09656  0.45734  0.77173  1.0000 0.1202473166
H   H301      1.0  0.55586  0.45417  0.61188  1.0000 0.1286234436
H   H302      1.0  0.54583  0.10169  0.94521  1.0000 0.1286234436
H   H303      1.0  0.89831  0.44414  0.27855  1.0000 0.1286234436
H   H304      1.0  0.44414  0.54583  0.11188  1.0000 0.1286234436
H   H305      1.0  0.45417  0.89831  0.44521  1.0000 0.1286234436
H   H306      1.0  0.10169  0.55586  0.77855  1.0000 0.1286234436
H   H307      1.0  0.47519  0.51226  0.63608  1.0000 0.1030236184
H   H308      1.0  0.48774  0.96293  0.96941  1.0000 0.1030236184
H   H309      1.0  0.03707  0.52481  0.30275  1.0000 0.1030236184
H   H310      1.0  0.52481  0.48774  0.13608  1.0000 0.1030236184
H   H311      1.0  0.51226  0.03707  0.46941  1.0000 0.1030236184
H   H312      1.0  0.96293  0.47519  0.80275  1.0000 0.1030236184
H   H313      1.0  0.44590  0.40696  0.64507  1.0000 0.1090973989
H   H314      1.0  0.59304  0.03894  0.97840  1.0000 0.1090973989
H   H315      1.0  0.96106  0.55410  0.31174  1.0000 0.1090973989
H   H316      1.0  0.55410  0.59304  0.14507  1.0000 0.1090973989
H   H317      1.0  0.40696  0.96106  0.47840  1.0000 0.1090973989
H   H318      1.0  0.03894  0.44590  0.81174  1.0000 0.1090973989
H   H319      1.0  0.45112  0.68463  0.41414  1.0000 0.1090973989
H   H320      1.0  0.31537  0.76649  0.74747  1.0000 0.1090973989
H   H321      1.0  0.23351  0.54888  0.08081  1.0000 0.1090973989
H   H322      1.0  0.54888  0.31537  0.91414  1.0000 0.1090973989
H   H323      1.0  0.68463  0.23351  0.24747  1.0000 0.1090973989
H   H324      1.0  0.76649  0.45112  0.58081  1.0000 0.1090973989
H   H325      1.0  0.37031  0.61273  0.43250  1.0000 0.1286234436
H   H326      1.0  0.38727  0.75758  0.76583  1.0000 0.1286234436
H   H327      1.0  0.24242  0.62969  0.09917  1.0000 0.1286234436
H   H328      1.0  0.62969  0.38727  0.93250  1.0000 0.1286234436
H   H329      1.0  0.61273  0.24242  0.26583  1.0000 0.1286234436
H   H330      1.0  0.75758  0.37031  0.59917  1.0000 0.1286234436
H   H331      1.0  0.41141  0.72517  0.43485  1.0000 0.1202473166
H   H332      1.0  0.27483  0.68624  0.76818  1.0000 0.1202473166
H   H333      1.0  0.31376  0.58859  0.10152  1.0000 0.1202473166
H   H334      1.0  0.58859  0.27483  0.93485  1.0000 0.1202473166
H   H335      1.0  0.72517  0.31376  0.26818  1.0000 0.1202473166
H   H336      1.0  0.68624  0.41141  0.60152  1.0000 0.1202473166
C   C1        1.0  0.27870  0.50590  0.52485  1.0000 0.0403812638
C   C2        1.0  0.49410  0.77280  0.85818  1.0000 0.0403812638
C   C3        1.0  0.22720  0.72130  0.19152  1.0000 0.0403812638
C   C4        1.0  0.72130  0.49410  0.02485  1.0000 0.0403812638
C   C5        1.0  0.50590  0.22720  0.35818  1.0000 0.0403812638
C   C6        1.0  0.77280  0.27870  0.69152  1.0000 0.0403812638
C   C7        1.0  0.16070  0.72430  0.44027  1.0000 0.029120809
C   C8        1.0  0.27570  0.43640  0.77360  1.0000 0.029120809
C   C9        1.0  0.56360  0.83930  0.10694  1.0000 0.029120809
C   C10       1.0  0.83930  0.27570  0.94027  1.0000 0.029120809
C   C11       1.0  0.72430  0.56360  0.27360  1.0000 0.029120809
C   C12       1.0  0.43640  0.16070  0.60694  1.0000 0.029120809
C   C13       1.0  0.80920  0.36420  0.44772  1.0000 0.029120809
C   C14       1.0  0.63580  0.44500  0.78105  1.0000 0.029120809
C   C15       1.0  0.55500  0.19080  0.11439  1.0000 0.029120809
C   C16       1.0  0.19080  0.63580  0.94772  1.0000 0.029120809
C   C17       1.0  0.36420  0.55500  0.28105  1.0000 0.029120809
C   C18       1.0  0.44500  0.80920  0.61439  1.0000 0.029120809
C   C19       1.0  0.63000  0.50080  0.53158  1.0000 0.0249309061
C   C20       1.0  0.49920  0.12920  0.86491  1.0000 0.0249309061
C   C21       1.0  0.87080  0.37000  0.19825  1.0000 0.029120809
C   C22       1.0  0.37000  0.49920  0.03158  1.0000 0.0249309061
C   C23       1.0  0.50080  0.87080  0.36491  1.0000 0.0249309061
C   C24       1.0  0.12920  0.63000  0.69825  1.0000 0.0249309061
C   C25       1.0  0.09500  0.70040  0.46161  1.0000 0.0690000565
C   C26       1.0  0.29960  0.39460  0.79494  1.0000 0.0690000565
C   C27       1.0  0.60540  0.90500  0.12828  1.0000 0.0690000565
C   C28       1.0  0.90500  0.29960  0.96161  1.0000 0.0690000565
C   C29       1.0  0.70040  0.60540  0.29494  1.0000 0.0690000565
C   C30       1.0  0.39460  0.09500  0.62828  1.0000 0.0690000565
C   C31       1.0  0.21500  0.47300  0.50486  1.0000 0.1925533313
C   C32       1.0  0.52700  0.74200  0.83819  1.0000 0.1925533313
C   C33       1.0  0.25800  0.78500  0.17153  1.0000 0.1925533313
C   C34       1.0  0.78500  0.52700  0.00486  1.0000 0.1925533313
C   C35       1.0  0.47300  0.25800  0.33819  1.0000 0.1925533313
C   C36       1.0  0.74200  0.21500  0.67153  1.0000 0.1925533313
C   C37       1.0  0.87520  0.39630  0.46813  1.0000 0.0575181426
C   C38       1.0  0.60370  0.47890  0.80146  1.0000 0.0575181426
C   C39       1.0  0.52110  0.12480  0.13480  1.0000 0.0575181426
C   C40       1.0  0.12480  0.60370  0.96813  1.0000 0.0575181426
C   C41       1.0  0.39630  0.52110  0.30146  1.0000 0.0575181426
C   C42       1.0  0.47890  0.87520  0.63480  1.0000 0.0575181426
C   C43       1.0  0.18070  0.78470  0.42056  1.0000 0.1758627903
C   C44       1.0  0.21530  0.39600  0.75389  1.0000 0.1758627903
C   C45       1.0  0.60400  0.81930  0.08723  1.0000 0.1758627903
C   C46       1.0  0.81930  0.21530  0.92056  1.0000 0.1758627903
C   C47       1.0  0.78470  0.60400  0.25389  1.0000 0.1758627903
C   C48       1.0  0.39600  0.18070  0.58723  1.0000 0.1758627903
C   C49       1.0  0.59470  0.52460  0.55328  1.0000 0.0575181426
C   C50       1.0  0.47540  0.07010  0.88661  1.0000 0.0575181426
C   C51       1.0  0.92990  0.40530  0.21995  1.0000 0.0575181426
C   C52       1.0  0.40530  0.47540  0.05328  1.0000 0.0575181426
C   C53       1.0  0.52460  0.92990  0.38661  1.0000 0.0575181426
C   C54       1.0  0.07010  0.59470  0.71995  1.0000 0.0575181426
C   C55       1.0  0.29350  0.45320  0.54429  1.0000 0.0517951017
C   C56       1.0  0.54680  0.84030  0.87762  1.0000 0.0517951017
C   C57       1.0  0.15970  0.70650  0.21096  1.0000 0.0517951017
C   C58       1.0  0.70650  0.54680  0.04429  1.0000 0.0517951017
C   C59       1.0  0.45320  0.15970  0.37762  1.0000 0.0517951017
C   C60       1.0  0.84030  0.29350  0.71096  1.0000 0.0517951017
C   C61       1.0  0.70510  0.55490  0.51474  1.0000 0.1925533313
C   C62       1.0  0.44510  0.15020  0.84807  1.0000 0.1925533313
C   C63       1.0  0.84980  0.29490  0.18141  1.0000 0.1925533313
C   C64       1.0  0.29490  0.44510  0.01474  1.0000 0.1925533313
C   C65       1.0  0.55490  0.84980  0.34807  1.0000 0.1925533313
C   C66       1.0  0.15020  0.70510  0.68141  1.0000 0.1925533313
C   C67       1.0  0.78450  0.29250  0.43001  1.0000 0.1991697238
C   C68       1.0  0.70750  0.49200  0.76334  1.0000 0.1991697238
C   C69       1.0  0.50800  0.21550  0.09668  1.0000 0.1991697238
C   C70       1.0  0.21550  0.70750  0.93001  1.0000 0.1991697238
C   C71       1.0  0.29250  0.50800  0.26334  1.0000 0.1991697238
C   C72       1.0  0.49200  0.78450  0.59668  1.0000 0.1991697238
C   C73       1.0  0.30700  0.63340  0.50335  1.0000 0.3295594837
C   C74       1.0  0.36660  0.67360  0.83668  1.0000 0.3295594837
C   C75       1.0  0.32640  0.69300  0.17002  1.0000 0.3295594837
C   C76       1.0  0.69300  0.36660  0.00335  1.0000 0.3295594837
C   C77       1.0  0.63340  0.32640  0.33668  1.0000 0.3295594837
C   C78       1.0  0.67360  0.30700  0.67002  1.0000 0.3295594837
C   C79       1.0  0.25820  0.70270  0.41695  1.0000 0.343653464
C   C80       1.0  0.29730  0.55550  0.75028  1.0000 0.343653464
C   C81       1.0  0.44450  0.74180  0.08362  1.0000 0.343653464
C   C82       1.0  0.74180  0.29730  0.91695  1.0000 0.343653464
C   C83       1.0  0.70270  0.44450  0.25028  1.0000 0.343653464
C   C84       1.0  0.55550  0.25820  0.58362  1.0000 0.343653464
C   C85       1.0  0.59620  0.30870  0.48959  1.0000 -0.2494645107
C   C86       1.0  0.69130  0.28750  0.82292  1.0000 -0.2494645107
C   C87       1.0  0.71250  0.40380  0.15626  1.0000 -0.2494645107
C   C88       1.0  0.40380  0.69130  0.98959  1.0000 -0.2494645107
C   C89       1.0  0.30870  0.71250  0.32292  1.0000 -0.2494645107
C   C90       1.0  0.28750  0.59620  0.65626  1.0000 -0.2494645107
C   C91       1.0  0.77890  0.65980  0.51507  1.0000 -0.4770985954
C   C92       1.0  0.34020  0.11910  0.84840  1.0000 -0.4770985954
C   C93       1.0  0.88090  0.22110  0.18174  1.0000 -0.4770985954
C   C94       1.0  0.22110  0.34020  0.01507  1.0000 -0.4770985954
C   C95       1.0  0.65980  0.88090  0.34840  1.0000 -0.4770985954
C   C96       1.0  0.11910  0.77890  0.68174  1.0000 -0.4770985954
C   C97       1.0  0.63550  0.39830  0.41171  1.0000 -0.2414687257
C   C98       1.0  0.60170  0.23720  0.74504  1.0000 -0.2414687257
C   C99       1.0  0.76280  0.36450  0.07838  1.0000 -0.2414687257
C   C100      1.0  0.36450  0.60170  0.91171  1.0000 -0.2414687257
C   C101      1.0  0.39830  0.76280  0.24504  1.0000 -0.2414687257
C   C102      1.0  0.23720  0.63550  0.57838  1.0000 -0.2414687257
C   C103      1.0  0.70560  0.37170  0.42302  1.0000 0.343653464
C   C104      1.0  0.62830  0.33390  0.75635  1.0000 0.343653464
C   C105      1.0  0.66610  0.29440  0.08969  1.0000 0.343653464
C   C106      1.0  0.29440  0.62830  0.92302  1.0000 0.343653464
C   C107      1.0  0.37170  0.66610  0.25635  1.0000 0.343653464
C   C108      1.0  0.33390  0.70560  0.58969  1.0000 0.343653464
C   C109      1.0  0.62460  0.40110  0.50320  1.0000 0.3577084826
C   C110      1.0  0.59890  0.22350  0.83653  1.0000 0.3577084826
C   C111      1.0  0.77650  0.37540  0.16987  1.0000 0.3577084826
C   C112      1.0  0.37540  0.59890  0.00320  1.0000 0.3577084826
C   C113      1.0  0.40110  0.77650  0.33653  1.0000 0.3577084826
C   C114      1.0  0.22350  0.62460  0.66987  1.0000 0.3577084826
C   C115      1.0  0.34820  0.73590  0.49508  1.0000 -0.2414687257
C   C116      1.0  0.26410  0.61230  0.82841  1.0000 -0.2414687257
C   C117      1.0  0.38770  0.65180  0.16175  1.0000 -0.2414687257
C   C118      1.0  0.65180  0.26410  0.99508  1.0000 -0.2414687257
C   C119      1.0  0.73590  0.38770  0.32841  1.0000 -0.2414687257
C   C120      1.0  0.61230  0.34820  0.66175  1.0000 -0.2414687257
C   C121      1.0  0.81990  0.22260  0.42746  1.0000 -0.4603641717
C   C122      1.0  0.77740  0.59730  0.76079  1.0000 -0.4603641717
C   C123      1.0  0.40270  0.18010  0.09413  1.0000 -0.4603641717
C   C124      1.0  0.18010  0.77740  0.92746  1.0000 -0.4603641717
C   C125      1.0  0.22260  0.40270  0.26079  1.0000 -0.4603641717
C   C126      1.0  0.59730  0.81990  0.59413  1.0000 -0.4603641717
C   C127      1.0  0.32050  0.66530  0.40668  1.0000 -0.2414687257
C   C128      1.0  0.33470  0.65520  0.74001  1.0000 -0.2414687257
C   C129      1.0  0.34480  0.67950  0.07335  1.0000 -0.2414687257
C   C130      1.0  0.67950  0.33470  0.90668  1.0000 -0.2414687257
C   C131      1.0  0.66530  0.34480  0.24001  1.0000 -0.2414687257
C   C132      1.0  0.65520  0.32050  0.57335  1.0000 -0.2414687257
C   C133      1.0  0.95470  0.50450  0.50239  1.0000 0.0575181426
C   C134      1.0  0.49550  0.45020  0.83572  1.0000 0.0575181426
C   C135      1.0  0.54980  0.04530  0.16906  1.0000 0.0575181426
C   C136      1.0  0.04530  0.49550  0.00239  1.0000 0.0575181426
C   C137      1.0  0.50450  0.54980  0.33572  1.0000 0.0575181426
C   C138      1.0  0.45020  0.95470  0.66906  1.0000 0.0575181426
C   C139      1.0  0.02450  0.61220  0.49864  1.0000 0.0575181426
C   C140      1.0  0.38780  0.41230  0.83197  1.0000 0.0575181426
C   C141      1.0  0.58770  0.97550  0.16531  1.0000 0.0575181426
C   C142      1.0  0.97550  0.38780  0.99864  1.0000 0.0575181426
C   C143      1.0  0.61220  0.58770  0.33197  1.0000 0.0575181426
C   C144      1.0  0.41230  0.02450  0.66531  1.0000 0.0575181426
C   C145      1.0  0.59250  0.43830  0.42925  1.0000 -0.3508418097
C   C146      1.0  0.56170  0.15420  0.76258  1.0000 -0.3508418097
C   C147      1.0  0.84580  0.40750  0.09592  1.0000 -0.3508418097
C   C148      1.0  0.40750  0.56170  0.92925  1.0000 -0.3508418097
C   C149      1.0  0.43830  0.84580  0.26258  1.0000 -0.3508418097
C   C150      1.0  0.15420  0.59250  0.59592  1.0000 -0.3508418097
C   C151      1.0  0.89940  0.48520  0.52706  1.0000 -0.2414687257
C   C152      1.0  0.51480  0.41420  0.86039  1.0000 -0.2414687257
C   C153      1.0  0.58580  0.10060  0.19373  1.0000 -0.2414687257
C   C154      1.0  0.10060  0.51480  0.02706  1.0000 -0.2414687257
C   C155      1.0  0.48520  0.58580  0.36039  1.0000 -0.2414687257
C   C156      1.0  0.41420  0.89940  0.69373  1.0000 -0.2414687257
C   C157      1.0  0.63720  0.25070  0.50153  1.0000 -0.3508418097
C   C158      1.0  0.74930  0.38650  0.83486  1.0000 -0.3508418097
C   C159      1.0  0.61350  0.36280  0.16820  1.0000 -0.3508418097
C   C160      1.0  0.36280  0.74930  0.00153  1.0000 -0.3508418097
C   C161      1.0  0.25070  0.61350  0.33486  1.0000 -0.3508418097
C   C162      1.0  0.38650  0.63720  0.66820  1.0000 -0.3508418097
C   C163      1.0  0.96930  0.53080  0.54817  1.0000 -0.1626754375
C   C164      1.0  0.46920  0.43850  0.88150  1.0000 -0.1626754375
C   C165      1.0  0.56150  0.03070  0.21484  1.0000 -0.1626754375
C   C166      1.0  0.03070  0.46920  0.04817  1.0000 -0.1626754375
C   C167      1.0  0.53080  0.56150  0.38150  1.0000 -0.1626754375
C   C168      1.0  0.43850  0.96930  0.71484  1.0000 -0.1626754375
C   C169      1.0  0.37330  0.45150  0.58175  1.0000 0.0517951017
C   C170      1.0  0.54850  0.92180  0.91508  1.0000 0.0517951017
C   C171      1.0  0.07820  0.62670  0.24842  1.0000 0.0517951017
C   C172      1.0  0.62670  0.54850  0.08175  1.0000 0.0517951017
C   C173      1.0  0.45150  0.07820  0.41508  1.0000 0.0517951017
C   C174      1.0  0.92180  0.37330  0.74842  1.0000 0.0517951017
C   C175      1.0  0.09320  0.65900  0.52048  1.0000 -0.2284375178
C   C176      1.0  0.34100  0.43420  0.85381  1.0000 -0.2284375178
C   C177      1.0  0.56580  0.90680  0.18715  1.0000 -0.2284375178
C   C178      1.0  0.90680  0.34100  0.02048  1.0000 -0.2284375178
C   C179      1.0  0.65900  0.56580  0.35381  1.0000 -0.2284375178
C   C180      1.0  0.43420  0.09320  0.68715  1.0000 -0.2284375178
C   C181      1.0  0.03520  0.64090  0.54483  1.0000 -0.1626754375
C   C182      1.0  0.35910  0.39430  0.87816  1.0000 -0.1626754375
C   C183      1.0  0.60570  0.96480  0.21150  1.0000 -0.1626754375
C   C184      1.0  0.96480  0.35910  0.04483  1.0000 -0.1626754375
C   C185      1.0  0.64090  0.60570  0.37816  1.0000 -0.1626754375
C   C186      1.0  0.39430  0.03520  0.71150  1.0000 -0.1626754375
C   C187      1.0  0.33410  0.41150  0.62701  1.0000 -0.1626754375
C   C188      1.0  0.58850  0.92260  0.96034  1.0000 -0.1626754375
C   C189      1.0  0.07740  0.66590  0.29368  1.0000 -0.1626754375
C   C190      1.0  0.66590  0.58850  0.12701  1.0000 -0.1626754375
C   C191      1.0  0.41150  0.07740  0.46034  1.0000 -0.1626754375
C   C192      1.0  0.92260  0.33410  0.79368  1.0000 -0.1626754375
C   C193      1.0  0.13840  0.37280  0.49894  1.0000 -0.4603641717
C   C194      1.0  0.62720  0.76560  0.83227  1.0000 -0.4603641717
C   C195      1.0  0.23440  0.86160  0.16561  1.0000 -0.4603641717
C   C196      1.0  0.86160  0.62720  0.99894  1.0000 -0.4603641717
C   C197      1.0  0.37280  0.23440  0.33227  1.0000 -0.4603641717
C   C198      1.0  0.76560  0.13840  0.66561  1.0000 -0.4603641717
C   C199      1.0  0.47830  0.48160  0.58548  1.0000 0.0517951017
C   C200      1.0  0.51840  0.99670  0.91881  1.0000 0.0517951017
C   C201      1.0  0.00330  0.52170  0.25215  1.0000 0.0517951017
C   C202      1.0  0.52170  0.51840  0.08548  1.0000 0.0517951017
C   C203      1.0  0.48160  0.00330  0.41881  1.0000 0.0517951017
C   C204      1.0  0.99670  0.47830  0.75215  1.0000 0.0575181426
C   C205      1.0  0.32590  0.46590  0.60446  1.0000 -0.2284375178
C   C206      1.0  0.53410  0.86000  0.93779  1.0000 -0.2284375178
C   C207      1.0  0.14000  0.67410  0.27113  1.0000 -0.2284375178
C   C208      1.0  0.67410  0.53410  0.10446  1.0000 -0.2284375178
C   C209      1.0  0.46590  0.14000  0.43779  1.0000 -0.2284375178
C   C210      1.0  0.86000  0.32590  0.77113  1.0000 -0.2284375178
C   C211      1.0  0.14270  0.85170  0.41456  1.0000 -0.4525719001
C   C212      1.0  0.14830  0.29100  0.74789  1.0000 -0.4525719001
C   C213      1.0  0.70900  0.85730  0.08123  1.0000 -0.4525719001
C   C214      1.0  0.85730  0.14830  0.91456  1.0000 -0.4525719001
C   C215      1.0  0.85170  0.70900  0.24789  1.0000 -0.4525719001
C   C216      1.0  0.29100  0.14270  0.58123  1.0000 -0.4525719001
C   C217      1.0  0.39310  0.80730  0.51581  1.0000 -0.3508418097
C   C218      1.0  0.19270  0.58580  0.84914  1.0000 -0.3508418097
C   C219      1.0  0.41420  0.60690  0.18248  1.0000 -0.3508418097
C   C220      1.0  0.60690  0.19270  0.01581  1.0000 -0.3508418097
C   C221      1.0  0.80730  0.41420  0.34914  1.0000 -0.3508418097
C   C222      1.0  0.58580  0.39310  0.68248  1.0000 -0.3508418097
C   C223      1.0  0.48740  0.42990  0.60853  1.0000 -0.2414687257
C   C224      1.0  0.57010  0.05750  0.94186  1.0000 -0.2414687257
C   C225      1.0  0.94250  0.51260  0.27520  1.0000 -0.2414687257
C   C226      1.0  0.51260  0.57010  0.10853  1.0000 -0.2414687257
C   C227      1.0  0.42990  0.94250  0.44186  1.0000 -0.2414687257
C   C228      1.0  0.05750  0.48740  0.77520  1.0000 -0.2414687257
C   C229      1.0  0.44060  0.44400  0.63142  1.0000 -0.1655186726
C   C230      1.0  0.55600  0.99660  0.96475  1.0000 -0.1655186726
C   C231      1.0  0.00340  0.55940  0.29809  1.0000 -0.1655186726
C   C232      1.0  0.55940  0.55600  0.13142  1.0000 -0.1655186726
C   C233      1.0  0.44400  0.00340  0.46475  1.0000 -0.1655186726
C   C234      1.0  0.99660  0.44060  0.79809  1.0000 -0.1655186726
C   C235      1.0  0.39450  0.67260  0.42340  1.0000 -0.3508418097
C   C236      1.0  0.32740  0.72190  0.75673  1.0000 -0.3508418097
C   C237      1.0  0.27810  0.60550  0.09007  1.0000 -0.3508418097
C   C238      1.0  0.60550  0.32740  0.92340  1.0000 -0.3508418097
C   C239      1.0  0.67260  0.27810  0.25673  1.0000 -0.3508418097
C   C240      1.0  0.72190  0.39450  0.59007  1.0000 -0.3508418097
Br  Br1       1.0  0.73099  0.13934  0.36642  1.0000 -0.5100046062
Br  Br2       1.0  0.86066  0.59165  0.69975  1.0000 -0.5100046062
Br  Br3       1.0  0.40835  0.26901  0.03309  1.0000 -0.5100046062
Br  Br4       1.0  0.26901  0.86066  0.86642  1.0000 -0.5100046062
Br  Br5       1.0  0.13934  0.40835  0.19975  1.0000 -0.5100046062
Br  Br6       1.0  0.59165  0.73099  0.53309  1.0000 -0.5100046062
Br  Br7       1.0  0.08121  0.42117  0.43760  1.0000 -0.5100046062
Br  Br8       1.0  0.57883  0.66004  0.77093  1.0000 -0.5100046062
Br  Br9       1.0  0.33996  0.91879  0.10427  1.0000 -0.5100046062
Br  Br10      1.0  0.91879  0.57883  0.93760  1.0000 -0.5100046062
Br  Br11      1.0  0.42117  0.33996  0.27093  1.0000 -0.5100046062
Br  Br12      1.0  0.66004  0.08121  0.60427  1.0000 -0.5100046062
Br  Br13      1.0  0.85990  0.67346  0.45130  1.0000 -0.5396721377
Br  Br14      1.0  0.32654  0.18644  0.78463  1.0000 -0.5396721377
Br  Br15      1.0  0.81356  0.14010  0.11797  1.0000 -0.5396721377
Br  Br16      1.0  0.14010  0.32654  0.95130  1.0000 -0.5396721377
Br  Br17      1.0  0.67346  0.81356  0.28463  1.0000 -0.5396721377
Br  Br18      1.0  0.18644  0.85990  0.61797  1.0000 -0.5396721377
Br  Br19      1.0  0.32366  0.25697  0.52074  1.0000 -0.5396721377
Br  Br20      1.0  0.74303  0.06669  0.85407  1.0000 -0.5396721377
Br  Br21      1.0  0.93331  0.67634  0.18741  1.0000 -0.5396721377
Br  Br22      1.0  0.67634  0.74303  0.02074  1.0000 -0.5396721377
Br  Br23      1.0  0.25697  0.93331  0.35407  1.0000 -0.5396721377
Br  Br24      1.0  0.06669  0.32366  0.68741  1.0000 -0.5396721377
N   N1        1.0  0.33510  0.60420  0.52330  1.0000 -0.3387350553
N   N2        1.0  0.39580  0.73090  0.85663  1.0000 -0.3387350553
N   N3        1.0  0.26910  0.66490  0.18997  1.0000 -0.3387350553
N   N4        1.0  0.66490  0.39580  0.02330  1.0000 -0.3387350553
N   N5        1.0  0.60420  0.26910  0.35663  1.0000 -0.3387350553
N   N6        1.0  0.73090  0.33510  0.68997  1.0000 -0.3387350553
N   N7        1.0  0.21070  0.67450  0.43789  1.0000 -0.3508418097
N   N8        1.0  0.32550  0.53620  0.77122  1.0000 -0.3508418097
N   N9        1.0  0.46380  0.78930  0.10456  1.0000 -0.3508418097
N   N10       1.0  0.78930  0.32550  0.93789  1.0000 -0.3508418097
N   N11       1.0  0.67450  0.46380  0.27122  1.0000 -0.3508418097
N   N12       1.0  0.53620  0.21070  0.60456  1.0000 -0.3508418097
N   N13       1.0  0.88690  0.46950  0.48119  1.0000 -0.2494645107
N   N14       1.0  0.53050  0.41740  0.81452  1.0000 -0.2494645107
N   N15       1.0  0.58260  0.11310  0.14786  1.0000 -0.2494645107
N   N16       1.0  0.11310  0.53050  0.98119  1.0000 -0.2494645107
N   N17       1.0  0.46950  0.58260  0.31452  1.0000 -0.2494645107
N   N18       1.0  0.41740  0.88690  0.64786  1.0000 -0.2494645107
N   N19       1.0  0.23270  0.55360  0.49160  1.0000 -0.4089803544
N   N20       1.0  0.44640  0.67910  0.82493  1.0000 -0.4089803544
N   N21       1.0  0.32090  0.76730  0.15827  1.0000 -0.4089803544
N   N22       1.0  0.76730  0.44640  0.99160  1.0000 -0.4089803544
N   N23       1.0  0.55360  0.32090  0.32493  1.0000 -0.4089803544
N   N24       1.0  0.67910  0.23270  0.65827  1.0000 -0.4089803544
N   N25       1.0  0.24310  0.77090  0.40525  1.0000 -0.4089803544
N   N26       1.0  0.22910  0.47220  0.73858  1.0000 -0.4089803544
N   N27       1.0  0.52780  0.75690  0.07192  1.0000 -0.4089803544
N   N28       1.0  0.75690  0.22910  0.90525  1.0000 -0.4089803544
N   N29       1.0  0.77090  0.52780  0.23858  1.0000 -0.4089803544
N   N30       1.0  0.47220  0.24310  0.57192  1.0000 -0.4089803544
N   N31       1.0  0.08190  0.62960  0.47593  1.0000 -0.2414687257
N   N32       1.0  0.37040  0.45230  0.80926  1.0000 -0.2414687257
N   N33       1.0  0.54770  0.91810  0.14260  1.0000 -0.2414687257
N   N34       1.0  0.91810  0.37040  0.97593  1.0000 -0.2414687257
N   N35       1.0  0.62960  0.54770  0.30926  1.0000 -0.2414687257
N   N36       1.0  0.45230  0.08190  0.64260  1.0000 -0.2414687257
N   N37       1.0  0.75790  0.41230  0.44316  1.0000 -0.3589236774
N   N38       1.0  0.58770  0.34560  0.77649  1.0000 -0.3589236774
N   N39       1.0  0.65440  0.24210  0.10983  1.0000 -0.3589236774
N   N40       1.0  0.24210  0.58770  0.94316  1.0000 -0.3589236774
N   N41       1.0  0.41230  0.65440  0.27649  1.0000 -0.3589236774
N   N42       1.0  0.34560  0.75790  0.60983  1.0000 -0.3589236774
N   N43       1.0  0.36150  0.50150  0.56033  1.0000 -0.2494645107
N   N44       1.0  0.49850  0.86000  0.89366  1.0000 -0.2494645107
N   N45       1.0  0.14000  0.63850  0.22700  1.0000 -0.2494645107
N   N46       1.0  0.63850  0.49850  0.06033  1.0000 -0.2494645107
N   N47       1.0  0.50150  0.14000  0.39366  1.0000 -0.2494645107
N   N48       1.0  0.86000  0.36150  0.72700  1.0000 -0.2494645107
N   N49       1.0  0.58050  0.40480  0.52356  1.0000 -0.3589236774
N   N50       1.0  0.59520  0.17570  0.85689  1.0000 -0.3589236774
N   N51       1.0  0.82430  0.41950  0.19023  1.0000 -0.3589236774
N   N52       1.0  0.41950  0.59520  0.02356  1.0000 -0.3589236774
N   N53       1.0  0.40480  0.82430  0.35689  1.0000 -0.3589236774
N   N54       1.0  0.17570  0.58050  0.69023  1.0000 -0.3589236774
N   N55       1.0  0.70010  0.48920  0.49693  1.0000 -0.4025786284
N   N56       1.0  0.51080  0.21090  0.83026  1.0000 -0.4025786284
N   N57       1.0  0.78910  0.29990  0.16360  1.0000 -0.4025786284
N   N58       1.0  0.29990  0.51080  0.99693  1.0000 -0.4025786284
N   N59       1.0  0.48920  0.78910  0.33026  1.0000 -0.4025786284
N   N60       1.0  0.21090  0.70010  0.66360  1.0000 -0.4025786284
N   N61       1.0  0.51890  0.46030  0.56341  1.0000 -0.2284375178
N   N62       1.0  0.53970  0.05860  0.89674  1.0000 -0.2284375178
N   N63       1.0  0.94140  0.48110  0.23008  1.0000 -0.2284375178
N   N64       1.0  0.48110  0.53970  0.06341  1.0000 -0.2284375178
N   N65       1.0  0.46030  0.94140  0.39674  1.0000 -0.2284375178
N   N66       1.0  0.05860  0.51890  0.73008  1.0000 -0.2284375178
N   N67       1.0  0.71910  0.29780  0.41444  1.0000 -0.4089803544
N   N68       1.0  0.70220  0.42130  0.74777  1.0000 -0.4089803544
N   N69       1.0  0.57870  0.28090  0.08111  1.0000 -0.4089803544
N   N70       1.0  0.28090  0.70220  0.91444  1.0000 -0.4089803544
N   N71       1.0  0.29780  0.57870  0.24777  1.0000 -0.4089803544
N   N72       1.0  0.42130  0.71910  0.58111  1.0000 -0.4089803544
