# DDEC6 charges by PACMAN v1.1 (https://github.com/mtap-research/PACMAN-charge/)
data_0000[Ag][nan]3[ASR]1
_chemical_formula_sum              "Ag4 H16 C24 N4 O8"
_cell_length_a       3.6934
_cell_length_b       12.1783
_cell_length_c       15.239
_cell_angle_alpha    90
_cell_angle_beta     90.1
_cell_angle_gamma    90

_symmetry_space_group_name_H-M    "P 1"
_symmetry_Int_Tables_number       1

loop_
  _symmetry_equiv_pos_as_xyz
  'x, y, z'

loop_
  _atom_site_type_symbol
  _atom_site_label
  _atom_site_symmetry_multiplicity
  _atom_site_fract_x
  _atom_site_fract_y
  _atom_site_fract_z
  _atom_site_occupancy
  _atom_site_charge
Ag  Ag1       1.0  0.60960  0.57542  0.42476  1.0000 0.4378193175
Ag  Ag2       1.0  0.39040  0.07542  0.07524  1.0000 0.4378193175
Ag  Ag3       1.0  0.39040  0.42458  0.57524  1.0000 0.4378193175
Ag  Ag4       1.0  0.60960  0.92458  0.92476  1.0000 0.4378193175
H   H1        1.0  0.42720  0.55060  0.22210  1.0000 0.0973803108
H   H2        1.0  0.57280  0.05060  0.27790  1.0000 0.0973803108
H   H3        1.0  0.57280  0.44940  0.77790  1.0000 0.0973803108
H   H4        1.0  0.42720  0.94940  0.72210  1.0000 0.0973803108
H   H5        1.0  0.18630  0.63910  0.10350  1.0000 0.1440600609
H   H6        1.0  0.81370  0.13910  0.39650  1.0000 0.1440600609
H   H7        1.0  0.81370  0.36090  0.89650  1.0000 0.1440600609
H   H8        1.0  0.18630  0.86090  0.60350  1.0000 0.1440600609
H   H9        1.0  0.06240  0.90410  0.25350  1.0000 0.1236390775
H   H10       1.0  0.93760  0.40410  0.24650  1.0000 0.1236390775
H   H11       1.0  0.93760  0.09590  0.74650  1.0000 0.1236390775
H   H12       1.0  0.06240  0.59590  0.75350  1.0000 0.1236390775
H   H13       1.0  0.29470  0.80640  0.36930  1.0000 0.1099066144
H   H14       1.0  0.70530  0.30640  0.13070  1.0000 0.1099066144
H   H15       1.0  0.70530  0.19360  0.63070  1.0000 0.1099066144
H   H16       1.0  0.29470  0.69360  0.86930  1.0000 0.1099066144
C   C1        1.0  0.35100  0.62290  0.22880  1.0000 0.0587006515
C   C2        1.0  0.64900  0.12290  0.27120  1.0000 0.0587006515
C   C3        1.0  0.64900  0.37710  0.77120  1.0000 0.0587006515
C   C4        1.0  0.35100  0.87710  0.72880  1.0000 0.0587006515
C   C5        1.0  0.20710  0.67540  0.15700  1.0000 -0.1604708242
C   C6        1.0  0.79290  0.17540  0.34300  1.0000 -0.1604708242
C   C7        1.0  0.79290  0.32460  0.84300  1.0000 -0.1604708242
C   C8        1.0  0.20710  0.82460  0.65700  1.0000 -0.1604708242
C   C9        1.0  0.09400  0.78250  0.16540  1.0000 0.0275284542
C   C10       1.0  0.90600  0.28250  0.33460  1.0000 0.0275284542
C   C11       1.0  0.90600  0.21750  0.83460  1.0000 0.0275284542
C   C12       1.0  0.09400  0.71750  0.66540  1.0000 0.0275284542
C   C13       1.0  0.13300  0.83140  0.24560  1.0000 -0.1604708242
C   C14       1.0  0.86700  0.33140  0.25440  1.0000 -0.1604708242
C   C15       1.0  0.86700  0.16860  0.75440  1.0000 -0.1604708242
C   C16       1.0  0.13300  0.66860  0.74560  1.0000 -0.1604708242
C   C17       1.0  0.27600  0.77230  0.31490  1.0000 0.0674828222
C   C18       1.0  0.72400  0.27230  0.18510  1.0000 0.0674828222
C   C19       1.0  0.72400  0.22770  0.68510  1.0000 0.0674828222
C   C20       1.0  0.27600  0.72770  0.81490  1.0000 0.0674828222
C   C21       1.0  0.92700  0.84270  0.09000  1.0000 0.5481452947
C   C22       1.0  0.07300  0.34270  0.41000  1.0000 0.5481452947
C   C23       1.0  0.07300  0.15730  0.91000  1.0000 0.5481452947
C   C24       1.0  0.92700  0.65730  0.59000  1.0000 0.5481452947
N   N1        1.0  0.38880  0.66910  0.30730  1.0000 -0.2103849607
N   N2        1.0  0.61120  0.16910  0.19270  1.0000 -0.2103849607
N   N3        1.0  0.61120  0.33090  0.69270  1.0000 -0.2103849607
N   N4        1.0  0.38880  0.83090  0.80730  1.0000 -0.2103849607
O   O1        1.0  0.87920  0.94490  0.10090  1.0000 -0.569423675
O   O2        1.0  0.12080  0.44490  0.39910  1.0000 -0.569423675
O   O3        1.0  0.12080  0.05510  0.89910  1.0000 -0.569423675
O   O4        1.0  0.87920  0.55510  0.60090  1.0000 -0.569423675
O   O5        1.0  0.84700  0.79040  0.02300  1.0000 -0.5139123196
O   O6        1.0  0.15300  0.29040  0.47700  1.0000 -0.5139123196
O   O7        1.0  0.15300  0.20960  0.97700  1.0000 -0.5139123196
O   O8        1.0  0.84700  0.70960  0.52300  1.0000 -0.5139123196
