# DDEC6 charges by PACMAN v1.1 (https://github.com/mtap-research/PACMAN-charge/)
data_0000[Cd][pcu]3[ASR]2
_chemical_formula_sum              "Cd3 H90 C72 N36"
_cell_length_a       19.65
_cell_length_b       19.65
_cell_length_c       7.656
_cell_angle_alpha    90
_cell_angle_beta     90
_cell_angle_gamma    120

_symmetry_space_group_name_H-M    "P 1"
_symmetry_Int_Tables_number       1

loop_
  _symmetry_equiv_pos_as_xyz
  'x, y, z'

loop_
  _atom_site_type_symbol
  _atom_site_label
  _atom_site_symmetry_multiplicity
  _atom_site_fract_x
  _atom_site_fract_y
  _atom_site_fract_z
  _atom_site_occupancy
  _atom_site_charge
Cd  Cd1       1.0  0.66667  0.33333  0.35126  1.0000 0.6827068895
Cd  Cd2       1.0  0.33333  0.66667  0.64874  1.0000 0.6827068895
Cd  Cd3       1.0  0.00000  0.00000  0.00000  1.0000 0.6827068895
H   H1        1.0  0.47729  0.18287  0.44218  1.0000 0.089771678
H   H2        1.0  0.52271  0.81713  0.55782  1.0000 0.089771678
H   H3        1.0  0.81713  0.29443  0.44218  1.0000 0.089771678
H   H4        1.0  0.18287  0.70557  0.55782  1.0000 0.089771678
H   H5        1.0  0.70557  0.52271  0.44218  1.0000 0.089771678
H   H6        1.0  0.29443  0.47729  0.55782  1.0000 0.089771678
H   H7        1.0  0.59441  0.40724  0.68084  1.0000 0.089771678
H   H8        1.0  0.40559  0.59276  0.31916  1.0000 0.089771678
H   H9        1.0  0.59276  0.18717  0.68084  1.0000 0.089771678
H   H10       1.0  0.40724  0.81283  0.31916  1.0000 0.089771678
H   H11       1.0  0.81283  0.40559  0.68084  1.0000 0.089771678
H   H12       1.0  0.18717  0.59441  0.31916  1.0000 0.089771678
H   H13       1.0  0.45134  0.31504  0.85329  1.0000 0.1068621769
H   H14       1.0  0.54866  0.68496  0.14671  1.0000 0.1068621769
H   H15       1.0  0.68496  0.13630  0.85329  1.0000 0.1068621769
H   H16       1.0  0.31504  0.86370  0.14671  1.0000 0.1068621769
H   H17       1.0  0.86370  0.54866  0.85329  1.0000 0.1068621769
H   H18       1.0  0.13630  0.45134  0.14671  1.0000 0.1068621769
H   H19       1.0  0.30288  0.17288  0.50069  1.0000 0.0779464678
H   H20       1.0  0.69712  0.82712  0.49931  1.0000 0.0779464678
H   H21       1.0  0.82712  0.13000  0.50069  1.0000 0.0779464678
H   H22       1.0  0.17288  0.87000  0.49931  1.0000 0.0779464678
H   H23       1.0  0.87000  0.69712  0.50069  1.0000 0.0779464678
H   H24       1.0  0.13000  0.30288  0.49931  1.0000 0.0779464678
H   H25       1.0  0.30163  0.22134  0.69822  1.0000 0.0724546432
H   H26       1.0  0.69837  0.77866  0.30178  1.0000 0.0724546432
H   H27       1.0  0.77866  0.08029  0.69822  1.0000 0.0724546432
H   H28       1.0  0.22134  0.91971  0.30178  1.0000 0.0724546432
H   H29       1.0  0.91971  0.69837  0.69822  1.0000 0.0724546432
H   H30       1.0  0.08029  0.30163  0.30178  1.0000 0.0724546432
H   H31       1.0  0.36422  0.15367  0.85852  1.0000 0.0779464678
H   H32       1.0  0.63578  0.84633  0.14148  1.0000 0.0779464678
H   H33       1.0  0.84633  0.21055  0.85852  1.0000 0.0779464678
H   H34       1.0  0.15367  0.78945  0.14148  1.0000 0.0779464678
H   H35       1.0  0.78945  0.63578  0.85852  1.0000 0.0779464678
H   H36       1.0  0.21055  0.36422  0.14148  1.0000 0.0779464678
H   H37       1.0  0.36636  0.10649  0.65894  1.0000 0.0724546432
H   H38       1.0  0.63364  0.89351  0.34106  1.0000 0.0724546432
H   H39       1.0  0.89351  0.25988  0.65894  1.0000 0.0724546432
H   H40       1.0  0.10649  0.74012  0.34106  1.0000 0.0724546432
H   H41       1.0  0.74012  0.63364  0.65894  1.0000 0.0724546432
H   H42       1.0  0.25988  0.36636  0.34106  1.0000 0.0724546432
H   H43       1.0  0.21381  0.01351  0.50367  1.0000 0.1012714214
H   H44       1.0  0.78619  0.98649  0.49633  1.0000 0.1012714214
H   H45       1.0  0.98649  0.20031  0.50367  1.0000 0.1012714214
H   H46       1.0  0.01351  0.79969  0.49633  1.0000 0.1012714214
H   H47       1.0  0.79969  0.78619  0.50367  1.0000 0.1012714214
H   H48       1.0  0.20031  0.21381  0.49633  1.0000 0.1012714214
H   H49       1.0  0.06982  0.92315  0.67543  1.0000 0.089771678
H   H50       1.0  0.93018  0.07685  0.32457  1.0000 0.089771678
H   H51       1.0  0.07685  0.14667  0.67543  1.0000 0.089771678
H   H52       1.0  0.92315  0.85333  0.32457  1.0000 0.089771678
H   H53       1.0  0.85333  0.93018  0.67543  1.0000 0.089771678
H   H54       1.0  0.14667  0.06982  0.32457  1.0000 0.089771678
H   H55       1.0  0.19109  0.14619  0.91750  1.0000 0.089771678
H   H56       1.0  0.80891  0.85381  0.08250  1.0000 0.089771678
H   H57       1.0  0.85381  0.04490  0.91750  1.0000 0.089771678
H   H58       1.0  0.14619  0.95510  0.08250  1.0000 0.089771678
H   H59       1.0  0.95510  0.80891  0.91750  1.0000 0.089771678
H   H60       1.0  0.04490  0.19109  0.08250  1.0000 0.089771678
H   H61       1.0  0.52003  0.38508  0.29657  1.0000 0.089771678
H   H62       1.0  0.47997  0.61492  0.70343  1.0000 0.089771678
H   H63       1.0  0.61492  0.13494  0.29657  1.0000 0.089771678
H   H64       1.0  0.38508  0.86506  0.70343  1.0000 0.089771678
H   H65       1.0  0.86506  0.47997  0.29657  1.0000 0.089771678
H   H66       1.0  0.13494  0.52003  0.70343  1.0000 0.089771678
H   H67       1.0  0.73107  0.46682  0.00920  1.0000 0.089771678
H   H68       1.0  0.26893  0.53318  0.99080  1.0000 0.089771678
H   H69       1.0  0.53318  0.26426  0.00920  1.0000 0.089771678
H   H70       1.0  0.46682  0.73574  0.99080  1.0000 0.089771678
H   H71       1.0  0.73574  0.26893  0.00920  1.0000 0.089771678
H   H72       1.0  0.26426  0.73107  0.99080  1.0000 0.089771678
H   H73       1.0  0.65905  0.55380  0.91111  1.0000 0.1012714214
H   H74       1.0  0.34095  0.44620  0.08889  1.0000 0.1012714214
H   H75       1.0  0.44620  0.10525  0.91111  1.0000 0.1012714214
H   H76       1.0  0.55380  0.89475  0.08889  1.0000 0.1012714214
H   H77       1.0  0.89475  0.34095  0.91111  1.0000 0.1012714214
H   H78       1.0  0.10525  0.65905  0.08889  1.0000 0.1012714214
H   H79       1.0  0.55050  0.56836  0.12869  1.0000 0.0724546432
H   H80       1.0  0.44950  0.43164  0.87131  1.0000 0.0724546432
H   H81       1.0  0.43164  0.98214  0.12869  1.0000 0.0724546432
H   H82       1.0  0.56836  0.01786  0.87131  1.0000 0.0724546432
H   H83       1.0  0.01786  0.44950  0.12869  1.0000 0.0724546432
H   H84       1.0  0.98214  0.55050  0.87131  1.0000 0.0724546432
H   H85       1.0  0.47192  0.47249  0.19041  1.0000 0.0779464678
H   H86       1.0  0.52808  0.52751  0.80959  1.0000 0.0779464678
H   H87       1.0  0.52751  0.99942  0.19041  1.0000 0.0779464678
H   H88       1.0  0.47249  0.00058  0.80959  1.0000 0.0779464678
H   H89       1.0  0.00058  0.52808  0.19041  1.0000 0.0779464678
H   H90       1.0  0.99942  0.47192  0.80959  1.0000 0.0779464678
C   C1        1.0  0.49105  0.23189  0.53063  1.0000 0.0473497863
C   C2        1.0  0.50895  0.76811  0.46937  1.0000 0.0473497863
C   C3        1.0  0.76811  0.25916  0.53063  1.0000 0.0473497863
C   C4        1.0  0.23189  0.74084  0.46937  1.0000 0.0473497863
C   C5        1.0  0.74084  0.50895  0.53063  1.0000 0.0473497863
C   C6        1.0  0.25916  0.49105  0.46937  1.0000 0.0473497863
C   C7        1.0  0.54890  0.34669  0.65797  1.0000 -0.0527611529
C   C8        1.0  0.45110  0.65331  0.34203  1.0000 -0.0527611529
C   C9        1.0  0.65331  0.20221  0.65797  1.0000 -0.0527611529
C   C10       1.0  0.34669  0.79779  0.34203  1.0000 -0.0527611529
C   C11       1.0  0.79779  0.45110  0.65797  1.0000 -0.0527611529
C   C12       1.0  0.20221  0.54890  0.34203  1.0000 -0.0527611529
C   C13       1.0  0.47905  0.30204  0.74523  1.0000 -0.1597302719
C   C14       1.0  0.52095  0.69796  0.25477  1.0000 -0.1597302719
C   C15       1.0  0.69796  0.17702  0.74523  1.0000 -0.1597302719
C   C16       1.0  0.30204  0.82298  0.25477  1.0000 -0.1597302719
C   C17       1.0  0.82298  0.52095  0.74523  1.0000 -0.1597302719
C   C18       1.0  0.17702  0.47905  0.25477  1.0000 -0.1597302719
C   C19       1.0  0.29914  0.16735  0.64497  1.0000 -0.0913731461
C   C20       1.0  0.70086  0.83265  0.35503  1.0000 -0.0913731461
C   C21       1.0  0.83265  0.13179  0.64497  1.0000 -0.0913731461
C   C22       1.0  0.16735  0.86821  0.35503  1.0000 -0.0913731461
C   C23       1.0  0.86821  0.70086  0.64497  1.0000 -0.0913731461
C   C24       1.0  0.13179  0.29914  0.35503  1.0000 -0.0913731461
C   C25       1.0  0.36845  0.16001  0.71426  1.0000 -0.0913731461
C   C26       1.0  0.63155  0.83999  0.28574  1.0000 -0.0913731461
C   C27       1.0  0.83999  0.20845  0.71426  1.0000 -0.0913731461
C   C28       1.0  0.16001  0.79155  0.28574  1.0000 -0.0913731461
C   C29       1.0  0.79155  0.63155  0.71426  1.0000 -0.0913731461
C   C30       1.0  0.20845  0.36845  0.28574  1.0000 -0.0913731461
C   C31       1.0  0.18709  0.02623  0.61395  1.0000 -0.1597302719
C   C32       1.0  0.81291  0.97377  0.38605  1.0000 -0.1597302719
C   C33       1.0  0.97377  0.16086  0.61395  1.0000 -0.1597302719
C   C34       1.0  0.02623  0.83914  0.38605  1.0000 -0.1597302719
C   C35       1.0  0.83914  0.81291  0.61395  1.0000 -0.1597302719
C   C36       1.0  0.16086  0.18709  0.38605  1.0000 -0.1597302719
C   C37       1.0  0.11712  0.98245  0.70122  1.0000 -0.0527611529
C   C38       1.0  0.88288  0.01755  0.29878  1.0000 -0.0527611529
C   C39       1.0  0.01755  0.13467  0.70122  1.0000 -0.0527611529
C   C40       1.0  0.98245  0.86533  0.29878  1.0000 -0.0527611529
C   C41       1.0  0.86533  0.88288  0.70122  1.0000 -0.0527611529
C   C42       1.0  0.13467  0.11712  0.29878  1.0000 -0.0527611529
C   C43       1.0  0.17727  0.09689  0.83044  1.0000 0.0473497863
C   C44       1.0  0.82273  0.90311  0.16956  1.0000 0.0473497863
C   C45       1.0  0.90311  0.08038  0.83044  1.0000 0.0473497863
C   C46       1.0  0.09689  0.91962  0.16956  1.0000 0.0473497863
C   C47       1.0  0.91962  0.82273  0.83044  1.0000 0.0473497863
C   C48       1.0  0.08038  0.17727  0.16956  1.0000 0.0473497863
C   C49       1.0  0.56849  0.41824  0.20569  1.0000 0.0473497863
C   C50       1.0  0.43151  0.58176  0.79431  1.0000 0.0473497863
C   C51       1.0  0.58176  0.15025  0.20569  1.0000 0.0473497863
C   C52       1.0  0.41824  0.84975  0.79431  1.0000 0.0473497863
C   C53       1.0  0.84975  0.43151  0.20569  1.0000 0.0473497863
C   C54       1.0  0.15025  0.56849  0.79431  1.0000 0.0473497863
C   C55       1.0  0.67679  0.46291  0.05488  1.0000 -0.0527611529
C   C56       1.0  0.32321  0.53709  0.94512  1.0000 -0.0527611529
C   C57       1.0  0.53709  0.21388  0.05488  1.0000 -0.0527611529
C   C58       1.0  0.46291  0.78612  0.94512  1.0000 -0.0527611529
C   C59       1.0  0.78612  0.32321  0.05488  1.0000 -0.0527611529
C   C60       1.0  0.21388  0.67679  0.94512  1.0000 -0.0527611529
C   C61       1.0  0.64185  0.50501  0.00132  1.0000 -0.1597302719
C   C62       1.0  0.35815  0.49499  0.99868  1.0000 -0.1597302719
C   C63       1.0  0.49499  0.13684  0.00132  1.0000 -0.1597302719
C   C64       1.0  0.50501  0.86316  0.99868  1.0000 -0.1597302719
C   C65       1.0  0.86316  0.35815  0.00132  1.0000 -0.1597302719
C   C66       1.0  0.13684  0.64185  0.99868  1.0000 -0.1597302719
C   C67       1.0  0.51807  0.50514  0.09111  1.0000 -0.0981737554
C   C68       1.0  0.48193  0.49486  0.90889  1.0000 -0.0981737554
C   C69       1.0  0.49486  0.01293  0.09111  1.0000 -0.0981737554
C   C70       1.0  0.50514  0.98707  0.90889  1.0000 -0.0981737554
C   C71       1.0  0.98707  0.48193  0.09111  1.0000 -0.0981737554
C   C72       1.0  0.01293  0.51807  0.90889  1.0000 -0.0981737554
N   N1        1.0  0.55647  0.30291  0.52553  1.0000 -0.3032067026
N   N2        1.0  0.44353  0.69709  0.47447  1.0000 -0.3032067026
N   N3        1.0  0.69709  0.25355  0.52553  1.0000 -0.3032067026
N   N4        1.0  0.30291  0.74645  0.47447  1.0000 -0.3032067026
N   N5        1.0  0.74645  0.44353  0.52553  1.0000 -0.3032067026
N   N6        1.0  0.25355  0.55647  0.47447  1.0000 -0.3032067026
N   N7        1.0  0.44302  0.22815  0.66520  1.0000 0.0138781693
N   N8        1.0  0.55698  0.77185  0.33480  1.0000 0.0138781693
N   N9        1.0  0.77185  0.21487  0.66520  1.0000 0.0138781693
N   N10       1.0  0.22815  0.78513  0.33480  1.0000 0.0138781693
N   N11       1.0  0.78513  0.55698  0.66520  1.0000 0.0138781693
N   N12       1.0  0.21487  0.44302  0.33480  1.0000 0.0138781693
N   N13       1.0  0.22425  0.09994  0.69402  1.0000 0.0166873852
N   N14       1.0  0.77575  0.90006  0.30598  1.0000 0.0166873852
N   N15       1.0  0.90006  0.12431  0.69402  1.0000 0.0166873852
N   N16       1.0  0.09994  0.87569  0.30598  1.0000 0.0166873852
N   N17       1.0  0.87569  0.77575  0.69402  1.0000 0.0166873852
N   N18       1.0  0.12431  0.22425  0.30598  1.0000 0.0166873852
N   N19       1.0  0.11101  0.02636  0.83559  1.0000 -0.3050864369
N   N20       1.0  0.88899  0.97364  0.16441  1.0000 -0.3050864369
N   N21       1.0  0.97364  0.08465  0.83559  1.0000 -0.3050864369
N   N22       1.0  0.02636  0.91535  0.16441  1.0000 -0.3050864369
N   N23       1.0  0.91535  0.88899  0.83559  1.0000 -0.3050864369
N   N24       1.0  0.08465  0.11101  0.16441  1.0000 -0.3050864369
N   N25       1.0  0.63109  0.40892  0.18170  1.0000 -0.3032067026
N   N26       1.0  0.36891  0.59108  0.81830  1.0000 -0.3032067026
N   N27       1.0  0.59108  0.22216  0.18170  1.0000 -0.3032067026
N   N28       1.0  0.40892  0.77784  0.81830  1.0000 -0.3032067026
N   N29       1.0  0.77784  0.36891  0.18170  1.0000 -0.3032067026
N   N30       1.0  0.22216  0.63109  0.81830  1.0000 -0.3032067026
N   N31       1.0  0.57203  0.47500  0.09568  1.0000 0.0166873852
N   N32       1.0  0.42797  0.52500  0.90432  1.0000 0.0166873852
N   N33       1.0  0.52500  0.09703  0.09568  1.0000 0.0166873852
N   N34       1.0  0.47500  0.90297  0.90432  1.0000 0.0166873852
N   N35       1.0  0.90297  0.42797  0.09568  1.0000 0.0166873852
N   N36       1.0  0.09703  0.57203  0.90432  1.0000 0.0166873852
