# DDEC6 charges by PACMAN v1.1 (https://github.com/mtap-research/PACMAN-charge/)
data_0000[Cd][nan]3[ASR]12
_chemical_formula_sum              "Cd8 H192 C200 N32 O32"
_cell_length_a       22.1015
_cell_length_b       22.1015
_cell_length_c       24.938
_cell_angle_alpha    90
_cell_angle_beta     90
_cell_angle_gamma    134.412

_symmetry_space_group_name_H-M    "P 1"
_symmetry_Int_Tables_number       1

loop_
  _symmetry_equiv_pos_as_xyz
  'x, y, z'

loop_
  _atom_site_type_symbol
  _atom_site_label
  _atom_site_symmetry_multiplicity
  _atom_site_fract_x
  _atom_site_fract_y
  _atom_site_fract_z
  _atom_site_occupancy
  _atom_site_charge
Cd  Cd1       1.0  0.50000  0.50000  0.18226  1.0000 0.5974993858
Cd  Cd2       1.0  0.00000  0.00000  0.68226  1.0000 0.5974993858
Cd  Cd3       1.0  0.50000  0.00000  0.68929  1.0000 0.5833682273
Cd  Cd4       1.0  0.50000  0.00000  0.18929  1.0000 0.5833682273
Cd  Cd5       1.0  0.50000  0.50000  0.81774  1.0000 0.5974993858
Cd  Cd6       1.0  0.00000  0.00000  0.31774  1.0000 0.5974993858
Cd  Cd7       1.0  0.00000  0.50000  0.31071  1.0000 0.5833682273
Cd  Cd8       1.0  0.00000  0.50000  0.81071  1.0000 0.5833682273
H   H1        1.0  0.52530  0.14810  0.74450  1.0000 0.089447614
H   H2        1.0  0.47470  0.85190  0.74450  1.0000 0.089447614
H   H3        1.0  0.64810  0.02530  0.24450  1.0000 0.089447614
H   H4        1.0  0.35190  0.97470  0.24450  1.0000 0.089447614
H   H5        1.0  0.47580  0.17540  0.81170  1.0000 0.1298920003
H   H6        1.0  0.52420  0.82460  0.81170  1.0000 0.1298920003
H   H7        1.0  0.67540  0.97580  0.31170  1.0000 0.1298920003
H   H8        1.0  0.32460  0.02420  0.31170  1.0000 0.1298920003
H   H9        1.0  0.31290  0.93270  0.84980  1.0000 0.1428925687
H   H10       1.0  0.68710  0.06730  0.84980  1.0000 0.1428925687
H   H11       1.0  0.43270  0.81290  0.34980  1.0000 0.1428925687
H   H12       1.0  0.56730  0.18710  0.34980  1.0000 0.1428925687
H   H13       1.0  0.36480  0.91260  0.78090  1.0000 0.089447614
H   H14       1.0  0.63520  0.08740  0.78090  1.0000 0.089447614
H   H15       1.0  0.41260  0.86480  0.28090  1.0000 0.089447614
H   H16       1.0  0.58740  0.13520  0.28090  1.0000 0.089447614
H   H17       1.0  0.39990  0.17850  0.86450  1.0000 0.089447614
H   H18       1.0  0.60010  0.82150  0.86450  1.0000 0.089447614
H   H19       1.0  0.67850  0.89990  0.36450  1.0000 0.089447614
H   H20       1.0  0.32150  0.10010  0.36450  1.0000 0.089447614
H   H21       1.0  0.45410  0.18410  0.90910  1.0000 0.089447614
H   H22       1.0  0.54590  0.81590  0.90910  1.0000 0.089447614
H   H23       1.0  0.68410  0.95410  0.40910  1.0000 0.089447614
H   H24       1.0  0.31590  0.04590  0.40910  1.0000 0.089447614
H   H25       1.0  0.22620  0.03640  0.90400  1.0000 0.089447614
H   H26       1.0  0.77380  0.96360  0.90400  1.0000 0.089447614
H   H27       1.0  0.53640  0.72620  0.40400  1.0000 0.089447614
H   H28       1.0  0.46360  0.27380  0.40400  1.0000 0.089447614
H   H29       1.0  0.21940  0.08700  0.94370  1.0000 0.089447614
H   H30       1.0  0.78060  0.91300  0.94370  1.0000 0.089447614
H   H31       1.0  0.58700  0.71940  0.44370  1.0000 0.089447614
H   H32       1.0  0.41300  0.28060  0.44370  1.0000 0.089447614
H   H33       1.0  0.11090  0.99250  0.86630  1.0000 0.1298920003
H   H34       1.0  0.88910  0.00750  0.86630  1.0000 0.1298920003
H   H35       1.0  0.49250  0.61090  0.36630  1.0000 0.1298920003
H   H36       1.0  0.50750  0.38910  0.36630  1.0000 0.1298920003
H   H37       1.0  0.02020  0.94400  0.79570  1.0000 0.089447614
H   H38       1.0  0.97980  0.05600  0.79570  1.0000 0.089447614
H   H39       1.0  0.44400  0.52020  0.29570  1.0000 0.089447614
H   H40       1.0  0.55600  0.47980  0.29570  1.0000 0.089447614
H   H41       1.0  0.19140  0.15280  0.71730  1.0000 0.0801918516
H   H42       1.0  0.80860  0.84720  0.71730  1.0000 0.0801918516
H   H43       1.0  0.65280  0.69140  0.21730  1.0000 0.0801918516
H   H44       1.0  0.34720  0.30860  0.21730  1.0000 0.0801918516
H   H45       1.0  0.28630  0.21030  0.78740  1.0000 0.1298920003
H   H46       1.0  0.71370  0.78970  0.78740  1.0000 0.1298920003
H   H47       1.0  0.71030  0.78630  0.28740  1.0000 0.1298920003
H   H48       1.0  0.28970  0.21370  0.28740  1.0000 0.1298920003
H   H49       1.0  0.29150  0.07630  0.01350  1.0000 0.089447614
H   H50       1.0  0.70850  0.92370  0.01350  1.0000 0.089447614
H   H51       1.0  0.57630  0.79150  0.51350  1.0000 0.089447614
H   H52       1.0  0.42370  0.20850  0.51350  1.0000 0.089447614
H   H53       1.0  0.29960  0.02720  0.97300  1.0000 0.089447614
H   H54       1.0  0.70040  0.97280  0.97300  1.0000 0.089447614
H   H55       1.0  0.52720  0.79960  0.47300  1.0000 0.089447614
H   H56       1.0  0.47280  0.20040  0.47300  1.0000 0.089447614
H   H57       1.0  0.30760  0.98660  0.05320  1.0000 0.1298920003
H   H58       1.0  0.69240  0.01340  0.05320  1.0000 0.1298920003
H   H59       1.0  0.48660  0.80760  0.55320  1.0000 0.1298920003
H   H60       1.0  0.51340  0.19240  0.55320  1.0000 0.1298920003
H   H61       1.0  0.34090  0.94510  0.12330  1.0000 0.089447614
H   H62       1.0  0.65910  0.05490  0.12330  1.0000 0.089447614
H   H63       1.0  0.44510  0.84090  0.62330  1.0000 0.089447614
H   H64       1.0  0.55490  0.15910  0.62330  1.0000 0.089447614
H   H65       1.0  0.57420  0.14460  0.11040  1.0000 0.089447614
H   H66       1.0  0.42580  0.85540  0.11040  1.0000 0.089447614
H   H67       1.0  0.64460  0.07420  0.61040  1.0000 0.089447614
H   H68       1.0  0.35540  0.92580  0.61040  1.0000 0.089447614
H   H69       1.0  0.54790  0.19510  0.04270  1.0000 0.1428925687
H   H70       1.0  0.45210  0.80490  0.04270  1.0000 0.1428925687
H   H71       1.0  0.69510  0.04790  0.54270  1.0000 0.1428925687
H   H72       1.0  0.30490  0.95210  0.54270  1.0000 0.1428925687
H   H73       1.0  0.43930  0.25190  0.97500  1.0000 0.089447614
H   H74       1.0  0.56070  0.74810  0.97500  1.0000 0.089447614
H   H75       1.0  0.75190  0.93930  0.47500  1.0000 0.089447614
H   H76       1.0  0.24810  0.06070  0.47500  1.0000 0.089447614
H   H77       1.0  0.39920  0.26120  0.92780  1.0000 0.089447614
H   H78       1.0  0.60080  0.73880  0.92780  1.0000 0.089447614
H   H79       1.0  0.76120  0.89920  0.42780  1.0000 0.089447614
H   H80       1.0  0.23880  0.10080  0.42780  1.0000 0.089447614
H   H81       1.0  0.49140  0.35820  0.01370  1.0000 0.1224227812
H   H82       1.0  0.50860  0.64180  0.01370  1.0000 0.1224227812
H   H83       1.0  0.85820  0.99140  0.51370  1.0000 0.1224227812
H   H84       1.0  0.14180  0.00860  0.51370  1.0000 0.1224227812
H   H85       1.0  0.54040  0.45520  0.07930  1.0000 0.0801918516
H   H86       1.0  0.45960  0.54480  0.07930  1.0000 0.0801918516
H   H87       1.0  0.95520  0.04040  0.57930  1.0000 0.0801918516
H   H88       1.0  0.04480  0.95960  0.57930  1.0000 0.0801918516
H   H89       1.0  0.31370  0.33333  0.12670  1.0000 0.089447614
H   H90       1.0  0.68630  0.66667  0.12670  1.0000 0.089447614
H   H91       1.0  0.83330  0.81370  0.62670  1.0000 0.089447614
H   H92       1.0  0.16670  0.18630  0.62670  1.0000 0.089447614
H   H93       1.0  0.25830  0.23430  0.06100  1.0000 0.1561755989
H   H94       1.0  0.74170  0.76570  0.06100  1.0000 0.1561755989
H   H95       1.0  0.73430  0.75830  0.56100  1.0000 0.1561755989
H   H96       1.0  0.26570  0.24170  0.56100  1.0000 0.1561755989
H   H97       1.0  0.85190  0.47470  0.25550  1.0000 0.089447614
H   H98       1.0  0.14810  0.52530  0.25550  1.0000 0.089447614
H   H99       1.0  0.97470  0.35190  0.75550  1.0000 0.089447614
H   H100      1.0  0.02530  0.64810  0.75550  1.0000 0.089447614
H   H101      1.0  0.82460  0.52420  0.18830  1.0000 0.1298920003
H   H102      1.0  0.17540  0.47580  0.18830  1.0000 0.1298920003
H   H103      1.0  0.02420  0.32460  0.68830  1.0000 0.1298920003
H   H104      1.0  0.97580  0.67540  0.68830  1.0000 0.1298920003
H   H105      1.0  0.06730  0.68710  0.15020  1.0000 0.1428925687
H   H106      1.0  0.93270  0.31290  0.15020  1.0000 0.1428925687
H   H107      1.0  0.18710  0.56730  0.65020  1.0000 0.1428925687
H   H108      1.0  0.81290  0.43270  0.65020  1.0000 0.145732567
H   H109      1.0  0.08740  0.63520  0.21910  1.0000 0.089447614
H   H110      1.0  0.91260  0.36480  0.21910  1.0000 0.089447614
H   H111      1.0  0.13520  0.58740  0.71910  1.0000 0.089447614
H   H112      1.0  0.86480  0.41260  0.71910  1.0000 0.089447614
H   H113      1.0  0.82150  0.60010  0.13550  1.0000 0.089447614
H   H114      1.0  0.17850  0.39990  0.13550  1.0000 0.089447614
H   H115      1.0  0.10010  0.32150  0.63550  1.0000 0.089447614
H   H116      1.0  0.89990  0.67850  0.63550  1.0000 0.089447614
H   H117      1.0  0.81590  0.54590  0.09090  1.0000 0.089447614
H   H118      1.0  0.18410  0.45410  0.09090  1.0000 0.089447614
H   H119      1.0  0.04590  0.31590  0.59090  1.0000 0.089447614
H   H120      1.0  0.95410  0.68410  0.59090  1.0000 0.089447614
H   H121      1.0  0.96360  0.77380  0.09600  1.0000 0.089447614
H   H122      1.0  0.03640  0.22620  0.09600  1.0000 0.089447614
H   H123      1.0  0.27380  0.46360  0.59600  1.0000 0.089447614
H   H124      1.0  0.72620  0.53640  0.59600  1.0000 0.089447614
H   H125      1.0  0.91300  0.78060  0.05630  1.0000 0.089447614
H   H126      1.0  0.08700  0.21940  0.05630  1.0000 0.089447614
H   H127      1.0  0.28060  0.41300  0.55630  1.0000 0.089447614
H   H128      1.0  0.71940  0.58700  0.55630  1.0000 0.089447614
H   H129      1.0  0.00750  0.88910  0.13370  1.0000 0.1298920003
H   H130      1.0  0.99250  0.11090  0.13370  1.0000 0.1298920003
H   H131      1.0  0.38910  0.50750  0.63370  1.0000 0.1298920003
H   H132      1.0  0.61090  0.49250  0.63370  1.0000 0.1298920003
H   H133      1.0  0.05600  0.97980  0.20430  1.0000 0.089447614
H   H134      1.0  0.94400  0.02020  0.20430  1.0000 0.089447614
H   H135      1.0  0.47980  0.55600  0.70430  1.0000 0.089447614
H   H136      1.0  0.52020  0.44400  0.70430  1.0000 0.089447614
H   H137      1.0  0.84720  0.80860  0.28270  1.0000 0.0801918516
H   H138      1.0  0.15280  0.19140  0.28270  1.0000 0.0801918516
H   H139      1.0  0.30860  0.34720  0.78270  1.0000 0.0801918516
H   H140      1.0  0.69140  0.65280  0.78270  1.0000 0.0801918516
H   H141      1.0  0.78970  0.71370  0.21260  1.0000 0.1298920003
H   H142      1.0  0.21030  0.28630  0.21260  1.0000 0.1298920003
H   H143      1.0  0.21370  0.28970  0.71260  1.0000 0.1298920003
H   H144      1.0  0.78630  0.71030  0.71260  1.0000 0.1298920003
H   H145      1.0  0.92370  0.70850  0.98650  1.0000 0.089447614
H   H146      1.0  0.07630  0.29150  0.98650  1.0000 0.089447614
H   H147      1.0  0.20850  0.42370  0.48650  1.0000 0.089447614
H   H148      1.0  0.79150  0.57630  0.48650  1.0000 0.089447614
H   H149      1.0  0.97280  0.70040  0.02700  1.0000 0.089447614
H   H150      1.0  0.02720  0.29960  0.02700  1.0000 0.089447614
H   H151      1.0  0.20040  0.47280  0.52700  1.0000 0.089447614
H   H152      1.0  0.79960  0.52720  0.52700  1.0000 0.089447614
H   H153      1.0  0.01340  0.69240  0.94680  1.0000 0.1298920003
H   H154      1.0  0.98660  0.30760  0.94680  1.0000 0.1298920003
H   H155      1.0  0.19240  0.51340  0.44680  1.0000 0.1298920003
H   H156      1.0  0.80760  0.48660  0.44680  1.0000 0.1298920003
H   H157      1.0  0.05490  0.65910  0.87670  1.0000 0.089447614
H   H158      1.0  0.94510  0.34090  0.87670  1.0000 0.0801918516
H   H159      1.0  0.15910  0.55490  0.37670  1.0000 0.0801918516
H   H160      1.0  0.84090  0.44510  0.37670  1.0000 0.089447614
H   H161      1.0  0.85540  0.42580  0.88960  1.0000 0.089447614
H   H162      1.0  0.14460  0.57420  0.88960  1.0000 0.089447614
H   H163      1.0  0.92580  0.35540  0.38960  1.0000 0.089447614
H   H164      1.0  0.07420  0.64460  0.38960  1.0000 0.089447614
H   H165      1.0  0.80490  0.45210  0.95730  1.0000 0.1428925687
H   H166      1.0  0.19510  0.54790  0.95730  1.0000 0.1428925687
H   H167      1.0  0.95210  0.30490  0.45730  1.0000 0.1428925687
H   H168      1.0  0.04790  0.69510  0.45730  1.0000 0.1428925687
H   H169      1.0  0.74810  0.56070  0.02500  1.0000 0.089447614
H   H170      1.0  0.25190  0.43930  0.02500  1.0000 0.089447614
H   H171      1.0  0.06070  0.24810  0.52500  1.0000 0.089447614
H   H172      1.0  0.93930  0.75190  0.52500  1.0000 0.089447614
H   H173      1.0  0.73880  0.60080  0.07220  1.0000 0.089447614
H   H174      1.0  0.26120  0.39920  0.07220  1.0000 0.089447614
H   H175      1.0  0.10080  0.23880  0.57220  1.0000 0.089447614
H   H176      1.0  0.89920  0.76120  0.57220  1.0000 0.089447614
H   H177      1.0  0.64180  0.50860  0.98630  1.0000 0.1224227812
H   H178      1.0  0.35820  0.49140  0.98630  1.0000 0.1224227812
H   H179      1.0  0.00860  0.14180  0.48630  1.0000 0.1224227812
H   H180      1.0  0.99140  0.85820  0.48630  1.0000 0.1224227812
H   H181      1.0  0.54480  0.45960  0.92070  1.0000 0.0801918516
H   H182      1.0  0.45520  0.54040  0.92070  1.0000 0.0801918516
H   H183      1.0  0.95960  0.04480  0.42070  1.0000 0.0801918516
H   H184      1.0  0.04040  0.95520  0.42070  1.0000 0.0801918516
H   H185      1.0  0.66667  0.68630  0.87330  1.0000 0.089447614
H   H186      1.0  0.33333  0.31370  0.87330  1.0000 0.089447614
H   H187      1.0  0.18630  0.16670  0.37330  1.0000 0.089447614
H   H188      1.0  0.81370  0.83330  0.37330  1.0000 0.089447614
H   H189      1.0  0.76570  0.74170  0.93900  1.0000 0.1561755989
H   H190      1.0  0.23430  0.25830  0.93900  1.0000 0.1561755989
H   H191      1.0  0.24170  0.26570  0.43900  1.0000 0.1561755989
H   H192      1.0  0.75830  0.73430  0.43900  1.0000 0.1561755989
C   C1        1.0  0.48120  0.10340  0.76606  1.0000 0.057026707
C   C2        1.0  0.51880  0.89660  0.76606  1.0000 0.057026707
C   C3        1.0  0.60340  0.98120  0.26606  1.0000 0.057026707
C   C4        1.0  0.39660  0.01880  0.26606  1.0000 0.057026707
C   C5        1.0  0.45231  0.12069  0.80691  1.0000 -0.2917026427
C   C6        1.0  0.54769  0.87931  0.80691  1.0000 -0.2917026427
C   C7        1.0  0.62069  0.95231  0.30691  1.0000 -0.2917026427
C   C8        1.0  0.37931  0.04769  0.30691  1.0000 -0.2917026427
C   C9        1.0  0.38990  0.05750  0.83964  1.0000 0.2704971957
C   C10       1.0  0.61010  0.94250  0.83964  1.0000 0.2704971957
C   C11       1.0  0.55750  0.88990  0.33964  1.0000 0.2704971957
C   C12       1.0  0.44250  0.11010  0.33964  1.0000 0.2704971957
C   C13       1.0  0.35681  0.97859  0.82894  1.0000 -0.3003239873
C   C14       1.0  0.64319  0.02141  0.82894  1.0000 -0.3003239873
C   C15       1.0  0.47859  0.85681  0.32894  1.0000 -0.3003239873
C   C16       1.0  0.52141  0.14319  0.32894  1.0000 -0.3003239873
C   C17       1.0  0.38852  0.96708  0.78728  1.0000 0.057026707
C   C18       1.0  0.61148  0.03292  0.78728  1.0000 0.057026707
C   C19       1.0  0.46708  0.88852  0.28728  1.0000 0.057026707
C   C20       1.0  0.53292  0.11148  0.28728  1.0000 0.057026707
C   C21       1.0  0.39721  0.15039  0.89559  1.0000 -0.1093084306
C   C22       1.0  0.60279  0.84961  0.89559  1.0000 -0.1093084306
C   C23       1.0  0.65039  0.89721  0.39559  1.0000 -0.1093084306
C   C24       1.0  0.34961  0.10279  0.39559  1.0000 -0.1093084306
C   C25       1.0  0.34165  0.13909  0.93845  1.0000 0.0801918516
C   C26       1.0  0.65835  0.86091  0.93845  1.0000 0.0801918516
C   C27       1.0  0.63909  0.84165  0.43845  1.0000 0.0801918516
C   C28       1.0  0.36091  0.15835  0.43845  1.0000 0.0801918516
C   C29       1.0  0.25424  0.09256  0.91636  1.0000 -0.1003240101
C   C30       1.0  0.74576  0.90744  0.91636  1.0000 -0.1003240101
C   C31       1.0  0.59256  0.75424  0.41636  1.0000 -0.1003240101
C   C32       1.0  0.40744  0.24576  0.41636  1.0000 -0.1003240101
C   C33       1.0  0.20811  0.10629  0.83416  1.0000 0.2625237501
C   C34       1.0  0.79189  0.89371  0.83416  1.0000 0.2625237501
C   C35       1.0  0.60629  0.70811  0.33416  1.0000 0.2625237501
C   C36       1.0  0.39371  0.29189  0.33416  1.0000 0.2625237501
C   C37       1.0  0.12846  0.02674  0.83645  1.0000 -0.279087111
C   C38       1.0  0.87154  0.97326  0.83645  1.0000 -0.279087111
C   C39       1.0  0.52674  0.62846  0.33645  1.0000 -0.279087111
C   C40       1.0  0.47326  0.37154  0.33645  1.0000 -0.279087111
C   C41       1.0  0.07469  0.99811  0.79378  1.0000 0.052469463
C   C42       1.0  0.92531  0.00189  0.79378  1.0000 0.052469463
C   C43       1.0  0.49811  0.57469  0.29378  1.0000 0.052469463
C   C44       1.0  0.50189  0.42531  0.29378  1.0000 0.052469463
C   C45       1.0  0.17454  0.12046  0.74807  1.0000 0.0698637854
C   C46       1.0  0.82546  0.87954  0.74807  1.0000 0.0698637854
C   C47       1.0  0.62046  0.67454  0.24807  1.0000 0.0698637854
C   C48       1.0  0.37954  0.32546  0.24807  1.0000 0.0698637854
C   C49       1.0  0.23267  0.15553  0.78966  1.0000 -0.3003239873
C   C50       1.0  0.76733  0.84447  0.78966  1.0000 -0.3003239873
C   C51       1.0  0.65553  0.73267  0.28966  1.0000 -0.3003239873
C   C52       1.0  0.34447  0.26733  0.28966  1.0000 -0.3003239873
C   C53       1.0  0.32621  0.08279  0.98559  1.0000 -0.1003240101
C   C54       1.0  0.67379  0.91721  0.98559  1.0000 -0.1003240101
C   C55       1.0  0.58279  0.82621  0.48559  1.0000 -0.1003240101
C   C56       1.0  0.41721  0.17379  0.48559  1.0000 -0.1003240101
C   C57       1.0  0.42238  0.09702  0.04342  1.0000 0.2625237501
C   C58       1.0  0.57762  0.90298  0.04342  1.0000 0.2625237501
C   C59       1.0  0.59702  0.92238  0.54342  1.0000 0.2625237501
C   C60       1.0  0.40298  0.07762  0.54342  1.0000 0.2625237501
C   C61       1.0  0.36328  0.02252  0.06510  1.0000 -0.2917026427
C   C62       1.0  0.63672  0.97748  0.06510  1.0000 -0.2917026427
C   C63       1.0  0.52252  0.86328  0.56510  1.0000 -0.2917026427
C   C64       1.0  0.47748  0.13672  0.56510  1.0000 -0.2917026427
C   C65       1.0  0.38437  0.99683  0.10671  1.0000 0.0397986228
C   C66       1.0  0.61563  0.00317  0.10671  1.0000 0.0397986228
C   C67       1.0  0.49683  0.88437  0.60671  1.0000 0.0397986228
C   C68       1.0  0.50317  0.11563  0.60671  1.0000 0.0397986228
C   C69       1.0  0.51826  0.11154  0.09990  1.0000 0.089447614
C   C70       1.0  0.48174  0.88846  0.09990  1.0000 0.089447614
C   C71       1.0  0.61154  0.01826  0.59990  1.0000 0.089447614
C   C72       1.0  0.38846  0.98174  0.59990  1.0000 0.089447614
C   C73       1.0  0.50323  0.14337  0.05884  1.0000 -0.3543311652
C   C74       1.0  0.49677  0.85663  0.05884  1.0000 -0.3571981561
C   C75       1.0  0.64337  0.00323  0.55884  1.0000 -0.3543311652
C   C76       1.0  0.35663  0.99677  0.55884  1.0000 -0.3543311652
C   C77       1.0  0.38639  0.22601  0.95786  1.0000 -0.1261836734
C   C78       1.0  0.61361  0.77399  0.95786  1.0000 -0.1261836734
C   C79       1.0  0.72601  0.88639  0.45786  1.0000 -0.1261836734
C   C80       1.0  0.27399  0.11361  0.45786  1.0000 -0.1261836734
C   C81       1.0  0.36889  0.28191  0.03185  1.0000 0.2704971957
C   C82       1.0  0.63111  0.71809  0.03185  1.0000 0.2704971957
C   C83       1.0  0.78191  0.86889  0.53185  1.0000 0.2704971957
C   C84       1.0  0.21809  0.13111  0.53185  1.0000 0.2704971957
C   C85       1.0  0.45344  0.35036  0.03697  1.0000 -0.3003239873
C   C86       1.0  0.54656  0.64964  0.03697  1.0000 -0.3003239873
C   C87       1.0  0.85036  0.95344  0.53697  1.0000 -0.3003239873
C   C88       1.0  0.14964  0.04656  0.53697  1.0000 -0.3003239873
C   C89       1.0  0.48235  0.40805  0.07696  1.0000 0.052469463
C   C90       1.0  0.51765  0.59195  0.07696  1.0000 0.052469463
C   C91       1.0  0.90805  0.98235  0.57696  1.0000 0.052469463
C   C92       1.0  0.09195  0.01765  0.57696  1.0000 0.052469463
C   C93       1.0  0.35034  0.33746  0.10450  1.0000 0.0158933775
C   C94       1.0  0.64966  0.66254  0.10450  1.0000 0.0158933775
C   C95       1.0  0.83746  0.85034  0.60450  1.0000 0.0158933775
C   C96       1.0  0.16254  0.14966  0.60450  1.0000 0.0158933775
C   C97       1.0  0.31679  0.27781  0.06513  1.0000 -0.279087111
C   C98       1.0  0.68321  0.72219  0.06513  1.0000 -0.279087111
C   C99       1.0  0.77781  0.81679  0.56513  1.0000 -0.279087111
C   C100      1.0  0.22219  0.18321  0.56513  1.0000 -0.279087111
C   C101      1.0  0.89660  0.51880  0.23394  1.0000 0.057026707
C   C102      1.0  0.10340  0.48120  0.23394  1.0000 0.057026707
C   C103      1.0  0.01880  0.39660  0.73394  1.0000 0.057026707
C   C104      1.0  0.98120  0.60340  0.73394  1.0000 0.057026707
C   C105      1.0  0.87931  0.54769  0.19309  1.0000 -0.2917026427
C   C106      1.0  0.12069  0.45231  0.19309  1.0000 -0.2917026427
C   C107      1.0  0.04769  0.37931  0.69309  1.0000 -0.2917026427
C   C108      1.0  0.95231  0.62069  0.69309  1.0000 -0.2917026427
C   C109      1.0  0.94250  0.61010  0.16036  1.0000 0.2704971957
C   C110      1.0  0.05750  0.38990  0.16036  1.0000 0.2704971957
C   C111      1.0  0.11010  0.44250  0.66036  1.0000 0.2704971957
C   C112      1.0  0.88990  0.55750  0.66036  1.0000 0.2704971957
C   C113      1.0  0.02141  0.64319  0.17106  1.0000 -0.3003239873
C   C114      1.0  0.97859  0.35681  0.17106  1.0000 -0.3003239873
C   C115      1.0  0.14319  0.52141  0.67106  1.0000 -0.3003239873
C   C116      1.0  0.85681  0.47859  0.67106  1.0000 -0.3003239873
C   C117      1.0  0.03292  0.61148  0.21272  1.0000 0.057026707
C   C118      1.0  0.96708  0.38852  0.21272  1.0000 0.057026707
C   C119      1.0  0.11148  0.53292  0.71272  1.0000 0.057026707
C   C120      1.0  0.88852  0.46708  0.71272  1.0000 0.057026707
C   C121      1.0  0.84961  0.60279  0.10441  1.0000 -0.1093084306
C   C122      1.0  0.15039  0.39721  0.10441  1.0000 -0.1093084306
C   C123      1.0  0.10279  0.34961  0.60441  1.0000 -0.1093084306
C   C124      1.0  0.89721  0.65039  0.60441  1.0000 -0.1093084306
C   C125      1.0  0.86091  0.65835  0.06155  1.0000 0.0801918516
C   C126      1.0  0.13909  0.34165  0.06155  1.0000 0.0801918516
C   C127      1.0  0.15835  0.36091  0.56155  1.0000 0.0801918516
C   C128      1.0  0.84165  0.63909  0.56155  1.0000 0.0801918516
C   C129      1.0  0.90744  0.74576  0.08364  1.0000 -0.1003240101
C   C130      1.0  0.09256  0.25424  0.08364  1.0000 -0.1003240101
C   C131      1.0  0.24576  0.40744  0.58364  1.0000 -0.1003240101
C   C132      1.0  0.75424  0.59256  0.58364  1.0000 -0.1003240101
C   C133      1.0  0.89371  0.79189  0.16584  1.0000 0.2625237501
C   C134      1.0  0.10629  0.20811  0.16584  1.0000 0.2625237501
C   C135      1.0  0.29189  0.39371  0.66584  1.0000 0.2625237501
C   C136      1.0  0.70811  0.60629  0.66584  1.0000 0.2625237501
C   C137      1.0  0.97326  0.87154  0.16355  1.0000 -0.279087111
C   C138      1.0  0.02674  0.12846  0.16355  1.0000 -0.279087111
C   C139      1.0  0.37154  0.47326  0.66355  1.0000 -0.279087111
C   C140      1.0  0.62846  0.52674  0.66355  1.0000 -0.279087111
C   C141      1.0  0.00189  0.92531  0.20622  1.0000 0.052469463
C   C142      1.0  0.99811  0.07469  0.20622  1.0000 0.052469463
C   C143      1.0  0.42531  0.50189  0.70622  1.0000 0.052469463
C   C144      1.0  0.57469  0.49811  0.70622  1.0000 0.052469463
C   C145      1.0  0.87954  0.82546  0.25193  1.0000 0.0698637854
C   C146      1.0  0.12046  0.17454  0.25193  1.0000 0.0698637854
C   C147      1.0  0.32546  0.37954  0.75193  1.0000 0.0698637854
C   C148      1.0  0.67454  0.62046  0.75193  1.0000 0.0698637854
C   C149      1.0  0.84447  0.76733  0.21034  1.0000 -0.3003239873
C   C150      1.0  0.15553  0.23267  0.21034  1.0000 -0.3003239873
C   C151      1.0  0.26733  0.34447  0.71034  1.0000 -0.3003239873
C   C152      1.0  0.73267  0.65553  0.71034  1.0000 -0.3003239873
C   C153      1.0  0.91721  0.67379  0.01441  1.0000 -0.1003240101
C   C154      1.0  0.08279  0.32621  0.01441  1.0000 -0.1003240101
C   C155      1.0  0.17379  0.41721  0.51441  1.0000 -0.1003240101
C   C156      1.0  0.82621  0.58279  0.51441  1.0000 -0.1003240101
C   C157      1.0  0.90298  0.57762  0.95658  1.0000 0.2625237501
C   C158      1.0  0.09702  0.42238  0.95658  1.0000 0.2625237501
C   C159      1.0  0.07762  0.40298  0.45658  1.0000 0.2625237501
C   C160      1.0  0.92238  0.59702  0.45658  1.0000 0.2625237501
C   C161      1.0  0.97748  0.63672  0.93490  1.0000 -0.2917026427
C   C162      1.0  0.02252  0.36328  0.93490  1.0000 -0.2917026427
C   C163      1.0  0.13672  0.47748  0.43490  1.0000 -0.2917026427
C   C164      1.0  0.86328  0.52252  0.43490  1.0000 -0.3003239873
C   C165      1.0  0.00317  0.61563  0.89329  1.0000 0.0397986228
C   C166      1.0  0.99683  0.38437  0.89329  1.0000 0.0397986228
C   C167      1.0  0.11563  0.50317  0.39329  1.0000 0.0397986228
C   C168      1.0  0.88437  0.49683  0.39329  1.0000 0.0397986228
C   C169      1.0  0.88846  0.48174  0.90010  1.0000 0.089447614
C   C170      1.0  0.11154  0.51826  0.90010  1.0000 0.089447614
C   C171      1.0  0.98174  0.38846  0.40010  1.0000 0.089447614
C   C172      1.0  0.01826  0.61154  0.40010  1.0000 0.089447614
C   C173      1.0  0.85663  0.49677  0.94116  1.0000 -0.3571981561
C   C174      1.0  0.14337  0.50323  0.94116  1.0000 -0.3571981561
C   C175      1.0  0.99677  0.35663  0.44116  1.0000 -0.3543311652
C   C176      1.0  0.00323  0.64337  0.44116  1.0000 -0.3571981561
C   C177      1.0  0.77399  0.61361  0.04214  1.0000 -0.1261836734
C   C178      1.0  0.22601  0.38639  0.04214  1.0000 -0.1261836734
C   C179      1.0  0.11361  0.27399  0.54214  1.0000 -0.1261836734
C   C180      1.0  0.88639  0.72601  0.54214  1.0000 -0.1261836734
C   C181      1.0  0.71809  0.63111  0.96815  1.0000 0.2704971957
C   C182      1.0  0.28191  0.36889  0.96815  1.0000 0.2704971957
C   C183      1.0  0.13111  0.21809  0.46815  1.0000 0.2704971957
C   C184      1.0  0.86889  0.78191  0.46815  1.0000 0.2704971957
C   C185      1.0  0.64964  0.54656  0.96303  1.0000 -0.3003239873
C   C186      1.0  0.35036  0.45344  0.96303  1.0000 -0.3003239873
C   C187      1.0  0.04656  0.14964  0.46303  1.0000 -0.3003239873
C   C188      1.0  0.95344  0.85036  0.46303  1.0000 -0.3003239873
C   C189      1.0  0.59195  0.51765  0.92304  1.0000 0.052469463
C   C190      1.0  0.40805  0.48235  0.92304  1.0000 0.052469463
C   C191      1.0  0.01765  0.09195  0.42304  1.0000 0.052469463
C   C192      1.0  0.98235  0.90805  0.42304  1.0000 0.052469463
C   C193      1.0  0.66254  0.64966  0.89550  1.0000 0.0158933775
C   C194      1.0  0.33746  0.35034  0.89550  1.0000 0.0158933775
C   C195      1.0  0.14966  0.16254  0.39550  1.0000 0.0158933775
C   C196      1.0  0.85034  0.83746  0.39550  1.0000 0.0158933775
C   C197      1.0  0.72219  0.68321  0.93487  1.0000 -0.279087111
C   C198      1.0  0.27781  0.31679  0.93487  1.0000 -0.279087111
C   C199      1.0  0.18321  0.22219  0.43487  1.0000 -0.279087111
C   C200      1.0  0.81679  0.77781  0.43487  1.0000 -0.279087111
N   N1        1.0  0.44966  0.02768  0.75635  1.0000 -0.2543047961
N   N2        1.0  0.55034  0.97232  0.75635  1.0000 -0.2543047961
N   N3        1.0  0.52768  0.94966  0.25635  1.0000 -0.2543047961
N   N4        1.0  0.47232  0.05034  0.25635  1.0000 -0.2543047961
N   N5        1.0  0.09722  0.04458  0.74950  1.0000 -0.2603803684
N   N6        1.0  0.90278  0.95542  0.74950  1.0000 -0.2603803684
N   N7        1.0  0.54458  0.59722  0.24950  1.0000 -0.2603803684
N   N8        1.0  0.45542  0.40278  0.24950  1.0000 -0.2603803684
N   N9        1.0  0.43352  0.40106  0.11210  1.0000 -0.2603803684
N   N10       1.0  0.56648  0.59894  0.11210  1.0000 -0.2603803684
N   N11       1.0  0.90106  0.93352  0.61210  1.0000 -0.2603803684
N   N12       1.0  0.09894  0.06648  0.61210  1.0000 -0.2603803684
N   N13       1.0  0.46262  0.04256  0.12329  1.0000 -0.2603803684
N   N14       1.0  0.53738  0.95744  0.12329  1.0000 -0.2603803684
N   N15       1.0  0.54256  0.96262  0.62329  1.0000 -0.2603803684
N   N16       1.0  0.45744  0.03738  0.62329  1.0000 -0.2603803684
N   N17       1.0  0.97232  0.55034  0.24365  1.0000 -0.2543047961
N   N18       1.0  0.02768  0.44966  0.24365  1.0000 -0.2543047961
N   N19       1.0  0.05034  0.47232  0.74365  1.0000 -0.2543047961
N   N20       1.0  0.94966  0.52768  0.74365  1.0000 -0.2543047961
N   N21       1.0  0.95542  0.90278  0.25050  1.0000 -0.2603803684
N   N22       1.0  0.04458  0.09722  0.25050  1.0000 -0.2603803684
N   N23       1.0  0.40278  0.45542  0.75050  1.0000 -0.2603803684
N   N24       1.0  0.59722  0.54458  0.75050  1.0000 -0.2603803684
N   N25       1.0  0.59894  0.56648  0.88790  1.0000 -0.2603803684
N   N26       1.0  0.40106  0.43352  0.88790  1.0000 -0.2603803684
N   N27       1.0  0.06648  0.09894  0.38790  1.0000 -0.2603803684
N   N28       1.0  0.93352  0.90106  0.38790  1.0000 -0.2603803684
N   N29       1.0  0.95744  0.53738  0.87671  1.0000 -0.2603803684
N   N30       1.0  0.04256  0.46262  0.87671  1.0000 -0.2603803684
N   N31       1.0  0.03738  0.45744  0.37671  1.0000 -0.2603803684
N   N32       1.0  0.96262  0.54256  0.37671  1.0000 -0.2603803684
O   O1        1.0  0.35865  0.06589  0.88149  1.0000 -0.1919230005
O   O2        1.0  0.64135  0.93411  0.88149  1.0000 -0.1919230005
O   O3        1.0  0.56589  0.85865  0.38149  1.0000 -0.1919230005
O   O4        1.0  0.43411  0.14135  0.38149  1.0000 -0.1919230005
O   O5        1.0  0.26813  0.14297  0.87271  1.0000 -0.211725853
O   O6        1.0  0.73187  0.85703  0.87271  1.0000 -0.211725853
O   O7        1.0  0.64297  0.76813  0.37271  1.0000 -0.211725853
O   O8        1.0  0.35703  0.23187  0.37271  1.0000 -0.211725853
O   O9        1.0  0.41483  0.13339  0.00480  1.0000 -0.1987544891
O   O10       1.0  0.58517  0.86661  0.00480  1.0000 -0.1987544891
O   O11       1.0  0.63339  0.91483  0.50480  1.0000 -0.1987544891
O   O12       1.0  0.36661  0.08517  0.50480  1.0000 -0.1987544891
O   O13       1.0  0.33203  0.21957  0.99607  1.0000 -0.1919230005
O   O14       1.0  0.66797  0.78043  0.99607  1.0000 -0.1919230005
O   O15       1.0  0.71957  0.83203  0.49607  1.0000 -0.1919230005
O   O16       1.0  0.28043  0.16797  0.49607  1.0000 -0.1919230005
O   O17       1.0  0.93411  0.64135  0.11851  1.0000 -0.1919230005
O   O18       1.0  0.06589  0.35865  0.11851  1.0000 -0.1919230005
O   O19       1.0  0.14135  0.43411  0.61851  1.0000 -0.1919230005
O   O20       1.0  0.85865  0.56589  0.61851  1.0000 -0.1919230005
O   O21       1.0  0.85703  0.73187  0.12729  1.0000 -0.211725853
O   O22       1.0  0.14297  0.26813  0.12729  1.0000 -0.211725853
O   O23       1.0  0.23187  0.35703  0.62729  1.0000 -0.211725853
O   O24       1.0  0.76813  0.64297  0.62729  1.0000 -0.211725853
O   O25       1.0  0.86661  0.58517  0.99520  1.0000 -0.1987544891
O   O26       1.0  0.13339  0.41483  0.99520  1.0000 -0.1987544891
O   O27       1.0  0.08517  0.36661  0.49520  1.0000 -0.1987544891
O   O28       1.0  0.91483  0.63339  0.49520  1.0000 -0.1987544891
O   O29       1.0  0.78043  0.66797  0.00393  1.0000 -0.1919230005
O   O30       1.0  0.21957  0.33203  0.00393  1.0000 -0.1919230005
O   O31       1.0  0.16797  0.28043  0.50393  1.0000 -0.1919230005
O   O32       1.0  0.83203  0.71957  0.50393  1.0000 -0.1919230005
