# DDEC6 charges by PACMAN v1.1 (https://github.com/mtap-research/PACMAN-charge/)
data_0000[Mg][kgd]2[ASR]1
_chemical_formula_sum              "Mg6 H60 C108 O24"
_cell_length_a       12.693
_cell_length_b       26.14
_cell_length_c       17.263
_cell_angle_alpha    90
_cell_angle_beta     126.86
_cell_angle_gamma    90

_symmetry_space_group_name_H-M    "P 1"
_symmetry_Int_Tables_number       1

loop_
  _symmetry_equiv_pos_as_xyz
  'x, y, z'

loop_
  _atom_site_type_symbol
  _atom_site_label
  _atom_site_symmetry_multiplicity
  _atom_site_fract_x
  _atom_site_fract_y
  _atom_site_fract_z
  _atom_site_occupancy
  _atom_site_charge
Mg  Mg1       1.0  0.84746  0.97235  0.68857  1.0000 1.3439707112
Mg  Mg2       1.0  0.15254  0.47235  0.81143  1.0000 1.3462841462
Mg  Mg3       1.0  0.15254  0.02765  0.31143  1.0000 1.3462841462
Mg  Mg4       1.0  0.84746  0.52765  0.18857  1.0000 1.3439707112
Mg  Mg5       1.0  0.50000  0.00000  0.50000  1.0000 1.4302641105
Mg  Mg6       1.0  0.50000  0.50000  0.00000  1.0000 1.4302641105
H   H1        1.0  0.44293  0.67244  0.32302  1.0000 0.1268715214
H   H2        1.0  0.35436  0.53997  0.39613  1.0000 0.1194666755
H   H3        1.0  0.50807  0.65836  0.58315  1.0000 0.1194666755
H   H4        1.0  0.68930  0.71842  0.61980  1.0000 0.1110074491
H   H5        1.0  0.75274  0.80377  0.66007  1.0000 0.1194666755
H   H6        1.0  0.43152  0.84624  0.39618  1.0000 0.1268715214
H   H7        1.0  0.38346  0.76108  0.35137  1.0000 0.1110074491
H   H8        1.0  0.49152  0.60899  0.24305  1.0000 0.1194666755
H   H9        1.0  0.41765  0.57701  0.09264  1.0000 0.1194666755
H   H10       1.0  0.11405  0.50753  0.06778  1.0000 0.1194666755
H   H11       1.0  0.18611  0.54099  0.21885  1.0000 0.1194666755
H   H12       1.0  0.22186  0.53919  0.46786  1.0000 0.1194666755
H   H13       1.0  0.18742  0.50647  0.57410  1.0000 0.1194666755
H   H14       1.0  0.55325  0.55070  0.79812  1.0000 0.1194666755
H   H15       1.0  0.58500  0.58605  0.69316  1.0000 0.1194666755
H   H16       1.0  0.55707  0.17244  0.17698  1.0000 0.1268715214
H   H17       1.0  0.64564  0.03997  0.10387  1.0000 0.1194666755
H   H18       1.0  0.49193  0.15836  0.91685  1.0000 0.1194666755
H   H19       1.0  0.31070  0.21842  0.88020  1.0000 0.1110074491
H   H20       1.0  0.24726  0.30377  0.83993  1.0000 0.1194666755
H   H21       1.0  0.56848  0.34624  0.10382  1.0000 0.1268715214
H   H22       1.0  0.61654  0.26108  0.14863  1.0000 0.1110074491
H   H23       1.0  0.50848  0.10899  0.25695  1.0000 0.1194666755
H   H24       1.0  0.58235  0.07701  0.40736  1.0000 0.1194666755
H   H25       1.0  0.88595  0.00753  0.43222  1.0000 0.1194666755
H   H26       1.0  0.81389  0.04099  0.28115  1.0000 0.1194666755
H   H27       1.0  0.77814  0.03919  0.03214  1.0000 0.1194666755
H   H28       1.0  0.81258  0.00647  0.92590  1.0000 0.1194666755
H   H29       1.0  0.44675  0.05070  0.70188  1.0000 0.1194666755
H   H30       1.0  0.41500  0.08605  0.80684  1.0000 0.1194666755
H   H31       1.0  0.55707  0.32756  0.67698  1.0000 0.1268715214
H   H32       1.0  0.64564  0.46003  0.60387  1.0000 0.1194666755
H   H33       1.0  0.49193  0.34164  0.41685  1.0000 0.1194666755
H   H34       1.0  0.31070  0.28158  0.38020  1.0000 0.1110074491
H   H35       1.0  0.24726  0.19623  0.33993  1.0000 0.1194666755
H   H36       1.0  0.56848  0.15376  0.60382  1.0000 0.1268715214
H   H37       1.0  0.61654  0.23892  0.64863  1.0000 0.1110074491
H   H38       1.0  0.50848  0.39101  0.75695  1.0000 0.1194666755
H   H39       1.0  0.58235  0.42299  0.90736  1.0000 0.1194666755
H   H40       1.0  0.88595  0.49247  0.93222  1.0000 0.1194666755
H   H41       1.0  0.81389  0.45901  0.78115  1.0000 0.1194666755
H   H42       1.0  0.77814  0.46081  0.53214  1.0000 0.1194666755
H   H43       1.0  0.81258  0.49353  0.42590  1.0000 0.1194666755
H   H44       1.0  0.44675  0.44930  0.20188  1.0000 0.1194666755
H   H45       1.0  0.41500  0.41395  0.30684  1.0000 0.1194666755
H   H46       1.0  0.44293  0.82756  0.82302  1.0000 0.1268715214
H   H47       1.0  0.35436  0.96003  0.89613  1.0000 0.1194666755
H   H48       1.0  0.50807  0.84164  0.08315  1.0000 0.1194666755
H   H49       1.0  0.68930  0.78158  0.11980  1.0000 0.1110074491
H   H50       1.0  0.75274  0.69623  0.16007  1.0000 0.1194666755
H   H51       1.0  0.43152  0.65376  0.89618  1.0000 0.1268715214
H   H52       1.0  0.38346  0.73892  0.85137  1.0000 0.1110074491
H   H53       1.0  0.49152  0.89101  0.74305  1.0000 0.1194666755
H   H54       1.0  0.41765  0.92299  0.59264  1.0000 0.1194666755
H   H55       1.0  0.11405  0.99247  0.56778  1.0000 0.1194666755
H   H56       1.0  0.18611  0.95901  0.71885  1.0000 0.1194666755
H   H57       1.0  0.22186  0.96081  0.96786  1.0000 0.1194666755
H   H58       1.0  0.18742  0.99353  0.07410  1.0000 0.1194666755
H   H59       1.0  0.55325  0.94930  0.29812  1.0000 0.1194666755
H   H60       1.0  0.58500  0.91395  0.19316  1.0000 0.1194666755
C   C1        1.0  0.48290  0.67541  0.45661  1.0000 0.1022797346
C   C2        1.0  0.43924  0.65321  0.36667  1.0000 -0.2305413179
C   C3        1.0  0.39007  0.60231  0.34185  1.0000 0.1022797346
C   C4        1.0  0.38386  0.57364  0.41006  1.0000 -0.2305413179
C   C5        1.0  0.42112  0.59543  0.49604  1.0000 0.0853323143
C   C6        1.0  0.47623  0.64527  0.52265  1.0000 -0.2091351647
C   C7        1.0  0.52865  0.73055  0.48192  1.0000 0.0610399235
C   C8        1.0  0.63924  0.74388  0.57431  1.0000 -0.1479123394
C   C9        1.0  0.67591  0.79590  0.59940  1.0000 -0.0991098321
C   C10       1.0  0.60003  0.83550  0.53566  1.0000 -0.0209975186
C   C11       1.0  0.48546  0.82094  0.44063  1.0000 -0.0991098321
C   C12       1.0  0.45422  0.76954  0.41429  1.0000 -0.1479123394
C   C13       1.0  0.34518  0.58010  0.24612  1.0000 0.0610399235
C   C14       1.0  0.41554  0.58916  0.20807  1.0000 -0.1479123394
C   C15       1.0  0.37283  0.56872  0.11814  1.0000 -0.0788391132
C   C16       1.0  0.26294  0.53583  0.06619  1.0000 -0.0209975186
C   C17       1.0  0.19030  0.52719  0.10326  1.0000 -0.0865781812
C   C18       1.0  0.23237  0.54819  0.19406  1.0000 -0.1431070652
C   C19       1.0  0.40633  0.56792  0.56663  1.0000 0.0812963242
C   C20       1.0  0.28770  0.54239  0.53403  1.0000 -0.1612536881
C   C21       1.0  0.26738  0.52214  0.59811  1.0000 -0.0991098321
C   C22       1.0  0.36558  0.52473  0.69936  1.0000 -0.0209975186
C   C23       1.0  0.48587  0.54903  0.73201  1.0000 -0.0865781812
C   C24       1.0  0.50534  0.57003  0.66885  1.0000 -0.1612536881
C   C25       1.0  0.63223  0.89119  0.56278  1.0000 0.6239637684
C   C26       1.0  0.22297  0.51062  0.97407  1.0000 0.5821109366
C   C27       1.0  0.34467  0.50522  0.77129  1.0000 0.6256371092
C   C28       1.0  0.51710  0.17541  0.04339  1.0000 0.1022797346
C   C29       1.0  0.56076  0.15321  0.13333  1.0000 -0.2305413179
C   C30       1.0  0.60993  0.10231  0.15815  1.0000 0.1022797346
C   C31       1.0  0.61614  0.07364  0.08994  1.0000 -0.2305413179
C   C32       1.0  0.57888  0.09543  0.00396  1.0000 0.0812963242
C   C33       1.0  0.52377  0.14527  0.97735  1.0000 -0.2091351647
C   C34       1.0  0.47135  0.23055  0.01808  1.0000 0.0610399235
C   C35       1.0  0.36076  0.24388  0.92569  1.0000 -0.1479123394
C   C36       1.0  0.32409  0.29590  0.90060  1.0000 -0.0991098321
C   C37       1.0  0.39997  0.33550  0.96434  1.0000 -0.0209975186
C   C38       1.0  0.51454  0.32094  0.05937  1.0000 -0.0991098321
C   C39       1.0  0.54578  0.26954  0.08571  1.0000 -0.1479123394
C   C40       1.0  0.65482  0.08010  0.25388  1.0000 0.0610399235
C   C41       1.0  0.58446  0.08916  0.29193  1.0000 -0.1479123394
C   C42       1.0  0.62717  0.06872  0.38186  1.0000 -0.0788391132
C   C43       1.0  0.73706  0.03583  0.43381  1.0000 -0.0209975186
C   C44       1.0  0.80970  0.02719  0.39674  1.0000 -0.0865781812
C   C45       1.0  0.76763  0.04819  0.30594  1.0000 -0.1431070652
C   C46       1.0  0.59367  0.06792  0.93337  1.0000 0.0812963242
C   C47       1.0  0.71230  0.04239  0.96597  1.0000 -0.1612536881
C   C48       1.0  0.73262  0.02214  0.90189  1.0000 -0.0991098321
C   C49       1.0  0.63442  0.02473  0.80064  1.0000 -0.0209975186
C   C50       1.0  0.51413  0.04903  0.76799  1.0000 -0.0865781812
C   C51       1.0  0.49466  0.07003  0.83115  1.0000 -0.1612536881
C   C52       1.0  0.36777  0.39119  0.93722  1.0000 0.6256371092
C   C53       1.0  0.77703  0.01062  0.52593  1.0000 0.5821109366
C   C54       1.0  0.65533  0.00522  0.72871  1.0000 0.6256371092
C   C55       1.0  0.51710  0.32459  0.54339  1.0000 0.1022797346
C   C56       1.0  0.56076  0.34679  0.63333  1.0000 -0.2305413179
C   C57       1.0  0.60993  0.39769  0.65815  1.0000 0.1022797346
C   C58       1.0  0.61614  0.42636  0.58994  1.0000 -0.2305413179
C   C59       1.0  0.57888  0.40457  0.50396  1.0000 0.0812963242
C   C60       1.0  0.52377  0.35473  0.47735  1.0000 -0.2091351647
C   C61       1.0  0.47135  0.26945  0.51808  1.0000 0.0610399235
C   C62       1.0  0.36076  0.25612  0.42569  1.0000 -0.1479123394
C   C63       1.0  0.32409  0.20410  0.40060  1.0000 -0.0991098321
C   C64       1.0  0.39997  0.16450  0.46434  1.0000 -0.0209975186
C   C65       1.0  0.51454  0.17906  0.55937  1.0000 -0.0991098321
C   C66       1.0  0.54578  0.23046  0.58571  1.0000 -0.1479123394
C   C67       1.0  0.65482  0.41990  0.75388  1.0000 0.0610399235
C   C68       1.0  0.58446  0.41084  0.79193  1.0000 -0.1479123394
C   C69       1.0  0.62717  0.43128  0.88186  1.0000 -0.0788391132
C   C70       1.0  0.73706  0.46417  0.93381  1.0000 -0.0209975186
C   C71       1.0  0.80970  0.47281  0.89674  1.0000 -0.0865781812
C   C72       1.0  0.76763  0.45181  0.80594  1.0000 -0.1431070652
C   C73       1.0  0.59367  0.43208  0.43337  1.0000 0.0812963242
C   C74       1.0  0.71230  0.45761  0.46597  1.0000 -0.1612536881
C   C75       1.0  0.73262  0.47786  0.40189  1.0000 -0.0991098321
C   C76       1.0  0.63442  0.47527  0.30064  1.0000 -0.0209975186
C   C77       1.0  0.51413  0.45097  0.26799  1.0000 -0.0865781812
C   C78       1.0  0.49466  0.42997  0.33115  1.0000 -0.1612536881
C   C79       1.0  0.36777  0.10881  0.43722  1.0000 0.6256371092
C   C80       1.0  0.77703  0.48938  0.02593  1.0000 0.5821109366
C   C81       1.0  0.65533  0.49478  0.22871  1.0000 0.6256371092
C   C82       1.0  0.48290  0.82459  0.95661  1.0000 0.1022797346
C   C83       1.0  0.43924  0.84679  0.86667  1.0000 -0.2305413179
C   C84       1.0  0.39007  0.89769  0.84185  1.0000 0.1022797346
C   C85       1.0  0.38386  0.92636  0.91006  1.0000 -0.2305413179
C   C86       1.0  0.42112  0.90457  0.99604  1.0000 0.0812963242
C   C87       1.0  0.47623  0.85473  0.02265  1.0000 -0.2091351647
C   C88       1.0  0.52865  0.76945  0.98192  1.0000 0.0610399235
C   C89       1.0  0.63924  0.75612  0.07431  1.0000 -0.1479123394
C   C90       1.0  0.67591  0.70410  0.09940  1.0000 -0.0991098321
C   C91       1.0  0.60003  0.66450  0.03566  1.0000 -0.0209975186
C   C92       1.0  0.48546  0.67906  0.94063  1.0000 -0.0991098321
C   C93       1.0  0.45422  0.73046  0.91429  1.0000 -0.1479123394
C   C94       1.0  0.34518  0.91990  0.74612  1.0000 0.0610399235
C   C95       1.0  0.41554  0.91084  0.70807  1.0000 -0.1479123394
C   C96       1.0  0.37283  0.93128  0.61814  1.0000 -0.0788391132
C   C97       1.0  0.26294  0.96417  0.56619  1.0000 -0.0209975186
C   C98       1.0  0.19030  0.97281  0.60326  1.0000 -0.0865781812
C   C99       1.0  0.23237  0.95181  0.69406  1.0000 -0.1431070652
C   C100      1.0  0.40633  0.93208  0.06663  1.0000 0.0812963242
C   C101      1.0  0.28770  0.95761  0.03403  1.0000 -0.1612536881
C   C102      1.0  0.26738  0.97786  0.09811  1.0000 -0.0991098321
C   C103      1.0  0.36558  0.97527  0.19936  1.0000 -0.0209975186
C   C104      1.0  0.48587  0.95097  0.23201  1.0000 -0.0865781812
C   C105      1.0  0.50534  0.92997  0.16885  1.0000 -0.1612536881
C   C106      1.0  0.63223  0.60881  0.06278  1.0000 0.6239637684
C   C107      1.0  0.22297  0.98938  0.47407  1.0000 0.5821109366
C   C108      1.0  0.34467  0.99478  0.27129  1.0000 0.6256371092
O   O1        1.0  0.75226  0.90250  0.62835  1.0000 -0.6596592788
O   O2        1.0  0.53677  0.92221  0.51863  1.0000 -0.6386971373
O   O3        1.0  0.29873  0.51452  0.94667  1.0000 -0.7095446039
O   O4        1.0  0.11455  0.48607  0.92071  1.0000 -0.6253985215
O   O5        1.0  0.23341  0.48520  0.73921  1.0000 -0.6880946952
O   O6        1.0  0.43910  0.51122  0.86090  1.0000 -0.6596592788
O   O7        1.0  0.24774  0.40250  0.87165  1.0000 -0.6596592788
O   O8        1.0  0.46323  0.42221  0.98137  1.0000 -0.6386971373
O   O9        1.0  0.70127  0.01452  0.55333  1.0000 -0.7095446039
O   O10       1.0  0.88545  0.98607  0.57929  1.0000 -0.6253985215
O   O11       1.0  0.76659  0.98520  0.76079  1.0000 -0.6880946952
O   O12       1.0  0.56090  0.01122  0.63910  1.0000 -0.6596592788
O   O13       1.0  0.24774  0.09750  0.37165  1.0000 -0.6596592788
O   O14       1.0  0.46323  0.07779  0.48137  1.0000 -0.6386971373
O   O15       1.0  0.70127  0.48548  0.05333  1.0000 -0.7095446039
O   O16       1.0  0.88545  0.51393  0.07929  1.0000 -0.6253985215
O   O17       1.0  0.76659  0.51480  0.26079  1.0000 -0.6880946952
O   O18       1.0  0.56090  0.48878  0.13910  1.0000 -0.6596592788
O   O19       1.0  0.75226  0.59750  0.12835  1.0000 -0.6596592788
O   O20       1.0  0.53677  0.57779  0.01863  1.0000 -0.6386971373
O   O21       1.0  0.29873  0.98548  0.44667  1.0000 -0.7095446039
O   O22       1.0  0.11455  0.01393  0.42071  1.0000 -0.6253985215
O   O23       1.0  0.23341  0.01480  0.23921  1.0000 -0.6880946952
O   O24       1.0  0.43910  0.98878  0.36090  1.0000 -0.6596592788
