# DDEC6 charges by PACMAN v1.1 (https://github.com/mtap-research/PACMAN-charge/)
data_0000[Ni][ant]3[ASR]1
_chemical_formula_sum              "Ni4 H16 C28 N4 O18"
_cell_length_a       11.1046
_cell_length_b       11.1046
_cell_length_c       11.046
_cell_angle_alpha    62.0189
_cell_angle_beta     117.981
_cell_angle_gamma    106.766

_symmetry_space_group_name_H-M    "P 1"
_symmetry_Int_Tables_number       1

loop_
  _symmetry_equiv_pos_as_xyz
  'x, y, z'

loop_
  _atom_site_type_symbol
  _atom_site_label
  _atom_site_symmetry_multiplicity
  _atom_site_fract_x
  _atom_site_fract_y
  _atom_site_fract_z
  _atom_site_occupancy
  _atom_site_charge
Ni  Ni1       1.0  0.34449  0.20303  0.94852  1.0000 0.8510241052
Ni  Ni2       1.0  0.20303  0.34449  0.55148  1.0000 0.8510241052
Ni  Ni3       1.0  0.65551  0.79697  0.05148  1.0000 0.8510241052
Ni  Ni4       1.0  0.79697  0.65551  0.44852  1.0000 0.8510241052
H   H1        1.0  0.57360  0.03300  0.21910  1.0000 0.1185326864
H   H2        1.0  0.03300  0.57360  0.28090  1.0000 0.1185326864
H   H3        1.0  0.42640  0.96700  0.78090  1.0000 0.1185326864
H   H4        1.0  0.96700  0.42640  0.71910  1.0000 0.1185326864
H   H5        1.0  0.77370  0.05470  0.41230  1.0000 0.1410096725
H   H6        1.0  0.05470  0.77370  0.08770  1.0000 0.1410096725
H   H7        1.0  0.22630  0.94530  0.58770  1.0000 0.1410096725
H   H8        1.0  0.94530  0.22630  0.91230  1.0000 0.1410096725
H   H9        1.0  0.49260  0.40080  0.09880  1.0000 0.1079231864
H   H10       1.0  0.40080  0.49260  0.40120  1.0000 0.1079231864
H   H11       1.0  0.50740  0.59920  0.90120  1.0000 0.1079231864
H   H12       1.0  0.59920  0.50740  0.59880  1.0000 0.1079231864
H   H13       1.0  0.19000  0.10460  0.76900  1.0000 0.3376513859
H   H14       1.0  0.10460  0.19000  0.73100  1.0000 0.3376513859
H   H15       1.0  0.81000  0.89540  0.23100  1.0000 0.3376513859
H   H16       1.0  0.89540  0.81000  0.26900  1.0000 0.3376513859
C   C1        1.0  0.59763  0.11437  0.23291  1.0000 0.1185326864
C   C2        1.0  0.11437  0.59763  0.26709  1.0000 0.1185326864
C   C3        1.0  0.40237  0.88563  0.76709  1.0000 0.1185326864
C   C4        1.0  0.88563  0.40237  0.73291  1.0000 0.1185326864
C   C5        1.0  0.71971  0.12789  0.34751  1.0000 -0.1515846262
C   C6        1.0  0.12789  0.71971  0.15249  1.0000 -0.1515846262
C   C7        1.0  0.28029  0.87211  0.65249  1.0000 -0.1515846262
C   C8        1.0  0.87211  0.28029  0.84751  1.0000 -0.1515846262
C   C9        1.0  0.76156  0.25134  0.36558  1.0000 0.0370340785
C   C10       1.0  0.25134  0.76156  0.13442  1.0000 0.0370340785
C   C11       1.0  0.23844  0.74866  0.63442  1.0000 0.0370340785
C   C12       1.0  0.74866  0.23844  0.86558  1.0000 0.0370340785
C   C13       1.0  0.90157  0.26399  0.48419  1.0000 0.5846672198
C   C14       1.0  0.26399  0.90157  0.01581  1.0000 0.5846672198
C   C15       1.0  0.09843  0.73601  0.51581  1.0000 0.5846672198
C   C16       1.0  0.73601  0.09843  0.98419  1.0000 0.5846672198
C   C17       1.0  0.67631  0.35743  0.26731  1.0000 -0.0918197418
C   C18       1.0  0.35743  0.67631  0.23269  1.0000 -0.0918197418
C   C19       1.0  0.32369  0.64257  0.73269  1.0000 -0.0918197418
C   C20       1.0  0.64257  0.32369  0.76731  1.0000 -0.0918197418
C   C21       1.0  0.71247  0.49969  0.26650  1.0000 0.5902516981
C   C22       1.0  0.49969  0.71247  0.23350  1.0000 0.5902516981
C   C23       1.0  0.28753  0.50031  0.73350  1.0000 0.5902516981
C   C24       1.0  0.50031  0.28753  0.76650  1.0000 0.5902516981
C   C25       1.0  0.55198  0.33182  0.16043  1.0000 0.0706040495
C   C26       1.0  0.33182  0.55198  0.33957  1.0000 0.0706040495
C   C27       1.0  0.44802  0.66818  0.83957  1.0000 0.0706040495
C   C28       1.0  0.66818  0.44802  0.66043  1.0000 0.0706040495
N   N1        1.0  0.51259  0.21417  0.14097  1.0000 -0.2310969243
N   N2        1.0  0.21417  0.51259  0.35903  1.0000 -0.2310969243
N   N3        1.0  0.48741  0.78583  0.85903  1.0000 -0.2310969243
N   N4        1.0  0.78583  0.48741  0.64097  1.0000 -0.2310969243
O   O1        1.0  0.64691  0.59079  0.14596  1.0000 -0.5606499771
O   O2        1.0  0.59079  0.64691  0.35404  1.0000 -0.5606499771
O   O3        1.0  0.35309  0.40921  0.85404  1.0000 -0.5606499771
O   O4        1.0  0.40921  0.35309  0.64596  1.0000 -0.5606499771
O   O5        1.0  0.80232  0.51402  0.38260  1.0000 -0.5038198093
O   O6        1.0  0.51402  0.80232  0.11740  1.0000 -0.5038198093
O   O7        1.0  0.19768  0.48598  0.61740  1.0000 -0.5038198093
O   O8        1.0  0.48598  0.19768  0.88260  1.0000 -0.5038198093
O   O9        1.0  0.91646  0.20418  0.61759  1.0000 -0.5278013805
O   O10       1.0  0.20418  0.91646  0.88241  1.0000 -0.5278013805
O   O11       1.0  0.08354  0.79582  0.38241  1.0000 -0.5278013805
O   O12       1.0  0.79582  0.08354  0.11759  1.0000 -0.5278013805
O   O13       1.0  0.99487  0.32647  0.43630  1.0000 -0.5606499771
O   O14       1.0  0.32647  0.99487  0.06370  1.0000 -0.5606499771
O   O15       1.0  0.00513  0.67353  0.56370  1.0000 -0.5606499771
O   O16       1.0  0.67353  0.00513  0.93630  1.0000 -0.5606499771
O   O17       1.0  0.18498  0.18498  0.75000  1.0000 -0.659616665
O   O18       1.0  0.81502  0.81502  0.25000  1.0000 -0.659616665
