# DDEC6 charges by PACMAN v1.1 (https://github.com/mtap-research/PACMAN-charge/)
data_0000[Ho][dia]3[ASR]1
_chemical_formula_sum              "Ho2 C4 O8 F2"
_cell_length_a       8.21498
_cell_length_b       8.21498
_cell_length_c       8.165
_cell_angle_alpha    62.3472
_cell_angle_beta     117.653
_cell_angle_gamma    94.1831

_symmetry_space_group_name_H-M    "P 1"
_symmetry_Int_Tables_number       1

loop_
  _symmetry_equiv_pos_as_xyz
  'x, y, z'

loop_
  _atom_site_type_symbol
  _atom_site_label
  _atom_site_symmetry_multiplicity
  _atom_site_fract_x
  _atom_site_fract_y
  _atom_site_fract_z
  _atom_site_occupancy
  _atom_site_charge
Ho  Ho1       1.0  0.93351  0.93351  0.75000  1.0000 2.0012875609
Ho  Ho2       1.0  0.06649  0.06649  0.25000  1.0000 2.0012875609
C   C1        1.0  0.05097  0.49305  0.94358  1.0000 0.5393216126
C   C2        1.0  0.49305  0.05097  0.55642  1.0000 0.5346566252
C   C3        1.0  0.94903  0.50695  0.05642  1.0000 0.5393216126
C   C4        1.0  0.50695  0.94903  0.44358  1.0000 0.5346566252
O   O1        1.0  0.05442  0.64370  0.80270  1.0000 -0.526567587
O   O2        1.0  0.64370  0.05442  0.69730  1.0000 -0.526567587
O   O3        1.0  0.94558  0.35630  0.19730  1.0000 -0.526567587
O   O4        1.0  0.35630  0.94558  0.30270  1.0000 -0.5217273124
O   O5        1.0  0.87859  0.66727  0.99693  1.0000 -0.5961380191
O   O6        1.0  0.66727  0.87859  0.50307  1.0000 -0.5961380191
O   O7        1.0  0.12141  0.33273  0.00307  1.0000 -0.5945079513
O   O8        1.0  0.33273  0.12141  0.49693  1.0000 -0.5945079513
F   F1        1.0  0.00000  0.00000  0.00000  1.0000 -0.8393193074
F   F2        1.0  0.00000  0.00000  0.50000  1.0000 -0.8284902759
