# DDEC6 charges by PACMAN v1.1 (https://github.com/mtap-research/PACMAN-charge/)
data_0000[Zn][ths]3[ASR]1
_chemical_formula_sum              "Zn4 C12 O24"
_cell_length_a       9.2861
_cell_length_b       9.2861
_cell_length_c       18.333
_cell_angle_alpha    68.4483
_cell_angle_beta     111.552
_cell_angle_gamma    117.137

_symmetry_space_group_name_H-M    "P 1"
_symmetry_Int_Tables_number       1

loop_
  _symmetry_equiv_pos_as_xyz
  'x, y, z'

loop_
  _atom_site_type_symbol
  _atom_site_label
  _atom_site_symmetry_multiplicity
  _atom_site_fract_x
  _atom_site_fract_y
  _atom_site_fract_z
  _atom_site_occupancy
  _atom_site_charge
Zn  Zn1       1.0  0.45710  0.29310  0.41390  1.0000 0.9296698116
Zn  Zn2       1.0  0.29310  0.45710  0.08610  1.0000 0.9296698116
Zn  Zn3       1.0  0.54290  0.70690  0.58610  1.0000 0.9296698116
Zn  Zn4       1.0  0.70690  0.54290  0.91390  1.0000 0.9296698116
C   C1        1.0  0.29530  0.29530  0.25000  1.0000 0.5764303945
C   C2        1.0  0.70470  0.70470  0.75000  1.0000 0.5764303945
C   C3        1.0  0.45600  0.45600  0.25000  1.0000 0.5686702512
C   C4        1.0  0.54400  0.54400  0.75000  1.0000 0.5686702512
C   C5        1.0  0.42660  0.97200  0.51920  1.0000 0.5686702512
C   C6        1.0  0.97200  0.42660  0.98080  1.0000 0.5686702512
C   C7        1.0  0.57340  0.02800  0.48080  1.0000 0.5686702512
C   C8        1.0  0.02800  0.57340  0.01920  1.0000 0.5686702512
C   C9        1.0  0.59240  0.50740  0.51930  1.0000 0.5686702512
C   C10       1.0  0.50740  0.59240  0.98070  1.0000 0.5686702512
C   C11       1.0  0.40760  0.49260  0.48070  1.0000 0.5686702512
C   C12       1.0  0.49260  0.40760  0.01930  1.0000 0.5686702512
O   O1        1.0  0.35690  0.07370  0.49760  1.0000 -0.4484983442
O   O2        1.0  0.07370  0.35690  0.00240  1.0000 -0.4484983442
O   O3        1.0  0.64310  0.92630  0.50240  1.0000 -0.4484983442
O   O4        1.0  0.92630  0.64310  0.99760  1.0000 -0.4484983442
O   O5        1.0  0.64140  0.42860  0.49750  1.0000 -0.4484983442
O   O6        1.0  0.42860  0.64140  0.00250  1.0000 -0.4484983442
O   O7        1.0  0.35860  0.57140  0.50250  1.0000 -0.4484983442
O   O8        1.0  0.57140  0.35860  0.99750  1.0000 -0.4484983442
O   O9        1.0  0.27050  0.20430  0.31730  1.0000 -0.4484983442
O   O10       1.0  0.20430  0.27050  0.18270  1.0000 -0.4484983442
O   O11       1.0  0.72950  0.79570  0.68270  1.0000 -0.4484983442
O   O12       1.0  0.79570  0.72950  0.81730  1.0000 -0.4484983442
O   O13       1.0  0.54770  0.48010  0.31650  1.0000 -0.4357622124
O   O14       1.0  0.48010  0.54770  0.18350  1.0000 -0.4309545641
O   O15       1.0  0.45230  0.51990  0.68350  1.0000 -0.4309545641
O   O16       1.0  0.51990  0.45230  0.81650  1.0000 -0.4309545641
O   O17       1.0  0.39280  0.83620  0.56880  1.0000 -0.4309545641
O   O18       1.0  0.83620  0.39280  0.93120  1.0000 -0.4309545641
O   O19       1.0  0.60720  0.16380  0.43120  1.0000 -0.4309545641
O   O20       1.0  0.16380  0.60720  0.06880  1.0000 -0.4309545641
O   O21       1.0  0.67630  0.59470  0.56870  1.0000 -0.4309545641
O   O22       1.0  0.59470  0.67630  0.93130  1.0000 -0.4309545641
O   O23       1.0  0.32370  0.40530  0.43130  1.0000 -0.4309545641
O   O24       1.0  0.40530  0.32370  0.06870  1.0000 -0.4309545641
