# DDEC6 charges by PACMAN v1.1 (https://github.com/mtap-research/PACMAN-charge/)
data_0000[CeZr][pth]3[ASR]1
_chemical_formula_sum              "Ce3 Zr3 C24 O48"
_cell_length_a       9.1034
_cell_length_b       9.1034
_cell_length_c       25.4708
_cell_angle_alpha    90
_cell_angle_beta     90
_cell_angle_gamma    120

_symmetry_space_group_name_H-M    "P 1"
_symmetry_Int_Tables_number       1

loop_
  _symmetry_equiv_pos_as_xyz
  'x, y, z'

loop_
  _atom_site_type_symbol
  _atom_site_label
  _atom_site_symmetry_multiplicity
  _atom_site_fract_x
  _atom_site_fract_y
  _atom_site_fract_z
  _atom_site_occupancy
  _atom_site_charge
Ce  Ce1       1.0  0.49987  0.00000  0.66667  1.0000 1.8901274067
Ce  Ce2       1.0  0.00000  0.49987  0.33333  1.0000 1.9018897872
Ce  Ce3       1.0  0.50013  0.50013  0.00000  1.0000 1.9018897872
Zr  Zr1       1.0  0.00006  0.00006  0.50000  1.0000 1.9069262605
Zr  Zr2       1.0  0.99994  0.00000  0.16667  1.0000 1.8685035568
Zr  Zr3       1.0  0.00000  0.99994  0.83333  1.0000 1.9069262605
C   C1        1.0  0.84560  0.08660  0.59160  1.0000 0.5270431053
C   C2        1.0  0.91340  0.75900  0.25827  1.0000 0.5270431053
C   C3        1.0  0.24100  0.15440  0.92493  1.0000 0.5270431053
C   C4        1.0  0.08660  0.84560  0.40840  1.0000 0.5270431053
C   C5        1.0  0.75900  0.91340  0.74173  1.0000 0.5270431053
C   C6        1.0  0.15440  0.24100  0.07507  1.0000 0.5270431053
C   C7        1.0  0.69560  0.93110  0.56620  1.0000 0.5231926105
C   C8        1.0  0.06890  0.76450  0.23287  1.0000 0.5231926105
C   C9        1.0  0.23550  0.30440  0.89953  1.0000 0.5231926105
C   C10       1.0  0.93110  0.69560  0.43380  1.0000 0.5231926105
C   C11       1.0  0.76450  0.06890  0.76713  1.0000 0.5231926105
C   C12       1.0  0.30440  0.23550  0.10047  1.0000 0.5231926105
C   C13       1.0  0.30190  0.06950  0.56660  1.0000 0.5231926105
C   C14       1.0  0.93050  0.23240  0.23327  1.0000 0.5231926105
C   C15       1.0  0.76760  0.69810  0.89993  1.0000 0.5231926105
C   C16       1.0  0.06950  0.30190  0.43340  1.0000 0.5231926105
C   C17       1.0  0.23240  0.93050  0.76673  1.0000 0.5231926105
C   C18       1.0  0.69810  0.76760  0.10007  1.0000 0.5231926105
C   C19       1.0  0.15520  0.90890  0.59050  1.0000 0.5270431053
C   C20       1.0  0.09110  0.24630  0.25717  1.0000 0.5270431053
C   C21       1.0  0.75370  0.84480  0.92383  1.0000 0.5270431053
C   C22       1.0  0.90890  0.15520  0.40950  1.0000 0.5270431053
C   C23       1.0  0.24630  0.09110  0.74283  1.0000 0.5270431053
C   C24       1.0  0.84480  0.75370  0.07617  1.0000 0.5270431053
O   O1        1.0  0.81170  0.14800  0.63030  1.0000 -0.489993586
O   O2        1.0  0.85200  0.66370  0.29697  1.0000 -0.489993586
O   O3        1.0  0.33630  0.18830  0.96363  1.0000 -0.489993586
O   O4        1.0  0.14800  0.81170  0.36970  1.0000 -0.489993586
O   O5        1.0  0.66370  0.85200  0.70303  1.0000 -0.489993586
O   O6        1.0  0.18830  0.33630  0.03637  1.0000 -0.489993586
O   O7        1.0  0.55200  0.86900  0.58450  1.0000 -0.4681236086
O   O8        1.0  0.13100  0.68300  0.25117  1.0000 -0.4681236086
O   O9        1.0  0.31700  0.44800  0.91783  1.0000 -0.4681236086
O   O10       1.0  0.86900  0.55200  0.41550  1.0000 -0.4681236086
O   O11       1.0  0.68300  0.13100  0.74883  1.0000 -0.4681236086
O   O12       1.0  0.44800  0.31700  0.08217  1.0000 -0.4681236086
O   O13       1.0  0.98560  0.14590  0.56810  1.0000 -0.5289315918
O   O14       1.0  0.85410  0.83970  0.23477  1.0000 -0.5289315918
O   O15       1.0  0.16030  0.01440  0.90143  1.0000 -0.5289315918
O   O16       1.0  0.14590  0.98560  0.43190  1.0000 -0.5289315918
O   O17       1.0  0.83970  0.85410  0.76523  1.0000 -0.5289315918
O   O18       1.0  0.01440  0.16030  0.09857  1.0000 -0.5289315918
O   O19       1.0  0.73570  0.87460  0.52690  1.0000 -0.4981727887
O   O20       1.0  0.12540  0.86110  0.19357  1.0000 -0.4981727887
O   O21       1.0  0.13890  0.26430  0.86023  1.0000 -0.4981727887
O   O22       1.0  0.87460  0.73570  0.47310  1.0000 -0.4981727887
O   O23       1.0  0.86110  0.12540  0.80643  1.0000 -0.4981727887
O   O24       1.0  0.26430  0.13890  0.13977  1.0000 -0.4981727887
O   O25       1.0  0.26380  0.12450  0.52600  1.0000 -0.5071908076
O   O26       1.0  0.87550  0.13930  0.19267  1.0000 -0.5071908076
O   O27       1.0  0.86070  0.73620  0.85933  1.0000 -0.5071908076
O   O28       1.0  0.12450  0.26380  0.47400  1.0000 -0.5071908076
O   O29       1.0  0.13930  0.87550  0.80733  1.0000 -0.5071908076
O   O30       1.0  0.73620  0.86070  0.14067  1.0000 -0.5071908076
O   O31       1.0  0.01350  0.85070  0.56770  1.0000 -0.5289315918
O   O32       1.0  0.14930  0.16280  0.23437  1.0000 -0.5289315918
O   O33       1.0  0.83720  0.98650  0.90103  1.0000 -0.5289315918
O   O34       1.0  0.85070  0.01350  0.43230  1.0000 -0.5289315918
O   O35       1.0  0.16280  0.14930  0.76563  1.0000 -0.5289315918
O   O36       1.0  0.98650  0.83720  0.09897  1.0000 -0.5289315918
O   O37       1.0  0.44620  0.12980  0.58520  1.0000 -0.4797249127
O   O38       1.0  0.87020  0.31640  0.25187  1.0000 -0.4797249127
O   O39       1.0  0.68360  0.55380  0.91853  1.0000 -0.4797249127
O   O40       1.0  0.12980  0.44620  0.41480  1.0000 -0.4797249127
O   O41       1.0  0.31640  0.87020  0.74813  1.0000 -0.4797249127
O   O42       1.0  0.55380  0.68360  0.08147  1.0000 -0.4797249127
O   O43       1.0  0.18720  0.85350  0.63150  1.0000 -0.489993586
O   O44       1.0  0.14650  0.33370  0.29817  1.0000 -0.4981727887
O   O45       1.0  0.66630  0.81280  0.96483  1.0000 -0.4981727887
O   O46       1.0  0.85350  0.18720  0.36850  1.0000 -0.4981727887
O   O47       1.0  0.33370  0.14650  0.70183  1.0000 -0.489993586
O   O48       1.0  0.81280  0.66630  0.03517  1.0000 -0.4981727887
