# DDEC6 charges by PACMAN v1.1 (https://github.com/mtap-research/PACMAN-charge/)
data_0000[Cd][deh]3[ASR]1
_chemical_formula_sum              "Cd8 H88 C120 N8 O32"
_cell_length_a       18.1771
_cell_length_b       18.1771
_cell_length_c       18.1771
_cell_angle_alpha    116.578
_cell_angle_beta     116.578
_cell_angle_gamma    96.0368

_symmetry_space_group_name_H-M    "P 1"
_symmetry_Int_Tables_number       1

loop_
  _symmetry_equiv_pos_as_xyz
  'x, y, z'

loop_
  _atom_site_type_symbol
  _atom_site_label
  _atom_site_symmetry_multiplicity
  _atom_site_fract_x
  _atom_site_fract_y
  _atom_site_fract_z
  _atom_site_occupancy
  _atom_site_charge
Cd  Cd1       1.0  0.55832  0.78941  0.08725  1.0000 0.9063745248
Cd  Cd2       1.0  0.70216  0.47107  0.91275  1.0000 0.9063745248
Cd  Cd3       1.0  0.53941  0.95216  0.73109  1.0000 0.9063745248
Cd  Cd4       1.0  0.22107  0.80832  0.26891  1.0000 0.9063745248
Cd  Cd5       1.0  0.19168  0.46059  0.41275  1.0000 0.9063745248
Cd  Cd6       1.0  0.04784  0.77893  0.58725  1.0000 0.9063745248
Cd  Cd7       1.0  0.21059  0.29784  0.76891  1.0000 0.9063745248
Cd  Cd8       1.0  0.52893  0.44168  0.23109  1.0000 0.9063745248
H   H1        1.0  0.42280  0.62140  0.89200  1.0000 0.1491885013
H   H2        1.0  0.72940  0.53080  0.10800  1.0000 0.1491885013
H   H3        1.0  0.37140  0.97940  0.69860  1.0000 0.1491885013
H   H4        1.0  0.28080  0.67280  0.30140  1.0000 0.1491885013
H   H5        1.0  0.32720  0.62860  0.60800  1.0000 0.1491885013
H   H6        1.0  0.02060  0.71920  0.39200  1.0000 0.1491885013
H   H7        1.0  0.37860  0.27060  0.80140  1.0000 0.1491885013
H   H8        1.0  0.46920  0.57720  0.19860  1.0000 0.1491885013
H   H9        1.0  0.36650  0.52590  0.85380  1.0000 0.1491885013
H   H10       1.0  0.67210  0.51270  0.14620  1.0000 0.1491885013
H   H11       1.0  0.27590  0.92210  0.65940  1.0000 0.1491885013
H   H12       1.0  0.26270  0.61650  0.34060  1.0000 0.1491885013
H   H13       1.0  0.38350  0.72410  0.64620  1.0000 0.1491885013
H   H14       1.0  0.07790  0.73730  0.35380  1.0000 0.1491885013
H   H15       1.0  0.47410  0.32790  0.84060  1.0000 0.1491885013
H   H16       1.0  0.48730  0.63350  0.15940  1.0000 0.1491885013
H   H17       1.0  0.46490  0.57570  0.94660  1.0000 0.173609424
H   H18       1.0  0.62910  0.51830  0.05340  1.0000 0.173609424
H   H19       1.0  0.32570  0.87910  0.61080  1.0000 0.173609424
H   H20       1.0  0.26830  0.71490  0.38920  1.0000 0.173609424
H   H21       1.0  0.28510  0.67430  0.55340  1.0000 0.173609424
H   H22       1.0  0.12090  0.73170  0.44660  1.0000 0.173609424
H   H23       1.0  0.42430  0.37090  0.88920  1.0000 0.173609424
H   H24       1.0  0.48170  0.53510  0.11080  1.0000 0.173609424
H   H25       1.0  0.49200  0.86720  0.22940  1.0000 0.1586704883
H   H26       1.0  0.63780  0.26260  0.77060  1.0000 0.1586704883
H   H27       1.0  0.61720  0.88780  0.87520  1.0000 0.1586704883
H   H28       1.0  0.01260  0.74200  0.12480  1.0000 0.1586704883
H   H29       1.0  0.25800  0.38280  0.27060  1.0000 0.1586704883
H   H30       1.0  0.11220  0.98740  0.72940  1.0000 0.1586704883
H   H31       1.0  0.13280  0.36220  0.62480  1.0000 0.1586704883
H   H32       1.0  0.73740  0.50800  0.37520  1.0000 0.1586704883
H   H33       1.0  0.39860  0.87350  0.19810  1.0000 0.1491885013
H   H34       1.0  0.67540  0.20050  0.80190  1.0000 0.1491885013
H   H35       1.0  0.62350  0.92540  0.97490  1.0000 0.1491885013
H   H36       1.0  0.95050  0.64860  0.02510  1.0000 0.1491885013
H   H37       1.0  0.35140  0.37650  0.30190  1.0000 0.1491885013
H   H38       1.0  0.07460  0.04950  0.69810  1.0000 0.1491885013
H   H39       1.0  0.12650  0.32460  0.52510  1.0000 0.1491885013
H   H40       1.0  0.79950  0.60140  0.47490  1.0000 0.1491885013
H   H41       1.0  0.44080  0.87720  0.14060  1.0000 0.1491885013
H   H42       1.0  0.73660  0.30020  0.85940  1.0000 0.1491885013
H   H43       1.0  0.62720  0.98660  0.93640  1.0000 0.1491885013
H   H44       1.0  0.05020  0.69080  0.06360  1.0000 0.1491885013
H   H45       1.0  0.30920  0.37280  0.35940  1.0000 0.1491885013
H   H46       1.0  0.01340  0.94980  0.64060  1.0000 0.1491885013
H   H47       1.0  0.12280  0.26340  0.56360  1.0000 0.1491885013
H   H48       1.0  0.69980  0.55920  0.43640  1.0000 0.1491885013
H   H49       1.0  0.30120  0.53600  0.13380  1.0000 0.1308195634
H   H50       1.0  0.40220  0.16740  0.86620  1.0000 0.1308195634
H   H51       1.0  0.28600  0.65220  0.73480  1.0000 0.1308195634
H   H52       1.0  0.91740  0.55120  0.26520  1.0000 0.1308195634
H   H53       1.0  0.44880  0.71400  0.36620  1.0000 0.1308195634
H   H54       1.0  0.34780  0.08260  0.63380  1.0000 0.1308195634
H   H55       1.0  0.46400  0.59780  0.76520  1.0000 0.1308195634
H   H56       1.0  0.83260  0.69880  0.23480  1.0000 0.1308195634
H   H57       1.0  0.19910  0.44550  0.12780  1.0000 0.1308195634
H   H58       1.0  0.31770  0.07130  0.87220  1.0000 0.1308195634
H   H59       1.0  0.19550  0.56770  0.74640  1.0000 0.1308195634
H   H60       1.0  0.82130  0.44910  0.25360  1.0000 0.1308195634
H   H61       1.0  0.55090  0.80450  0.37220  1.0000 0.1308195634
H   H62       1.0  0.43230  0.17870  0.62780  1.0000 0.1308195634
H   H63       1.0  0.55450  0.68230  0.75360  1.0000 0.1308195634
H   H64       1.0  0.92870  0.80090  0.24640  1.0000 0.1308195634
H   H65       1.0  0.05210  0.40460  0.02370  1.0000 0.1220635159
H   H66       1.0  0.38090  0.02840  0.97630  1.0000 0.1220635159
H   H67       1.0  0.15460  0.63090  0.85250  1.0000 0.1220635159
H   H68       1.0  0.77840  0.30210  0.14750  1.0000 0.1220635159
H   H69       1.0  0.69790  0.84540  0.47630  1.0000 0.1220635159
H   H70       1.0  0.36910  0.22160  0.52370  1.0000 0.1220635159
H   H71       1.0  0.59540  0.61910  0.64750  1.0000 0.1220635159
H   H72       1.0  0.97160  0.94790  0.35250  1.0000 0.1220635159
H   H73       1.0  0.00330  0.45950  0.92780  1.0000 0.1220635159
H   H74       1.0  0.53170  0.07550  0.07220  1.0000 0.1220635159
H   H75       1.0  0.20950  0.78170  0.95620  1.0000 0.1220635159
H   H76       1.0  0.82550  0.25330  0.04380  1.0000 0.1220635159
H   H77       1.0  0.74670  0.79050  0.57220  1.0000 0.1220635159
H   H78       1.0  0.21830  0.17450  0.42780  1.0000 0.1220635159
H   H79       1.0  0.54050  0.46830  0.54380  1.0000 0.1220635159
H   H80       1.0  0.92450  0.99670  0.45620  1.0000 0.1220635159
H   H81       1.0  0.10580  0.55020  0.92800  1.0000 0.1220635159
H   H82       1.0  0.62220  0.17780  0.07200  1.0000 0.1220635159
H   H83       1.0  0.30020  0.87220  0.94440  1.0000 0.1220635159
H   H84       1.0  0.92780  0.35580  0.05560  1.0000 0.1220635159
H   H85       1.0  0.64420  0.69980  0.57200  1.0000 0.1220635159
H   H86       1.0  0.12780  0.07220  0.42800  1.0000 0.1220635159
H   H87       1.0  0.44980  0.37780  0.55560  1.0000 0.1220635159
H   H88       1.0  0.82220  0.89420  0.44440  1.0000 0.1220635159
C   C1        1.0  0.29173  0.74843  0.16570  1.0000 0.5551737878
C   C2        1.0  0.58273  0.12603  0.83430  1.0000 0.5551737878
C   C3        1.0  0.49843  0.83273  0.95670  1.0000 0.5551737878
C   C4        1.0  0.87603  0.54173  0.04330  1.0000 0.5551737878
C   C5        1.0  0.45827  0.50157  0.33430  1.0000 0.5551737878
C   C6        1.0  0.16727  0.12397  0.66570  1.0000 0.5524411599
C   C7        1.0  0.25157  0.41727  0.54330  1.0000 0.5551737878
C   C8        1.0  0.87397  0.70827  0.45670  1.0000 0.5551737878
C   C9        1.0  0.27154  0.47154  0.89920  1.0000 0.5524411599
C   C10       1.0  0.57234  0.37234  0.10080  1.0000 0.5524411599
C   C11       1.0  0.22154  0.82234  0.70000  1.0000 0.5524411599
C   C12       1.0  0.12234  0.52154  0.30000  1.0000 0.5524411599
C   C13       1.0  0.47846  0.77846  0.60080  1.0000 0.5524411599
C   C14       1.0  0.17766  0.87766  0.39920  1.0000 0.5524411599
C   C15       1.0  0.52846  0.42766  0.80000  1.0000 0.5524411599
C   C16       1.0  0.62766  0.72846  0.20000  1.0000 0.5524411599
C   C17       1.0  0.31165  0.57075  0.97190  1.0000 -0.1434260555
C   C18       1.0  0.59885  0.33975  0.02810  1.0000 -0.1434260555
C   C19       1.0  0.32075  0.84885  0.75910  1.0000 -0.1434260555
C   C20       1.0  0.08975  0.56165  0.24090  1.0000 -0.1434260555
C   C21       1.0  0.43835  0.67925  0.52810  1.0000 -0.1434260555
C   C22       1.0  0.15115  0.91025  0.47190  1.0000 -0.1434260555
C   C23       1.0  0.42925  0.40115  0.74090  1.0000 -0.1434260555
C   C24       1.0  0.66025  0.68835  0.25910  1.0000 -0.1434260555
C   C25       1.0  0.37870  0.62330  0.97820  1.0000 0.3012609627
C   C26       1.0  0.64510  0.40050  0.02180  1.0000 0.3012609627
C   C27       1.0  0.37330  0.89510  0.74460  1.0000 0.3012609627
C   C28       1.0  0.15050  0.62870  0.25540  1.0000 0.3012609627
C   C29       1.0  0.37130  0.62670  0.52180  1.0000 0.3012609627
C   C30       1.0  0.10490  0.84950  0.47820  1.0000 0.3012609627
C   C31       1.0  0.37670  0.35490  0.75540  1.0000 0.3012609627
C   C32       1.0  0.59950  0.62130  0.24460  1.0000 0.3012609627
C   C33       1.0  0.41120  0.58290  0.91150  1.0000 -0.5173580241
C   C34       1.0  0.67140  0.49970  0.08850  1.0000 -0.5173580241
C   C35       1.0  0.33290  0.92140  0.67170  1.0000 -0.5173580241
C   C36       1.0  0.24970  0.66120  0.32830  1.0000 -0.5173580241
C   C37       1.0  0.33880  0.66710  0.58850  1.0000 -0.5173580241
C   C38       1.0  0.07860  0.75030  0.41150  1.0000 -0.5173580241
C   C39       1.0  0.41710  0.32860  0.82830  1.0000 -0.5173580241
C   C40       1.0  0.50030  0.58880  0.17170  1.0000 -0.5173580241
C   C41       1.0  0.39008  0.75158  0.10410  1.0000 0.3012609627
C   C42       1.0  0.64748  0.28598  0.89590  1.0000 0.3012609627
C   C43       1.0  0.50158  0.89748  0.86150  1.0000 0.3012609627
C   C44       1.0  0.03598  0.64008  0.13850  1.0000 0.3012609627
C   C45       1.0  0.35992  0.49842  0.39590  1.0000 0.3012609627
C   C46       1.0  0.10252  0.96402  0.60410  1.0000 0.3012609627
C   C47       1.0  0.24842  0.35252  0.63850  1.0000 0.3012609627
C   C48       1.0  0.71402  0.60992  0.36150  1.0000 0.3012609627
C   C49       1.0  0.43440  0.85140  0.17440  1.0000 -0.4922868428
C   C50       1.0  0.67700  0.26000  0.82560  1.0000 -0.4922868428
C   C51       1.0  0.60140  0.92700  0.91700  1.0000 -0.4922868428
C   C52       1.0  0.01000  0.68440  0.08300  1.0000 -0.4922868428
C   C53       1.0  0.31560  0.39860  0.32560  1.0000 -0.4922868428
C   C54       1.0  0.07300  0.99000  0.67440  1.0000 -0.4922868428
C   C55       1.0  0.14860  0.32300  0.58300  1.0000 -0.4922868428
C   C56       1.0  0.74000  0.56560  0.41700  1.0000 -0.4922868428
C   C57       1.0  0.32200  0.70260  0.10020  1.0000 -0.1579049159
C   C58       1.0  0.60240  0.22180  0.89980  1.0000 -0.1579049159
C   C59       1.0  0.45260  0.85240  0.88060  1.0000 -0.1579049159
C   C60       1.0  0.97180  0.57200  0.11940  1.0000 -0.1579049159
C   C61       1.0  0.42800  0.54740  0.39980  1.0000 -0.1579049159
C   C62       1.0  0.14760  0.02820  0.60020  1.0000 -0.1579049159
C   C63       1.0  0.29740  0.39760  0.61940  1.0000 -0.1579049159
C   C64       1.0  0.77820  0.67800  0.38060  1.0000 -0.1579049159
C   C65       1.0  0.28332  0.61032  0.03420  1.0000 0.0586938314
C   C66       1.0  0.57612  0.24912  0.96580  1.0000 0.0586938314
C   C67       1.0  0.36032  0.82612  0.82700  1.0000 0.0586938314
C   C68       1.0  0.99912  0.53332  0.17300  1.0000 0.0586938314
C   C69       1.0  0.46668  0.63968  0.46580  1.0000 0.0586938314
C   C70       1.0  0.17388  0.00088  0.53420  1.0000 0.0586938314
C   C71       1.0  0.38968  0.42388  0.67300  1.0000 0.0586938314
C   C72       1.0  0.75088  0.71668  0.32700  1.0000 0.0586938314
C   C73       1.0  0.21560  0.55360  0.03200  1.0000 0.0496986393
C   C74       1.0  0.52160  0.18360  0.96800  1.0000 0.0496986393
C   C75       1.0  0.30360  0.77160  0.83800  1.0000 0.0496986393
C   C76       1.0  0.93360  0.46560  0.16200  1.0000 0.0496986393
C   C77       1.0  0.53440  0.69640  0.46800  1.0000 0.0496986393
C   C78       1.0  0.22840  0.06640  0.53200  1.0000 0.0496986393
C   C79       1.0  0.44640  0.47840  0.66200  1.0000 0.0496986393
C   C80       1.0  0.81640  0.78440  0.33800  1.0000 0.0496986393
C   C81       1.0  0.24100  0.52090  0.09070  1.0000 -0.1145969
C   C82       1.0  0.43020  0.15030  0.90930  1.0000 -0.1145969
C   C83       1.0  0.27090  0.68020  0.77990  1.0000 -0.1145969
C   C84       1.0  0.90030  0.49100  0.22010  1.0000 -0.1145969
C   C85       1.0  0.50900  0.72910  0.40930  1.0000 -0.1145969
C   C86       1.0  0.31980  0.09970  0.59070  1.0000 -0.1145969
C   C87       1.0  0.47910  0.56980  0.72010  1.0000 -0.1145969
C   C88       1.0  0.84970  0.75900  0.27990  1.0000 -0.1145969
C   C89       1.0  0.17980  0.46650  0.08710  1.0000 -0.0724534042
C   C90       1.0  0.37940  0.09270  0.91290  1.0000 -0.0724534042
C   C91       1.0  0.21650  0.62940  0.78670  1.0000 -0.0724534042
C   C92       1.0  0.84270  0.42980  0.21330  1.0000 -0.0724534042
C   C93       1.0  0.57020  0.78350  0.41290  1.0000 -0.0724534042
C   C94       1.0  0.37060  0.15730  0.58710  1.0000 -0.0724534042
C   C95       1.0  0.53350  0.62060  0.71330  1.0000 -0.0724534042
C   C96       1.0  0.90730  0.82020  0.28670  1.0000 -0.0724534042
C   C97       1.0  0.09290  0.44280  0.02630  1.0000 -0.0973741006
C   C98       1.0  0.41650  0.06660  0.97370  1.0000 -0.0973741006
C   C99       1.0  0.19280  0.66650  0.84990  1.0000 -0.0973741006
C   C100      1.0  0.81660  0.34290  0.15010  1.0000 -0.0973741006
C   C101      1.0  0.65710  0.80720  0.47370  1.0000 -0.0973741006
C   C102      1.0  0.33350  0.18340  0.52630  1.0000 -0.0973741006
C   C103      1.0  0.55720  0.58350  0.65010  1.0000 -0.0973741006
C   C104      1.0  0.93340  0.90710  0.34990  1.0000 -0.0973741006
C   C105      1.0  0.06400  0.47430  0.96850  1.0000 -0.0866301772
C   C106      1.0  0.50580  0.09550  0.03150  1.0000 -0.0866301772
C   C107      1.0  0.22430  0.75580  0.91030  1.0000 -0.0866301772
C   C108      1.0  0.84550  0.31400  0.08970  1.0000 -0.0866301772
C   C109      1.0  0.68600  0.77570  0.53150  1.0000 -0.0866301772
C   C110      1.0  0.24420  0.15450  0.46850  1.0000 -0.0866301772
C   C111      1.0  0.52570  0.49420  0.58970  1.0000 -0.0866301772
C   C112      1.0  0.90450  0.93600  0.41030  1.0000 -0.0866301772
C   C113      1.0  0.12580  0.53000  0.96940  1.0000 -0.1257631503
C   C114      1.0  0.56060  0.15640  0.03060  1.0000 -0.1257631503
C   C115      1.0  0.28000  0.81060  0.90420  1.0000 -0.1257631503
C   C116      1.0  0.90640  0.37580  0.09580  1.0000 -0.1257631503
C   C117      1.0  0.62420  0.72000  0.53060  1.0000 -0.1257631503
C   C118      1.0  0.18940  0.09360  0.46940  1.0000 -0.1257631503
C   C119      1.0  0.47000  0.43940  0.59580  1.0000 -0.1257631503
C   C120      1.0  0.84360  0.87420  0.40420  1.0000 -0.1257631503
N   N1        1.0  0.41874  0.71265  0.04571  1.0000 -0.3525345963
N   N2        1.0  0.66694  0.37303  0.95429  1.0000 -0.3525345963
N   N3        1.0  0.46265  0.91694  0.79391  1.0000 -0.3525345963
N   N4        1.0  0.12303  0.66874  0.20609  1.0000 -0.3525345963
N   N5        1.0  0.33126  0.53735  0.45429  1.0000 -0.3525345963
N   N6        1.0  0.08306  0.87697  0.54571  1.0000 -0.3525345963
N   N7        1.0  0.28735  0.33306  0.70609  1.0000 -0.3525345963
N   N8        1.0  0.62697  0.58126  0.29391  1.0000 -0.3525345963
O   O1        1.0  0.33303  0.76721  0.25208  1.0000 -0.5288983551
O   O2        1.0  0.51513  0.08095  0.74792  1.0000 -0.5288983551
O   O3        1.0  0.51721  0.76513  0.93418  1.0000 -0.5288983551
O   O4        1.0  0.83095  0.58303  0.06582  1.0000 -0.5288983551
O   O5        1.0  0.41697  0.48279  0.24792  1.0000 -0.5288983551
O   O6        1.0  0.23487  0.16905  0.75208  1.0000 -0.5288983551
O   O7        1.0  0.23279  0.48487  0.56582  1.0000 -0.5288983551
O   O8        1.0  0.91905  0.66697  0.43418  1.0000 -0.5288983551
O   O9        1.0  0.22305  0.76435  0.13066  1.0000 -0.5417081233
O   O10       1.0  0.63369  0.09239  0.86934  1.0000 -0.5417081233
O   O11       1.0  0.51435  0.88369  0.04130  1.0000 -0.5417081233
O   O12       1.0  0.84239  0.47305  0.95870  1.0000 -0.5417081233
O   O13       1.0  0.52695  0.48565  0.36934  1.0000 -0.5417081233
O   O14       1.0  0.11631  0.15761  0.63066  1.0000 -0.5417081233
O   O15       1.0  0.23565  0.36631  0.45870  1.0000 -0.5417081233
O   O16       1.0  0.90761  0.77695  0.54130  1.0000 -0.5417081233
O   O17       1.0  0.31354  0.42701  0.92361  1.0000 -0.5087831137
O   O18       1.0  0.50340  0.38993  0.07639  1.0000 -0.5087831137
O   O19       1.0  0.17701  0.75340  0.61347  1.0000 -0.5087831137
O   O20       1.0  0.13993  0.56354  0.38653  1.0000 -0.5087831137
O   O21       1.0  0.43646  0.82299  0.57639  1.0000 -0.5087831137
O   O22       1.0  0.24660  0.86007  0.42361  1.0000 -0.5087831137
O   O23       1.0  0.57299  0.49660  0.88653  1.0000 -0.5087831137
O   O24       1.0  0.61007  0.68646  0.11347  1.0000 -0.5087831137
O   O25       1.0  0.19993  0.43739  0.81762  1.0000 -0.5417081233
O   O26       1.0  0.61977  0.38231  0.18238  1.0000 -0.5417081233
O   O27       1.0  0.18739  0.86977  0.73746  1.0000 -0.5417081233
O   O28       1.0  0.13231  0.44993  0.26254  1.0000 -0.5417081233
O   O29       1.0  0.55007  0.81261  0.68238  1.0000 -0.5417081233
O   O30       1.0  0.13023  0.86769  0.31762  1.0000 -0.5417081233
O   O31       1.0  0.56261  0.38023  0.76254  1.0000 -0.5417081233
O   O32       1.0  0.61769  0.80007  0.23746  1.0000 -0.5417081233
