# DDEC6 charges by PACMAN v1.1 (https://github.com/mtap-research/PACMAN-charge/)
data_0000[Ga][bpq]3[ASR]1
_chemical_formula_sum              "Ga8 H40 C64 O40"
_cell_length_a       19.2395
_cell_length_b       15.1642
_cell_length_c       6.6812
_cell_angle_alpha    90
_cell_angle_beta     84.0842
_cell_angle_gamma    90

_symmetry_space_group_name_H-M    "P 1"
_symmetry_Int_Tables_number       1

loop_
  _symmetry_equiv_pos_as_xyz
  'x, y, z'

loop_
  _atom_site_type_symbol
  _atom_site_label
  _atom_site_symmetry_multiplicity
  _atom_site_fract_x
  _atom_site_fract_y
  _atom_site_fract_z
  _atom_site_occupancy
  _atom_site_charge
Ga  Ga1       1.0  0.49568  0.25396  0.51928  1.0000 1.4424548612
Ga  Ga2       1.0  0.50432  0.75396  0.98072  1.0000 1.4424548612
Ga  Ga3       1.0  0.50432  0.74604  0.48072  1.0000 1.4424548612
Ga  Ga4       1.0  0.49568  0.24604  0.01928  1.0000 1.4424548612
Ga  Ga5       1.0  0.00000  0.00000  0.00000  1.0000 1.4424548612
Ga  Ga6       1.0  0.00000  0.50000  0.50000  1.0000 1.4424548612
Ga  Ga7       1.0  0.00000  0.00000  0.50000  1.0000 1.4424548612
Ga  Ga8       1.0  0.00000  0.50000  0.00000  1.0000 1.4424548612
H   H1        1.0  0.78732  0.09372  0.58149  1.0000 0.1230437049
H   H2        1.0  0.66881  0.12474  0.55727  1.0000 0.1305471944
H   H3        1.0  0.70824  0.14273  0.94831  1.0000 0.1230437049
H   H4        1.0  0.82676  0.11171  0.97252  1.0000 0.1305471944
H   H5        1.0  0.28082  0.17689  0.56010  1.0000 0.1230437049
H   H6        1.0  0.16320  0.14363  0.52772  1.0000 0.1305471944
H   H7        1.0  0.21599  0.06812  0.94732  1.0000 0.1230437049
H   H8        1.0  0.33361  0.10139  0.97970  1.0000 0.1305471944
H   H9        1.0  0.99990  0.37046  0.24650  1.0000 0.4218878314
H   H10       1.0  0.49900  0.12306  0.77180  1.0000 0.4254842714
H   H11       1.0  0.21268  0.59372  0.91851  1.0000 0.1230437049
H   H12       1.0  0.33119  0.62474  0.94273  1.0000 0.1305471944
H   H13       1.0  0.29176  0.64273  0.55169  1.0000 0.1230437049
H   H14       1.0  0.17324  0.61171  0.52748  1.0000 0.1305471944
H   H15       1.0  0.71918  0.67689  0.93990  1.0000 0.1230437049
H   H16       1.0  0.83680  0.64363  0.97228  1.0000 0.1305471944
H   H17       1.0  0.78401  0.56812  0.55268  1.0000 0.1230437049
H   H18       1.0  0.66639  0.60139  0.52030  1.0000 0.1305471944
H   H19       1.0  0.00010  0.87046  0.25350  1.0000 0.4218878314
H   H20       1.0  0.50100  0.62306  0.72820  1.0000 0.4254842714
H   H21       1.0  0.21268  0.90628  0.41851  1.0000 0.1230437049
H   H22       1.0  0.33119  0.87526  0.44273  1.0000 0.1305471944
H   H23       1.0  0.29176  0.85727  0.05169  1.0000 0.1230437049
H   H24       1.0  0.17324  0.88829  0.02748  1.0000 0.1305471944
H   H25       1.0  0.71918  0.82311  0.43990  1.0000 0.1230437049
H   H26       1.0  0.83680  0.85637  0.47228  1.0000 0.1305471944
H   H27       1.0  0.78401  0.93188  0.05268  1.0000 0.1230437049
H   H28       1.0  0.66639  0.89861  0.02030  1.0000 0.1305471944
H   H29       1.0  0.00010  0.62954  0.75350  1.0000 0.4218878314
H   H30       1.0  0.50100  0.87694  0.22820  1.0000 0.4254842714
H   H31       1.0  0.78732  0.40628  0.08149  1.0000 0.1230437049
H   H32       1.0  0.66881  0.37526  0.05727  1.0000 0.1305471944
H   H33       1.0  0.70824  0.35727  0.44831  1.0000 0.1230437049
H   H34       1.0  0.82676  0.38829  0.47252  1.0000 0.1305471944
H   H35       1.0  0.28082  0.32311  0.06010  1.0000 0.1230437049
H   H36       1.0  0.16320  0.35637  0.02772  1.0000 0.1305471944
H   H37       1.0  0.21599  0.43188  0.44732  1.0000 0.1230437049
H   H38       1.0  0.33361  0.39861  0.47970  1.0000 0.1305471944
H   H39       1.0  0.99990  0.12954  0.74650  1.0000 0.4218878314
H   H40       1.0  0.49900  0.37694  0.27180  1.0000 0.4254842714
C   C1        1.0  0.81687  0.10014  0.27902  1.0000 -0.0212209635
C   C2        1.0  0.77083  0.10394  0.44947  1.0000 -0.1055326455
C   C3        1.0  0.70174  0.12202  0.43535  1.0000 -0.103040417
C   C4        1.0  0.67869  0.13631  0.25078  1.0000 -0.0212209635
C   C5        1.0  0.72473  0.13251  0.08033  1.0000 -0.103040417
C   C6        1.0  0.79382  0.11442  0.09445  1.0000 -0.103040417
C   C7        1.0  0.89151  0.08060  0.29427  1.0000 0.6078381628
C   C8        1.0  0.60405  0.15584  0.23553  1.0000 0.6078381628
C   C9        1.0  0.31697  0.14190  0.27259  1.0000 -0.0212209635
C   C10       1.0  0.26730  0.15421  0.43233  1.0000 -0.1055326455
C   C11       1.0  0.19873  0.13482  0.41345  1.0000 -0.103040417
C   C12       1.0  0.17984  0.10312  0.23483  1.0000 -0.0212209635
C   C13       1.0  0.22951  0.09080  0.07509  1.0000 -0.103040417
C   C14       1.0  0.29808  0.11019  0.09397  1.0000 -0.103040417
C   C15       1.0  0.39104  0.16285  0.29299  1.0000 0.6010634169
C   C16       1.0  0.10577  0.08217  0.21443  1.0000 0.6010634169
C   C17       1.0  0.18313  0.60014  0.22098  1.0000 -0.0212209635
C   C18       1.0  0.22917  0.60394  0.05053  1.0000 -0.1055326455
C   C19       1.0  0.29826  0.62202  0.06465  1.0000 -0.103040417
C   C20       1.0  0.32131  0.63631  0.24922  1.0000 -0.0212209635
C   C21       1.0  0.27527  0.63251  0.41967  1.0000 -0.103040417
C   C22       1.0  0.20618  0.61442  0.40555  1.0000 -0.1055326455
C   C23       1.0  0.10849  0.58060  0.20573  1.0000 0.6078381628
C   C24       1.0  0.39595  0.65584  0.26447  1.0000 0.6078381628
C   C25       1.0  0.68303  0.64190  0.22741  1.0000 -0.0212209635
C   C26       1.0  0.73270  0.65421  0.06767  1.0000 -0.1055326455
C   C27       1.0  0.80127  0.63482  0.08655  1.0000 -0.103040417
C   C28       1.0  0.82016  0.60312  0.26517  1.0000 -0.0212209635
C   C29       1.0  0.77049  0.59080  0.42491  1.0000 -0.103040417
C   C30       1.0  0.70192  0.61019  0.40603  1.0000 -0.103040417
C   C31       1.0  0.60896  0.66285  0.20701  1.0000 0.6010634169
C   C32       1.0  0.89423  0.58217  0.28557  1.0000 0.6010634169
C   C33       1.0  0.18313  0.89986  0.72098  1.0000 -0.0212209635
C   C34       1.0  0.22917  0.89606  0.55053  1.0000 -0.1055326455
C   C35       1.0  0.29826  0.87798  0.56465  1.0000 -0.103040417
C   C36       1.0  0.32131  0.86369  0.74922  1.0000 -0.0212209635
C   C37       1.0  0.27527  0.86749  0.91967  1.0000 -0.103040417
C   C38       1.0  0.20618  0.88558  0.90555  1.0000 -0.103040417
C   C39       1.0  0.10849  0.91940  0.70573  1.0000 0.6078381628
C   C40       1.0  0.39595  0.84416  0.76447  1.0000 0.6078381628
C   C41       1.0  0.68303  0.85810  0.72741  1.0000 -0.0212209635
C   C42       1.0  0.73270  0.84579  0.56767  1.0000 -0.1055326455
C   C43       1.0  0.80127  0.86518  0.58655  1.0000 -0.103040417
C   C44       1.0  0.82016  0.89688  0.76517  1.0000 -0.0212209635
C   C45       1.0  0.77049  0.90920  0.92491  1.0000 -0.103040417
C   C46       1.0  0.70192  0.88981  0.90603  1.0000 -0.103040417
C   C47       1.0  0.60896  0.83715  0.70701  1.0000 0.6010634169
C   C48       1.0  0.89423  0.91783  0.78557  1.0000 0.6010634169
C   C49       1.0  0.81687  0.39986  0.77902  1.0000 -0.0212209635
C   C50       1.0  0.77083  0.39606  0.94947  1.0000 -0.1055326455
C   C51       1.0  0.70174  0.37798  0.93535  1.0000 -0.103040417
C   C52       1.0  0.67869  0.36369  0.75078  1.0000 -0.0212209635
C   C53       1.0  0.72473  0.36749  0.58033  1.0000 -0.103040417
C   C54       1.0  0.79382  0.38558  0.59445  1.0000 -0.103040417
C   C55       1.0  0.89151  0.41940  0.79427  1.0000 0.6078381628
C   C56       1.0  0.60405  0.34416  0.73553  1.0000 0.6078381628
C   C57       1.0  0.31697  0.35810  0.77259  1.0000 -0.0212209635
C   C58       1.0  0.26730  0.34579  0.93233  1.0000 -0.1055326455
C   C59       1.0  0.19873  0.36518  0.91345  1.0000 -0.103040417
C   C60       1.0  0.17984  0.39688  0.73483  1.0000 -0.0212209635
C   C61       1.0  0.22951  0.40920  0.57509  1.0000 -0.103040417
C   C62       1.0  0.29808  0.38981  0.59397  1.0000 -0.103040417
C   C63       1.0  0.39104  0.33715  0.79299  1.0000 0.6010634169
C   C64       1.0  0.10577  0.41783  0.71443  1.0000 0.6010634169
O   O1        1.0  0.49900  0.18900  0.77180  1.0000 -0.893466337
O   O2        1.0  0.99990  0.06360  0.74650  1.0000 -0.9107746616
O   O3        1.0  0.91268  0.06603  0.46508  1.0000 -0.5400599896
O   O4        1.0  0.93439  0.07842  0.13655  1.0000 -0.5569196626
O   O5        1.0  0.56103  0.15703  0.39300  1.0000 -0.5752719178
O   O6        1.0  0.58303  0.17142  0.06497  1.0000 -0.5537698626
O   O7        1.0  0.40855  0.19231  0.45851  1.0000 -0.5537698626
O   O8        1.0  0.43710  0.15135  0.14496  1.0000 -0.5569196626
O   O9        1.0  0.05926  0.09747  0.35933  1.0000 -0.5699519291
O   O10       1.0  0.08871  0.04890  0.05204  1.0000 -0.5400599896
O   O11       1.0  0.50100  0.68900  0.72820  1.0000 -0.893466337
O   O12       1.0  0.00010  0.56360  0.75350  1.0000 -0.9107746616
O   O13       1.0  0.08732  0.56603  0.03492  1.0000 -0.5400599896
O   O14       1.0  0.06561  0.57842  0.36345  1.0000 -0.5569196626
O   O15       1.0  0.43897  0.65703  0.10700  1.0000 -0.5752719178
O   O16       1.0  0.41697  0.67142  0.43503  1.0000 -0.5537698626
O   O17       1.0  0.59145  0.69231  0.04149  1.0000 -0.5537698626
O   O18       1.0  0.56290  0.65135  0.35504  1.0000 -0.5569196626
O   O19       1.0  0.94074  0.59747  0.14067  1.0000 -0.5699519291
O   O20       1.0  0.91129  0.54890  0.44796  1.0000 -0.5400599896
O   O21       1.0  0.50100  0.81100  0.22820  1.0000 -0.893466337
O   O22       1.0  0.00010  0.93640  0.25350  1.0000 -0.9107746616
O   O23       1.0  0.08732  0.93397  0.53492  1.0000 -0.5400599896
O   O24       1.0  0.06561  0.92158  0.86345  1.0000 -0.5569196626
O   O25       1.0  0.43897  0.84297  0.60700  1.0000 -0.5752719178
O   O26       1.0  0.41697  0.82858  0.93503  1.0000 -0.5537698626
O   O27       1.0  0.59145  0.80769  0.54149  1.0000 -0.5537698626
O   O28       1.0  0.56290  0.84865  0.85504  1.0000 -0.5569196626
O   O29       1.0  0.94074  0.90253  0.64067  1.0000 -0.5699519291
O   O30       1.0  0.91129  0.95110  0.94796  1.0000 -0.5400599896
O   O31       1.0  0.49900  0.31100  0.27180  1.0000 -0.893466337
O   O32       1.0  0.99990  0.43640  0.24650  1.0000 -0.9107746616
O   O33       1.0  0.91268  0.43397  0.96508  1.0000 -0.5400599896
O   O34       1.0  0.93439  0.42158  0.63655  1.0000 -0.5569196626
O   O35       1.0  0.56103  0.34297  0.89300  1.0000 -0.5699519291
O   O36       1.0  0.58303  0.32858  0.56497  1.0000 -0.5537698626
O   O37       1.0  0.40855  0.30769  0.95851  1.0000 -0.5537698626
O   O38       1.0  0.43710  0.34865  0.64496  1.0000 -0.5569196626
O   O39       1.0  0.05926  0.40253  0.85933  1.0000 -0.5699519291
O   O40       1.0  0.08871  0.45110  0.55204  1.0000 -0.5400599896
