# DDEC6 charges by PACMAN v1.1 (https://github.com/mtap-research/PACMAN-charge/)
data_0000[Cd][nan]3[ASR]13
_chemical_formula_sum              "Cd10 H54 C36 N72"
_cell_length_a       13.0959
_cell_length_b       13.0959
_cell_length_c       13.65
_cell_angle_alpha    90
_cell_angle_beta     90
_cell_angle_gamma    120

_symmetry_space_group_name_H-M    "P 1"
_symmetry_Int_Tables_number       1

loop_
  _symmetry_equiv_pos_as_xyz
  'x, y, z'

loop_
  _atom_site_type_symbol
  _atom_site_label
  _atom_site_symmetry_multiplicity
  _atom_site_fract_x
  _atom_site_fract_y
  _atom_site_fract_z
  _atom_site_occupancy
  _atom_site_charge
Cd  Cd1       1.0  0.99982  0.49992  0.00162  1.0000 0.6782785953
Cd  Cd2       1.0  0.50026  0.50005  0.00191  1.0000 0.6782785953
Cd  Cd3       1.0  0.50015  0.00010  0.00154  1.0000 0.6782785953
Cd  Cd4       1.0  0.50013  0.00000  0.50154  1.0000 0.6782785953
Cd  Cd5       1.0  0.49998  0.50022  0.50177  1.0000 0.6782785953
Cd  Cd6       1.0  0.00010  0.49996  0.50174  1.0000 0.6782785953
Cd  Cd7       1.0  0.33370  0.66705  0.10068  1.0000 0.5773480237
Cd  Cd8       1.0  0.66706  0.33312  0.90017  1.0000 0.5744384826
Cd  Cd9       1.0  0.33361  0.66709  0.40019  1.0000 0.5773480237
Cd  Cd10      1.0  0.66711  0.33344  0.60069  1.0000 0.5773480237
H   H1        1.0  0.81551  0.42306  0.18201  1.0000 0.1414109339
H   H2        1.0  0.17831  0.52805  0.81013  1.0000 0.1414109339
H   H3        1.0  0.47199  0.65048  0.80974  1.0000 0.1414109339
H   H4        1.0  0.60802  0.18478  0.18229  1.0000 0.1414109339
H   H5        1.0  0.34540  0.81700  0.78991  1.0000 0.1477991741
H   H6        1.0  0.52875  0.18312  0.28982  1.0000 0.1477991741
H   H7        1.0  0.42259  0.81546  0.68209  1.0000 0.1414109339
H   H8        1.0  0.65032  0.47187  0.30969  1.0000 0.1414109339
H   H9        1.0  0.81651  0.34517  0.28944  1.0000 0.1477991741
H   H10       1.0  0.82335  0.48322  0.30148  1.0000 0.1414109339
H   H11       1.0  0.18465  0.56971  0.68420  1.0000 0.1414109339
H   H12       1.0  0.51993  0.33885  0.28065  1.0000 0.1477991741
H   H13       1.0  0.43030  0.61470  0.68401  1.0000 0.1414109339
H   H14       1.0  0.65979  0.17622  0.30192  1.0000 0.1414109339
H   H15       1.0  0.48321  0.82336  0.80137  1.0000 0.1414109339
H   H16       1.0  0.61432  0.42997  0.18402  1.0000 0.1414109339
H   H17       1.0  0.33875  0.52037  0.78046  1.0000 0.1477991741
H   H18       1.0  0.18132  0.66110  0.78056  1.0000 0.1477991741
H   H19       1.0  0.03299  0.82799  0.08933  1.0000 0.1477991741
H   H20       1.0  0.96581  0.17074  0.91095  1.0000 0.1477991741
H   H21       1.0  0.17296  0.20505  0.08929  1.0000 0.1477991741
H   H22       1.0  0.82949  0.79506  0.91068  1.0000 0.1477991741
H   H23       1.0  0.79509  0.96750  0.08927  1.0000 0.1477991741
H   H24       1.0  0.20514  0.03290  0.91113  1.0000 0.1477991741
H   H25       1.0  0.17213  0.96700  0.41111  1.0000 0.1477991741
H   H26       1.0  0.82793  0.03288  0.58936  1.0000 0.1477991741
H   H27       1.0  0.79505  0.82949  0.41068  1.0000 0.1477991741
H   H28       1.0  0.20513  0.17275  0.58936  1.0000 0.1477991741
H   H29       1.0  0.03329  0.20526  0.41088  1.0000 0.1477991741
H   H30       1.0  0.96801  0.79483  0.58927  1.0000 0.1477991741
H   H31       1.0  0.03679  0.71542  0.16014  1.0000 0.1414109339
H   H32       1.0  0.96420  0.28510  0.84123  1.0000 0.1414109339
H   H33       1.0  0.28481  0.32149  0.16051  1.0000 0.1414109339
H   H34       1.0  0.71469  0.67913  0.84122  1.0000 0.1414109339
H   H35       1.0  0.67876  0.96355  0.16013  1.0000 0.1414109339
H   H36       1.0  0.32136  0.03626  0.84043  1.0000 0.1414109339
H   H37       1.0  0.28492  0.96352  0.34040  1.0000 0.1414109339
H   H38       1.0  0.71541  0.03674  0.66017  1.0000 0.1414109339
H   H39       1.0  0.67912  0.71471  0.34121  1.0000 0.1414109339
H   H40       1.0  0.32154  0.28478  0.66051  1.0000 0.1414109339
H   H41       1.0  0.03630  0.32145  0.34035  1.0000 0.1414109339
H   H42       1.0  0.96330  0.67844  0.66059  1.0000 0.1414109339
H   H43       1.0  0.95680  0.78374  0.20383  1.0000 0.1477991741
H   H44       1.0  0.04400  0.21680  0.79740  1.0000 0.1477991741
H   H45       1.0  0.21628  0.17319  0.20416  1.0000 0.1477991741
H   H46       1.0  0.78291  0.82725  0.79743  1.0000 0.1477991741
H   H47       1.0  0.82706  0.04353  0.20381  1.0000 0.1477991741
H   H48       1.0  0.17304  0.95613  0.79698  1.0000 0.1477991741
H   H49       1.0  0.21674  0.04364  0.29689  1.0000 0.1477991741
H   H50       1.0  0.78365  0.95665  0.70385  1.0000 0.1477991741
H   H51       1.0  0.82724  0.78299  0.29739  1.0000 0.1477991741
H   H52       1.0  0.17320  0.21627  0.70415  1.0000 0.1477991741
H   H53       1.0  0.95600  0.17309  0.29699  1.0000 0.1477991741
H   H54       1.0  0.04328  0.82682  0.70412  1.0000 0.1477991741
C   C1        1.0  0.98314  0.49472  0.25204  1.0000 0.3898656518
C   C2        1.0  0.01663  0.50542  0.75220  1.0000 0.3898656518
C   C3        1.0  0.51109  0.49461  0.25220  1.0000 0.3898656518
C   C4        1.0  0.49438  0.51112  0.75221  1.0000 0.3898656518
C   C5        1.0  0.51178  0.01661  0.25203  1.0000 0.3898656518
C   C6        1.0  0.49488  0.98333  0.75201  1.0000 0.3898656518
C   C7        1.0  0.85220  0.43297  0.25581  1.0000 -0.4643060862
C   C8        1.0  0.14761  0.56943  0.75626  1.0000 -0.4654239937
C   C9        1.0  0.57790  0.43042  0.25617  1.0000 -0.4654239937
C   C10       1.0  0.43040  0.57811  0.75617  1.0000 -0.4654239937
C   C11       1.0  0.58095  0.14762  0.25595  1.0000 -0.4654239937
C   C12       1.0  0.43300  0.85239  0.75586  1.0000 -0.4643060862
C   C13       1.0  0.87332  0.66011  0.08722  1.0000 0.3671019625
C   C14       1.0  0.12639  0.33849  0.91538  1.0000 0.3599850338
C   C15       1.0  0.34106  0.21354  0.08832  1.0000 0.3671019625
C   C16       1.0  0.66214  0.78811  0.91613  1.0000 0.3599850338
C   C17       1.0  0.78674  0.12724  0.08750  1.0000 0.3671019625
C   C18       1.0  0.21332  0.87312  0.91399  1.0000 0.3599850338
C   C19       1.0  0.34007  0.12677  0.41389  1.0000 0.3599850338
C   C20       1.0  0.66003  0.87329  0.58721  1.0000 0.3671019625
C   C21       1.0  0.78814  0.66215  0.41605  1.0000 0.3599850338
C   C22       1.0  0.21350  0.34064  0.58800  1.0000 0.3671019625
C   C23       1.0  0.87373  0.21328  0.41470  1.0000 0.3599850338
C   C24       1.0  0.12750  0.78616  0.58833  1.0000 0.3671019625
C   C25       1.0  0.98065  0.75186  0.13790  1.0000 -0.4536401777
C   C26       1.0  0.01953  0.24772  0.86358  1.0000 -0.4536401777
C   C27       1.0  0.24877  0.22896  0.13831  1.0000 -0.4536401777
C   C28       1.0  0.75230  0.77183  0.86360  1.0000 -0.4536401777
C   C29       1.0  0.77132  0.01982  0.13790  1.0000 -0.4536401777
C   C30       1.0  0.22882  0.98014  0.86292  1.0000 -0.4536401777
C   C31       1.0  0.24853  0.01967  0.36284  1.0000 -0.4536401777
C   C32       1.0  0.75180  0.98056  0.63794  1.0000 -0.4536401777
C   C33       1.0  0.77183  0.75232  0.36357  1.0000 -0.4536401777
C   C34       1.0  0.22900  0.24861  0.63830  1.0000 -0.4536401777
C   C35       1.0  0.98035  0.22893  0.36291  1.0000 -0.4536401777
C   C36       1.0  0.01989  0.77093  0.63833  1.0000 -0.4536401777
N   N1        1.0  0.04919  0.52472  0.16978  1.0000 -0.2799017528
N   N2        1.0  0.94791  0.47407  0.83304  1.0000 -0.2799017528
N   N3        1.0  0.47771  0.52721  0.16987  1.0000 -0.2799017528
N   N4        1.0  0.52580  0.47375  0.83300  1.0000 -0.2799017528
N   N5        1.0  0.47592  0.95069  0.16975  1.0000 -0.2799017528
N   N6        1.0  0.52830  0.05200  0.83292  1.0000 -0.2799017528
N   N7        1.0  0.47656  0.94802  0.33297  1.0000 -0.2799017528
N   N8        1.0  0.52474  0.04933  0.66975  1.0000 -0.2799017528
N   N9        1.0  0.47383  0.52602  0.33305  1.0000 -0.2799017528
N   N10       1.0  0.52696  0.47766  0.66990  1.0000 -0.2799017528
N   N11       1.0  0.05189  0.52815  0.33291  1.0000 -0.2799017528
N   N12       1.0  0.95072  0.47301  0.66985  1.0000 -0.2799017528
N   N13       1.0  0.16432  0.57886  0.20059  1.0000 -0.0597141508
N   N14       1.0  0.83385  0.42032  0.79972  1.0000 -0.0597141508
N   N15       1.0  0.41612  0.58091  0.20059  1.0000 -0.0597141508
N   N16       1.0  0.57981  0.41389  0.79965  1.0000 -0.0597141508
N   N17       1.0  0.41504  0.83537  0.20052  1.0000 -0.0597141508
N   N18       1.0  0.58077  0.16600  0.79973  1.0000 -0.0597141508
N   N19       1.0  0.41538  0.83392  0.29978  1.0000 -0.0597141508
N   N20       1.0  0.57880  0.16457  0.70052  1.0000 -0.0597141508
N   N21       1.0  0.41382  0.58005  0.29976  1.0000 -0.0597141508
N   N22       1.0  0.58065  0.41618  0.70064  1.0000 -0.0597141508
N   N23       1.0  0.16576  0.58079  0.29965  1.0000 -0.0597141508
N   N24       1.0  0.83538  0.41955  0.70048  1.0000 -0.0597141508
N   N25       1.0  0.86824  0.56850  0.03592  1.0000 -0.2721597651
N   N26       1.0  0.13080  0.42892  0.96832  1.0000 -0.2721597651
N   N27       1.0  0.43259  0.29997  0.03688  1.0000 -0.2721597651
N   N28       1.0  0.57094  0.70158  0.96806  1.0000 -0.2721597651
N   N29       1.0  0.70038  0.13217  0.03577  1.0000 -0.2721597651
N   N30       1.0  0.29985  0.86823  0.96572  1.0000 -0.2721597651
N   N31       1.0  0.43149  0.13170  0.46563  1.0000 -0.2721597651
N   N32       1.0  0.56837  0.86819  0.53597  1.0000 -0.2721597651
N   N33       1.0  0.70161  0.57089  0.46795  1.0000 -0.2721597651
N   N34       1.0  0.30016  0.43259  0.53709  1.0000 -0.2721597651
N   N35       1.0  0.86851  0.30033  0.46531  1.0000 -0.2721597651
N   N36       1.0  0.13264  0.69966  0.53701  1.0000 -0.2721597651
N   N37       1.0  0.24377  0.49268  0.00097  1.0000 -0.0831405249
N   N38       1.0  0.75572  0.50551  0.00239  1.0000 -0.0831405249
N   N39       1.0  0.50818  0.75129  0.00208  1.0000 -0.0831405249
N   N40       1.0  0.49547  0.25036  0.00343  1.0000 -0.0831405249
N   N41       1.0  0.25028  0.75559  0.99924  1.0000 -0.0831405249
N   N42       1.0  0.74960  0.24495  0.00295  1.0000 -0.0831405249
N   N43       1.0  0.50539  0.75569  0.50242  1.0000 -0.0858554839
N   N44       1.0  0.49431  0.24423  0.49938  1.0000 -0.0831405249
N   N45       1.0  0.25030  0.49499  0.50299  1.0000 -0.0831405249
N   N46       1.0  0.75138  0.50830  0.50214  1.0000 -0.0831405249
N   N47       1.0  0.24510  0.74921  0.50354  1.0000 -0.0831405249
N   N48       1.0  0.75650  0.25027  0.50040  1.0000 -0.0831405249
N   N49       1.0  0.86149  0.30450  0.03447  1.0000 -0.0597141508
N   N50       1.0  0.13811  0.69602  0.96818  1.0000 -0.0597141508
N   N51       1.0  0.69654  0.55856  0.03315  1.0000 -0.0597141508
N   N52       1.0  0.30394  0.44142  0.96829  1.0000 -0.0597141508
N   N53       1.0  0.44269  0.13835  0.03440  1.0000 -0.0597141508
N   N54       1.0  0.56101  0.86364  0.97137  1.0000 -0.0597141508
N   N55       1.0  0.69764  0.13718  0.47150  1.0000 -0.0597141508
N   N56       1.0  0.30438  0.86134  0.53436  1.0000 -0.0597141508
N   N57       1.0  0.44165  0.30373  0.46840  1.0000 -0.0597141508
N   N58       1.0  0.55851  0.69650  0.53308  1.0000 -0.0597141508
N   N59       1.0  0.86373  0.56115  0.47152  1.0000 -0.0597141508
N   N60       1.0  0.13789  0.44145  0.53310  1.0000 -0.0597141508
N   N61       1.0  0.88785  0.23313  0.08778  1.0000 -0.3011198565
N   N62       1.0  0.11190  0.76734  0.91440  1.0000 -0.3011198565
N   N63       1.0  0.76789  0.65617  0.08660  1.0000 -0.3011198565
N   N64       1.0  0.23270  0.34407  0.91425  1.0000 -0.3011198565
N   N65       1.0  0.34514  0.11208  0.08792  1.0000 -0.3011198565
N   N66       1.0  0.65815  0.88967  0.91697  1.0000 -0.3011198565
N   N67       1.0  0.76879  0.11103  0.41729  1.0000 -0.3011198565
N   N68       1.0  0.23309  0.88762  0.58783  1.0000 -0.3011198565
N   N69       1.0  0.34427  0.23246  0.41444  1.0000 -0.3011198565
N   N70       1.0  0.65612  0.76787  0.58653  1.0000 -0.3011198565
N   N71       1.0  0.88975  0.65823  0.41702  1.0000 -0.3011198565
N   N72       1.0  0.11166  0.34393  0.58667  1.0000 -0.3011198565
