# DDEC6 charges by PACMAN v1.1 (https://github.com/mtap-research/PACMAN-charge/)
data_0000[Zn][nts]3[ASR]1
_chemical_formula_sum              "Zn24 H208 C384 N80 O112"
_cell_length_a       36.1115
_cell_length_b       36.1115
_cell_length_c       36.1115
_cell_angle_alpha    120.37
_cell_angle_beta     120.37
_cell_angle_gamma    89.3611

_symmetry_space_group_name_H-M    "P 1"
_symmetry_Int_Tables_number       1

loop_
  _symmetry_equiv_pos_as_xyz
  'x, y, z'

loop_
  _atom_site_type_symbol
  _atom_site_label
  _atom_site_symmetry_multiplicity
  _atom_site_fract_x
  _atom_site_fract_y
  _atom_site_fract_z
  _atom_site_occupancy
  _atom_site_charge
Zn  Zn1       1.0  0.54638  0.28322  0.82960  1.0000 0.8879918465
Zn  Zn2       1.0  0.28322  0.45362  0.73684  1.0000 0.8879918465
Zn  Zn3       1.0  0.45362  0.71678  0.17040  1.0000 0.8879918465
Zn  Zn4       1.0  0.71678  0.54638  0.26316  1.0000 0.8879918465
Zn  Zn5       1.0  0.52290  0.30622  0.04884  1.0000 0.9208216415
Zn  Zn6       1.0  0.30622  0.25738  0.78332  1.0000 0.9208216415
Zn  Zn7       1.0  0.25738  0.47406  0.95116  1.0000 0.9208216415
Zn  Zn8       1.0  0.47406  0.52290  0.21668  1.0000 0.9208216415
Zn  Zn9       1.0  0.47710  0.69378  0.95116  1.0000 0.9208216415
Zn  Zn10      1.0  0.69378  0.74262  0.21668  1.0000 0.9208216415
Zn  Zn11      1.0  0.74262  0.52594  0.04884  1.0000 0.9208216415
Zn  Zn12      1.0  0.52594  0.47710  0.78332  1.0000 0.9208216415
Zn  Zn13      1.0  0.53048  0.24155  0.06471  1.0000 0.9208216415
Zn  Zn14      1.0  0.24155  0.17684  0.71107  1.0000 0.9208216415
Zn  Zn15      1.0  0.17684  0.46577  0.93529  1.0000 0.9208216415
Zn  Zn16      1.0  0.46577  0.53048  0.28893  1.0000 0.9208216415
Zn  Zn17      1.0  0.46952  0.75845  0.93529  1.0000 0.9208216415
Zn  Zn18      1.0  0.75845  0.82316  0.28893  1.0000 0.9208216415
Zn  Zn19      1.0  0.82316  0.53423  0.06471  1.0000 0.9208216415
Zn  Zn20      1.0  0.53423  0.46952  0.71107  1.0000 0.9208216415
Zn  Zn21      1.0  0.56146  0.21078  0.77224  1.0000 0.8879918465
Zn  Zn22      1.0  0.21078  0.43854  0.64932  1.0000 0.8879918465
Zn  Zn23      1.0  0.43854  0.78922  0.22776  1.0000 0.8879918465
Zn  Zn24      1.0  0.78922  0.56146  0.35068  1.0000 0.8879918465
H   H1        1.0  0.50200  0.35130  0.00950  1.0000 0.4312776336
H   H2        1.0  0.35130  0.34180  0.84930  1.0000 0.4312776336
H   H3        1.0  0.34180  0.49250  0.99050  1.0000 0.4312776336
H   H4        1.0  0.49250  0.50200  0.15070  1.0000 0.4312776336
H   H5        1.0  0.49800  0.64870  0.99050  1.0000 0.4312776336
H   H6        1.0  0.64870  0.65820  0.15070  1.0000 0.4312776336
H   H7        1.0  0.65820  0.50750  0.00950  1.0000 0.4312776336
H   H8        1.0  0.50750  0.49800  0.84930  1.0000 0.4312776336
H   H9        1.0  0.52540  0.16410  0.04810  1.0000 0.439387911
H   H10       1.0  0.16410  0.11600  0.63870  1.0000 0.439387911
H   H11       1.0  0.11600  0.47730  0.95190  1.0000 0.439387911
H   H12       1.0  0.47730  0.52540  0.36130  1.0000 0.439387911
H   H13       1.0  0.47460  0.83590  0.95190  1.0000 0.439387911
H   H14       1.0  0.83590  0.88400  0.36130  1.0000 0.439387911
H   H15       1.0  0.88400  0.52270  0.04810  1.0000 0.439387911
H   H16       1.0  0.52270  0.47460  0.63870  1.0000 0.439387911
H   H17       1.0  0.57680  0.14610  0.84870  1.0000 0.1491438268
H   H18       1.0  0.14610  0.29740  0.56930  1.0000 0.1491438268
H   H19       1.0  0.29740  0.72810  0.15130  1.0000 0.1491438268
H   H20       1.0  0.72810  0.57680  0.43070  1.0000 0.1491438268
H   H21       1.0  0.42320  0.85390  0.15130  1.0000 0.1491438268
H   H22       1.0  0.85390  0.70260  0.43070  1.0000 0.1491438268
H   H23       1.0  0.70260  0.27190  0.84870  1.0000 0.1491438268
H   H24       1.0  0.27190  0.42320  0.56930  1.0000 0.1491438268
H   H25       1.0  0.55750  0.25780  0.93850  1.0000 0.1491438268
H   H26       1.0  0.25780  0.31930  0.70030  1.0000 0.1491438268
H   H27       1.0  0.31930  0.61900  0.06150  1.0000 0.1491438268
H   H28       1.0  0.61900  0.55750  0.29970  1.0000 0.1491438268
H   H29       1.0  0.44250  0.74220  0.06150  1.0000 0.1491438268
H   H30       1.0  0.74220  0.68070  0.29970  1.0000 0.1491438268
H   H31       1.0  0.68070  0.38100  0.93850  1.0000 0.1491438268
H   H32       1.0  0.38100  0.44250  0.70030  1.0000 0.1491438268
H   H33       1.0  0.56530  0.15720  0.95890  1.0000 0.1491438268
H   H34       1.0  0.15720  0.19830  0.59190  1.0000 0.1491438268
H   H35       1.0  0.19830  0.60640  0.04110  1.0000 0.1491438268
H   H36       1.0  0.60640  0.56530  0.40810  1.0000 0.1491438268
H   H37       1.0  0.43470  0.84280  0.04110  1.0000 0.1491438268
H   H38       1.0  0.84280  0.80170  0.40810  1.0000 0.1491438268
H   H39       1.0  0.80170  0.39360  0.95890  1.0000 0.1491438268
H   H40       1.0  0.39360  0.43470  0.59190  1.0000 0.1491438268
H   H41       1.0  0.54910  0.06480  0.80890  1.0000 0.1294121743
H   H42       1.0  0.06480  0.25590  0.51570  1.0000 0.1294121743
H   H43       1.0  0.25590  0.74020  0.19110  1.0000 0.1294121743
H   H44       1.0  0.74020  0.54910  0.48430  1.0000 0.1294121743
H   H45       1.0  0.45090  0.93520  0.19110  1.0000 0.1294121743
H   H46       1.0  0.93520  0.74410  0.48430  1.0000 0.1294121743
H   H47       1.0  0.74410  0.25980  0.80890  1.0000 0.1294121743
H   H48       1.0  0.25980  0.45090  0.51570  1.0000 0.1294121743
H   H49       1.0  0.52450  0.98360  0.74570  1.0000 0.1294121743
H   H50       1.0  0.98360  0.23790  0.45910  1.0000 0.1294121743
H   H51       1.0  0.23790  0.77880  0.25430  1.0000 0.1294121743
H   H52       1.0  0.77880  0.52450  0.54090  1.0000 0.1294121743
H   H53       1.0  0.47550  0.01640  0.25430  1.0000 0.1294121743
H   H54       1.0  0.01640  0.76210  0.54090  1.0000 0.1294121743
H   H55       1.0  0.76210  0.22120  0.74570  1.0000 0.1294121743
H   H56       1.0  0.22120  0.47550  0.45910  1.0000 0.1294121743
H   H57       1.0  0.61650  0.97510  0.85960  1.0000 0.1294121743
H   H58       1.0  0.97510  0.11550  0.35860  1.0000 0.1294121743
H   H59       1.0  0.11550  0.75690  0.14040  1.0000 0.1294121743
H   H60       1.0  0.75690  0.61650  0.64140  1.0000 0.1294121743
H   H61       1.0  0.38350  0.02490  0.14040  1.0000 0.1294121743
H   H62       1.0  0.02490  0.88450  0.64140  1.0000 0.1294121743
H   H63       1.0  0.88450  0.24310  0.85960  1.0000 0.1294121743
H   H64       1.0  0.24310  0.38350  0.35860  1.0000 0.1294121743
H   H65       1.0  0.59970  0.90000  0.79650  1.0000 0.138165631
H   H66       1.0  0.90000  0.10350  0.30030  1.0000 0.138165631
H   H67       1.0  0.10350  0.80320  0.20350  1.0000 0.138165631
H   H68       1.0  0.80320  0.59970  0.69970  1.0000 0.138165631
H   H69       1.0  0.40030  0.10000  0.20350  1.0000 0.138165631
H   H70       1.0  0.10000  0.89650  0.69970  1.0000 0.138165631
H   H71       1.0  0.89650  0.19680  0.79650  1.0000 0.138165631
H   H72       1.0  0.19680  0.40030  0.30030  1.0000 0.138165631
H   H73       1.0  0.50940  0.90850  0.68410  1.0000 0.138165631
H   H74       1.0  0.90850  0.22440  0.39910  1.0000 0.138165631
H   H75       1.0  0.22440  0.82530  0.31590  1.0000 0.138165631
H   H76       1.0  0.82530  0.50940  0.60090  1.0000 0.138165631
H   H77       1.0  0.49060  0.09150  0.31590  1.0000 0.138165631
H   H78       1.0  0.09150  0.77560  0.60090  1.0000 0.138165631
H   H79       1.0  0.77560  0.17470  0.68410  1.0000 0.138165631
H   H80       1.0  0.17470  0.49060  0.39910  1.0000 0.138165631
H   H81       1.0  0.51630  0.84120  0.74350  1.0000 0.1294121743
H   H82       1.0  0.84120  0.09770  0.32490  1.0000 0.1294121743
H   H83       1.0  0.09770  0.77280  0.25650  1.0000 0.1294121743
H   H84       1.0  0.77280  0.51630  0.67510  1.0000 0.1294121743
H   H85       1.0  0.48370  0.15880  0.25650  1.0000 0.1294121743
H   H86       1.0  0.15880  0.90230  0.67510  1.0000 0.1294121743
H   H87       1.0  0.90230  0.22720  0.74350  1.0000 0.1294121743
H   H88       1.0  0.22720  0.48370  0.32490  1.0000 0.1294121743
H   H89       1.0  0.57750  0.78590  0.67900  1.0000 0.138165631
H   H90       1.0  0.78590  0.10690  0.20840  1.0000 0.138165631
H   H91       1.0  0.10690  0.89850  0.32100  1.0000 0.138165631
H   H92       1.0  0.89850  0.57750  0.79160  1.0000 0.138165631
H   H93       1.0  0.42250  0.21410  0.32100  1.0000 0.138165631
H   H94       1.0  0.21410  0.89310  0.79160  1.0000 0.138165631
H   H95       1.0  0.89310  0.10150  0.67900  1.0000 0.138165631
H   H96       1.0  0.10150  0.42250  0.20840  1.0000 0.138165631
H   H97       1.0  0.50570  0.77460  0.60930  1.0000 0.1294121743
H   H98       1.0  0.77460  0.16530  0.26890  1.0000 0.1294121743
H   H99       1.0  0.16530  0.89640  0.39070  1.0000 0.1294121743
H   H100      1.0  0.89640  0.50570  0.73110  1.0000 0.1294121743
H   H101      1.0  0.49430  0.22540  0.39070  1.0000 0.1294121743
H   H102      1.0  0.22540  0.83470  0.73110  1.0000 0.1294121743
H   H103      1.0  0.83470  0.10360  0.60930  1.0000 0.1294121743
H   H104      1.0  0.10360  0.49430  0.26890  1.0000 0.1294121743
H   H105      1.0  0.51160  0.78770  0.75850  1.0000 0.1294121743
H   H106      1.0  0.78770  0.02920  0.27610  1.0000 0.1294121743
H   H107      1.0  0.02920  0.75310  0.24150  1.0000 0.1294121743
H   H108      1.0  0.75310  0.51160  0.72390  1.0000 0.1294121743
H   H109      1.0  0.48840  0.21230  0.24150  1.0000 0.1294121743
H   H110      1.0  0.21230  0.97080  0.72390  1.0000 0.1294121743
H   H111      1.0  0.97080  0.24690  0.75850  1.0000 0.1294121743
H   H112      1.0  0.24690  0.48840  0.27610  1.0000 0.1294121743
H   H113      1.0  0.58060  0.73560  0.70220  1.0000 0.1294121743
H   H114      1.0  0.73560  0.03340  0.15500  1.0000 0.1294121743
H   H115      1.0  0.03340  0.87840  0.29780  1.0000 0.1294121743
H   H116      1.0  0.87840  0.58060  0.84500  1.0000 0.1294121743
H   H117      1.0  0.41940  0.26440  0.29780  1.0000 0.1294121743
H   H118      1.0  0.26440  0.96660  0.84500  1.0000 0.1294121743
H   H119      1.0  0.96660  0.12160  0.70220  1.0000 0.1294121743
H   H120      1.0  0.12160  0.41940  0.15500  1.0000 0.1294121743
H   H121      1.0  0.48540  0.75310  0.52750  1.0000 0.1195339947
H   H122      1.0  0.75310  0.22560  0.26770  1.0000 0.1195339947
H   H123      1.0  0.22560  0.95790  0.47250  1.0000 0.1195339947
H   H124      1.0  0.95790  0.48540  0.73230  1.0000 0.1195339947
H   H125      1.0  0.51460  0.24690  0.47250  1.0000 0.1195339947
H   H126      1.0  0.24690  0.77440  0.73230  1.0000 0.1195339947
H   H127      1.0  0.77440  0.04210  0.52750  1.0000 0.1195339947
H   H128      1.0  0.04210  0.51460  0.26770  1.0000 0.1195339947
H   H129      1.0  0.57400  0.86830  0.59970  1.0000 0.1294121743
H   H130      1.0  0.86830  0.26860  0.29430  1.0000 0.1294121743
H   H131      1.0  0.26860  0.97430  0.40030  1.0000 0.1294121743
H   H132      1.0  0.97430  0.57400  0.70570  1.0000 0.1294121743
H   H133      1.0  0.42600  0.13170  0.40030  1.0000 0.1294121743
H   H134      1.0  0.13170  0.73140  0.70570  1.0000 0.1294121743
H   H135      1.0  0.73140  0.02570  0.59970  1.0000 0.1294121743
H   H136      1.0  0.02570  0.42600  0.29430  1.0000 0.1294121743
H   H137      1.0  0.57610  0.89460  0.67610  1.0000 0.1294121743
H   H138      1.0  0.89460  0.21850  0.31850  1.0000 0.1294121743
H   H139      1.0  0.21850  0.90000  0.32390  1.0000 0.1294121743
H   H140      1.0  0.90000  0.57610  0.68150  1.0000 0.1294121743
H   H141      1.0  0.42390  0.10540  0.32390  1.0000 0.1294121743
H   H142      1.0  0.10540  0.78150  0.68150  1.0000 0.1294121743
H   H143      1.0  0.78150  0.10000  0.67610  1.0000 0.1294121743
H   H144      1.0  0.10000  0.42390  0.31850  1.0000 0.1294121743
H   H145      1.0  0.52160  0.73850  0.78770  1.0000 0.1294121743
H   H146      1.0  0.73850  0.95080  0.21690  1.0000 0.1294121743
H   H147      1.0  0.95080  0.73390  0.21230  1.0000 0.1294121743
H   H148      1.0  0.73390  0.52160  0.78310  1.0000 0.1294121743
H   H149      1.0  0.47840  0.26150  0.21230  1.0000 0.1294121743
H   H150      1.0  0.26150  0.04920  0.78310  1.0000 0.1294121743
H   H151      1.0  0.04920  0.26610  0.78770  1.0000 0.1294121743
H   H152      1.0  0.26610  0.47840  0.21690  1.0000 0.1294121743
H   H153      1.0  0.48720  0.72750  0.45150  1.0000 0.1294121743
H   H154      1.0  0.72750  0.27600  0.24030  1.0000 0.1294121743
H   H155      1.0  0.27600  0.03570  0.54850  1.0000 0.1294121743
H   H156      1.0  0.03570  0.48720  0.75970  1.0000 0.1294121743
H   H157      1.0  0.51280  0.27250  0.54850  1.0000 0.1294121743
H   H158      1.0  0.27250  0.72400  0.75970  1.0000 0.1294121743
H   H159      1.0  0.72400  0.96430  0.45150  1.0000 0.1294121743
H   H160      1.0  0.96430  0.51280  0.24030  1.0000 0.1294121743
H   H161      1.0  0.51630  0.71400  0.83390  1.0000 0.138165631
H   H162      1.0  0.71400  0.88010  0.19770  1.0000 0.138165631
H   H163      1.0  0.88010  0.68240  0.16610  1.0000 0.1491438268
H   H164      1.0  0.68240  0.51630  0.80230  1.0000 0.1491438268
H   H165      1.0  0.48370  0.28600  0.16610  1.0000 0.138165631
H   H166      1.0  0.28600  0.11990  0.80230  1.0000 0.138165631
H   H167      1.0  0.11990  0.31760  0.83390  1.0000 0.138165631
H   H168      1.0  0.31760  0.48370  0.19770  1.0000 0.138165631
H   H169      1.0  0.54030  0.60370  0.75000  1.0000 0.1491438268
H   H170      1.0  0.60370  0.85370  0.06340  1.0000 0.1491438268
H   H171      1.0  0.85370  0.79030  0.25000  1.0000 0.1491438268
H   H172      1.0  0.79030  0.54030  0.93660  1.0000 0.1491438268
H   H173      1.0  0.45970  0.39630  0.25000  1.0000 0.1491438268
H   H174      1.0  0.39630  0.14630  0.93660  1.0000 0.1491438268
H   H175      1.0  0.14630  0.20970  0.75000  1.0000 0.1491438268
H   H176      1.0  0.20970  0.45970  0.06340  1.0000 0.1491438268
H   H177      1.0  0.46570  0.65130  0.24520  1.0000 0.1491438268
H   H178      1.0  0.65130  0.40610  0.18560  1.0000 0.1491438268
H   H179      1.0  0.40610  0.22050  0.75480  1.0000 0.1605923513
H   H180      1.0  0.22050  0.46570  0.81440  1.0000 0.1491438268
H   H181      1.0  0.53430  0.34870  0.75480  1.0000 0.1605923513
H   H182      1.0  0.34870  0.59390  0.81440  1.0000 0.1491438268
H   H183      1.0  0.59390  0.77950  0.24520  1.0000 0.1605923513
H   H184      1.0  0.77950  0.53430  0.18560  1.0000 0.1491438268
H   H185      1.0  0.48530  0.67540  0.37590  1.0000 0.1491438268
H   H186      1.0  0.67540  0.29950  0.19010  1.0000 0.1491438268
H   H187      1.0  0.29950  0.10940  0.62410  1.0000 0.1491438268
H   H188      1.0  0.10940  0.48530  0.80990  1.0000 0.1491438268
H   H189      1.0  0.51470  0.32460  0.62410  1.0000 0.1491438268
H   H190      1.0  0.32460  0.70050  0.80990  1.0000 0.1491438268
H   H191      1.0  0.70050  0.89060  0.37590  1.0000 0.1491438268
H   H192      1.0  0.89060  0.51470  0.19010  1.0000 0.1491438268
H   H193      1.0  0.47550  0.77380  0.35270  1.0000 0.1491438268
H   H194      1.0  0.77380  0.42110  0.29830  1.0000 0.1491438268
H   H195      1.0  0.42110  0.12280  0.64730  1.0000 0.1491438268
H   H196      1.0  0.12280  0.47550  0.70170  1.0000 0.1491438268
H   H197      1.0  0.52450  0.22620  0.64730  1.0000 0.1491438268
H   H198      1.0  0.22620  0.57890  0.70170  1.0000 0.1491438268
H   H199      1.0  0.57890  0.87720  0.35270  1.0000 0.1491438268
H   H200      1.0  0.87720  0.52450  0.29830  1.0000 0.1491438268
H   H201      1.0  0.51350  0.61050  0.84780  1.0000 0.1491438268
H   H202      1.0  0.61050  0.76270  0.09700  1.0000 0.1491438268
H   H203      1.0  0.76270  0.66570  0.15220  1.0000 0.1491438268
H   H204      1.0  0.66570  0.51350  0.90300  1.0000 0.1491438268
H   H205      1.0  0.48650  0.38950  0.15220  1.0000 0.1491438268
H   H206      1.0  0.38950  0.23730  0.90300  1.0000 0.1491438268
H   H207      1.0  0.23730  0.33430  0.84780  1.0000 0.1491438268
H   H208      1.0  0.33430  0.48650  0.09700  1.0000 0.1491438268
C   C1        1.0  0.57275  0.16265  0.87538  1.0000 -0.1788303204
C   C2        1.0  0.16265  0.28727  0.58990  1.0000 -0.1788303204
C   C3        1.0  0.28727  0.69737  0.12462  1.0000 -0.1788303204
C   C4        1.0  0.69737  0.57275  0.41010  1.0000 -0.1788303204
C   C5        1.0  0.42725  0.83735  0.12462  1.0000 -0.1788303204
C   C6        1.0  0.83735  0.71273  0.41010  1.0000 -0.1788303204
C   C7        1.0  0.71273  0.30263  0.87538  1.0000 -0.1788303204
C   C8        1.0  0.30263  0.42725  0.58990  1.0000 -0.1788303204
C   C9        1.0  0.56666  0.20446  0.88912  1.0000 0.0019165161
C   C10       1.0  0.20446  0.31534  0.63780  1.0000 0.0019165161
C   C11       1.0  0.31534  0.67754  0.11088  1.0000 0.0019165161
C   C12       1.0  0.67754  0.56666  0.36220  1.0000 0.0019165161
C   C13       1.0  0.43334  0.79554  0.11088  1.0000 0.0019165161
C   C14       1.0  0.79554  0.68466  0.36220  1.0000 0.0019165161
C   C15       1.0  0.68466  0.32246  0.88912  1.0000 0.0019165161
C   C16       1.0  0.32246  0.43334  0.63780  1.0000 0.0019165161
C   C17       1.0  0.56357  0.22167  0.85708  1.0000 0.5973915988
C   C18       1.0  0.22167  0.36459  0.65810  1.0000 0.5973915988
C   C19       1.0  0.36459  0.70649  0.14292  1.0000 0.5973915988
C   C20       1.0  0.70649  0.56357  0.34190  1.0000 0.5973915988
C   C21       1.0  0.43643  0.77833  0.14292  1.0000 0.5973915988
C   C22       1.0  0.77833  0.63541  0.34190  1.0000 0.5973915988
C   C23       1.0  0.63541  0.29351  0.85708  1.0000 0.5973915988
C   C24       1.0  0.29351  0.43643  0.65810  1.0000 0.5973915988
C   C25       1.0  0.56089  0.22944  0.92925  1.0000 -0.1006734693
C   C26       1.0  0.22944  0.30019  0.66855  1.0000 -0.1006734693
C   C27       1.0  0.30019  0.63164  0.07075  1.0000 -0.1082592059
C   C28       1.0  0.63164  0.56089  0.33145  1.0000 -0.1082592059
C   C29       1.0  0.43911  0.77056  0.07075  1.0000 -0.1082592059
C   C30       1.0  0.77056  0.69981  0.33145  1.0000 -0.1082592059
C   C31       1.0  0.69981  0.36836  0.92925  1.0000 -0.1006734693
C   C32       1.0  0.36836  0.43911  0.66855  1.0000 -0.1006734693
C   C33       1.0  0.56024  0.21166  0.95542  1.0000 0.0097339267
C   C34       1.0  0.21166  0.25624  0.65142  1.0000 0.0097339267
C   C35       1.0  0.25624  0.60482  0.04458  1.0000 0.0097339267
C   C36       1.0  0.60482  0.56024  0.34858  1.0000 0.0097339267
C   C37       1.0  0.43976  0.78834  0.04458  1.0000 0.0097339267
C   C38       1.0  0.78834  0.74376  0.34858  1.0000 0.0097339267
C   C39       1.0  0.74376  0.39518  0.95542  1.0000 0.0097339267
C   C40       1.0  0.39518  0.43976  0.65142  1.0000 0.0097339267
C   C41       1.0  0.54921  0.23581  0.99548  1.0000 0.5845052907
C   C42       1.0  0.23581  0.24033  0.68660  1.0000 0.5845052907
C   C43       1.0  0.24033  0.55373  0.00452  1.0000 0.5845052907
C   C44       1.0  0.55373  0.54921  0.31340  1.0000 0.5845052907
C   C45       1.0  0.45079  0.76419  0.00452  1.0000 0.5845052907
C   C46       1.0  0.76419  0.75967  0.31340  1.0000 0.5845052907
C   C47       1.0  0.75967  0.44627  0.99548  1.0000 0.5845052907
C   C48       1.0  0.44627  0.45079  0.68660  1.0000 0.5845052907
C   C49       1.0  0.56595  0.16944  0.94181  1.0000 -0.1667778274
C   C50       1.0  0.16944  0.22763  0.60349  1.0000 -0.1667778274
C   C51       1.0  0.22763  0.62414  0.05819  1.0000 -0.1667778274
C   C52       1.0  0.62414  0.56595  0.39651  1.0000 -0.1667778274
C   C53       1.0  0.43405  0.83056  0.05819  1.0000 -0.1667778274
C   C54       1.0  0.83056  0.77237  0.39651  1.0000 -0.1667778274
C   C55       1.0  0.77237  0.37586  0.94181  1.0000 -0.1643973282
C   C56       1.0  0.37586  0.43405  0.60349  1.0000 -0.1643973282
C   C57       1.0  0.57257  0.14631  0.90268  1.0000 0.1491438268
C   C58       1.0  0.14631  0.24363  0.57374  1.0000 0.1491438268
C   C59       1.0  0.24363  0.66989  0.09732  1.0000 0.1491438268
C   C60       1.0  0.66989  0.57257  0.42626  1.0000 0.1491438268
C   C61       1.0  0.42743  0.85369  0.09732  1.0000 0.1491438268
C   C62       1.0  0.85369  0.75637  0.42626  1.0000 0.1491438268
C   C63       1.0  0.75637  0.33011  0.90268  1.0000 0.1491438268
C   C64       1.0  0.33011  0.42743  0.57374  1.0000 0.1491438268
C   C65       1.0  0.56316  0.06627  0.83963  1.0000 -0.151129338
C   C66       1.0  0.06627  0.22664  0.50311  1.0000 -0.151129338
C   C67       1.0  0.22664  0.72353  0.16037  1.0000 -0.151129338
C   C68       1.0  0.72353  0.56316  0.49689  1.0000 -0.151129338
C   C69       1.0  0.43684  0.93373  0.16037  1.0000 -0.151129338
C   C70       1.0  0.93373  0.77336  0.49689  1.0000 -0.151129338
C   C71       1.0  0.77336  0.27647  0.83963  1.0000 -0.151129338
C   C72       1.0  0.27647  0.43684  0.50311  1.0000 -0.151129338
C   C73       1.0  0.57470  0.03310  0.84592  1.0000 0.1195339947
C   C74       1.0  0.03310  0.18718  0.45840  1.0000 0.1195339947
C   C75       1.0  0.18718  0.72878  0.15408  1.0000 0.1195339947
C   C76       1.0  0.72878  0.57470  0.54160  1.0000 0.1195339947
C   C77       1.0  0.42530  0.96690  0.15408  1.0000 0.1195339947
C   C78       1.0  0.96690  0.81282  0.54160  1.0000 0.1195339947
C   C79       1.0  0.81282  0.27122  0.84592  1.0000 0.1195339947
C   C80       1.0  0.27122  0.42530  0.45840  1.0000 0.1195339947
C   C81       1.0  0.56837  0.98599  0.80836  1.0000 0.047513563
C   C82       1.0  0.98599  0.17763  0.41762  1.0000 0.047513563
C   C83       1.0  0.17763  0.76001  0.19164  1.0000 0.047513563
C   C84       1.0  0.76001  0.56837  0.58238  1.0000 0.047513563
C   C85       1.0  0.43163  0.01401  0.19164  1.0000 0.047513563
C   C86       1.0  0.01401  0.82237  0.58238  1.0000 0.0411796571
C   C87       1.0  0.82237  0.23999  0.80836  1.0000 0.047513563
C   C88       1.0  0.23999  0.43163  0.41762  1.0000 0.047513563
C   C89       1.0  0.53939  0.96653  0.75702  1.0000 -0.1198748226
C   C90       1.0  0.96653  0.20951  0.42714  1.0000 -0.1198748226
C   C91       1.0  0.20951  0.78237  0.24298  1.0000 -0.1198748226
C   C92       1.0  0.78237  0.53939  0.57286  1.0000 -0.1198748226
C   C93       1.0  0.46061  0.03347  0.24298  1.0000 -0.1198748226
C   C94       1.0  0.03347  0.79049  0.57286  1.0000 -0.1198748226
C   C95       1.0  0.79049  0.21763  0.75702  1.0000 -0.1198748226
C   C96       1.0  0.21763  0.46061  0.42714  1.0000 -0.1198748226
C   C97       1.0  0.59355  0.96184  0.82429  1.0000 -0.1006734693
C   C98       1.0  0.96184  0.13755  0.36829  1.0000 -0.1006734693
C   C99       1.0  0.13755  0.76926  0.17571  1.0000 -0.1006734693
C   C100      1.0  0.76926  0.59355  0.63171  1.0000 -0.1082592059
C   C101      1.0  0.40645  0.03816  0.17571  1.0000 -0.1006734693
C   C102      1.0  0.03816  0.86245  0.63171  1.0000 -0.1006734693
C   C103      1.0  0.86245  0.23074  0.82429  1.0000 -0.1006734693
C   C104      1.0  0.23074  0.40645  0.36829  1.0000 -0.1006734693
C   C105      1.0  0.58348  0.91689  0.78581  1.0000 -0.1897172143
C   C106      1.0  0.91689  0.13108  0.33341  1.0000 -0.1788303204
C   C107      1.0  0.13108  0.79767  0.21419  1.0000 -0.1897172143
C   C108      1.0  0.79767  0.58348  0.66659  1.0000 -0.1788303204
C   C109      1.0  0.41652  0.08311  0.21419  1.0000 -0.1788303204
C   C110      1.0  0.08311  0.86892  0.66659  1.0000 -0.1788303204
C   C111      1.0  0.86892  0.20233  0.78581  1.0000 -0.1788303204
C   C112      1.0  0.20233  0.41652  0.33341  1.0000 -0.1897172143
C   C113      1.0  0.53057  0.92122  0.71965  1.0000 -0.1667778274
C   C114      1.0  0.92122  0.20157  0.39065  1.0000 -0.1667778274
C   C115      1.0  0.20157  0.81092  0.28035  1.0000 -0.1667778274
C   C116      1.0  0.81092  0.53057  0.60935  1.0000 -0.1667778274
C   C117      1.0  0.46943  0.07878  0.28035  1.0000 -0.1667778274
C   C118      1.0  0.07878  0.79843  0.60935  1.0000 -0.1667778274
C   C119      1.0  0.79843  0.18908  0.71965  1.0000 -0.1667778274
C   C120      1.0  0.18908  0.46943  0.39065  1.0000 -0.1667778274
C   C121      1.0  0.55179  0.89619  0.73400  1.0000 0.1605923513
C   C122      1.0  0.89619  0.16219  0.34440  1.0000 0.1605923513
C   C123      1.0  0.16219  0.81779  0.26600  1.0000 0.1605923513
C   C124      1.0  0.81779  0.55179  0.65560  1.0000 0.1605923513
C   C125      1.0  0.44821  0.10381  0.26600  1.0000 0.1605923513
C   C126      1.0  0.10381  0.83781  0.65560  1.0000 0.1605923513
C   C127      1.0  0.83781  0.18221  0.73400  1.0000 0.1605923513
C   C128      1.0  0.18221  0.44821  0.34440  1.0000 0.1605923513
C   C129      1.0  0.54318  0.81742  0.70624  1.0000 0.1605923513
C   C130      1.0  0.81742  0.11118  0.27424  1.0000 0.1605923513
C   C131      1.0  0.11118  0.83694  0.29376  1.0000 0.1605923513
C   C132      1.0  0.83694  0.54318  0.72576  1.0000 0.1605923513
C   C133      1.0  0.45682  0.18258  0.29376  1.0000 0.1605923513
C   C134      1.0  0.18258  0.88882  0.72576  1.0000 0.1605923513
C   C135      1.0  0.88882  0.16306  0.70624  1.0000 0.1605923513
C   C136      1.0  0.16306  0.45682  0.27424  1.0000 0.1605923513
C   C137      1.0  0.52734  0.81765  0.73131  1.0000 -0.1897172143
C   C138      1.0  0.81765  0.08634  0.29031  1.0000 -0.1897172143
C   C139      1.0  0.08634  0.79603  0.26869  1.0000 -0.1897172143
C   C140      1.0  0.79603  0.52734  0.70969  1.0000 -0.1897172143
C   C141      1.0  0.47266  0.18235  0.26869  1.0000 -0.1897172143
C   C142      1.0  0.18235  0.91366  0.70969  1.0000 -0.1897172143
C   C143      1.0  0.91366  0.20397  0.73131  1.0000 -0.1897172143
C   C144      1.0  0.20397  0.47266  0.29031  1.0000 -0.1897172143
C   C145      1.0  0.56370  0.78679  0.69509  1.0000 -0.1992903776
C   C146      1.0  0.78679  0.09170  0.22309  1.0000 -0.1992903776
C   C147      1.0  0.09170  0.86861  0.30491  1.0000 -0.1992903776
C   C148      1.0  0.86861  0.56370  0.77691  1.0000 -0.1992903776
C   C149      1.0  0.43630  0.21321  0.30491  1.0000 -0.1992903776
C   C150      1.0  0.21321  0.90830  0.77691  1.0000 -0.1992903776
C   C151      1.0  0.90830  0.13139  0.69509  1.0000 -0.1992903776
C   C152      1.0  0.13139  0.43630  0.22309  1.0000 -0.1992903776
C   C153      1.0  0.53551  0.83717  0.64806  1.0000 0.1605923513
C   C154      1.0  0.83717  0.18911  0.30166  1.0000 0.1605923513
C   C155      1.0  0.18911  0.88745  0.35194  1.0000 0.1605923513
C   C156      1.0  0.88745  0.53551  0.69834  1.0000 0.1605923513
C   C157      1.0  0.46449  0.16283  0.35194  1.0000 0.1605923513
C   C158      1.0  0.16283  0.81089  0.69834  1.0000 0.1605923513
C   C159      1.0  0.81089  0.11255  0.64806  1.0000 0.1605923513
C   C160      1.0  0.11255  0.46449  0.30166  1.0000 0.1605923513
C   C161      1.0  0.51467  0.79685  0.60678  1.0000 -0.1897172143
C   C162      1.0  0.79685  0.19007  0.28218  1.0000 -0.1897172143
C   C163      1.0  0.19007  0.90789  0.39322  1.0000 -0.1897172143
C   C164      1.0  0.90789  0.51467  0.71782  1.0000 -0.1897172143
C   C165      1.0  0.48533  0.20315  0.39322  1.0000 -0.1897172143
C   C166      1.0  0.20315  0.80993  0.71782  1.0000 -0.1897172143
C   C167      1.0  0.80993  0.09211  0.60678  1.0000 -0.1897172143
C   C168      1.0  0.09211  0.48533  0.28218  1.0000 -0.1897172143
C   C169      1.0  0.52514  0.78587  0.74183  1.0000 -0.1198748226
C   C170      1.0  0.78587  0.04404  0.26073  1.0000 -0.1198748226
C   C171      1.0  0.04404  0.78331  0.25817  1.0000 -0.1198748226
C   C172      1.0  0.78331  0.52514  0.73927  1.0000 -0.1198748226
C   C173      1.0  0.47486  0.21413  0.25817  1.0000 -0.1198748226
C   C174      1.0  0.21413  0.95596  0.73927  1.0000 -0.1198748226
C   C175      1.0  0.95596  0.21669  0.74183  1.0000 -0.1198748226
C   C176      1.0  0.21669  0.47486  0.26073  1.0000 -0.1198748226
C   C177      1.0  0.54198  0.75431  0.72833  1.0000 0.0411796571
C   C178      1.0  0.75431  0.02598  0.21233  1.0000 0.0411796571
C   C179      1.0  0.02598  0.81365  0.27167  1.0000 0.0411796571
C   C180      1.0  0.81365  0.54198  0.78767  1.0000 0.0411796571
C   C181      1.0  0.45802  0.24569  0.27167  1.0000 0.0411796571
C   C182      1.0  0.24569  0.97402  0.78767  1.0000 0.0411796571
C   C183      1.0  0.97402  0.18635  0.72833  1.0000 0.0411796571
C   C184      1.0  0.18635  0.45802  0.21233  1.0000 0.0411796571
C   C185      1.0  0.56447  0.75556  0.70789  1.0000 -0.1198748226
C   C186      1.0  0.75556  0.04767  0.19109  1.0000 -0.1198748226
C   C187      1.0  0.04767  0.85658  0.29211  1.0000 -0.1198748226
C   C188      1.0  0.85658  0.56447  0.80891  1.0000 -0.1198748226
C   C189      1.0  0.43553  0.24444  0.29211  1.0000 -0.1198748226
C   C190      1.0  0.24444  0.95233  0.80891  1.0000 -0.1198748226
C   C191      1.0  0.95233  0.14342  0.70789  1.0000 -0.1198748226
C   C192      1.0  0.14342  0.43553  0.19109  1.0000 -0.1198748226
C   C193      1.0  0.51911  0.81031  0.55240  1.0000 0.0587862944
C   C194      1.0  0.81031  0.25791  0.29120  1.0000 0.0587862944
C   C195      1.0  0.25791  0.96671  0.44760  1.0000 0.0587862944
C   C196      1.0  0.96671  0.51911  0.70880  1.0000 0.0587862944
C   C197      1.0  0.48089  0.18969  0.44760  1.0000 0.0587862944
C   C198      1.0  0.18969  0.74209  0.70880  1.0000 0.0587862944
C   C199      1.0  0.74209  0.03329  0.55240  1.0000 0.0587862944
C   C200      1.0  0.03329  0.48089  0.29120  1.0000 0.0587862944
C   C201      1.0  0.50381  0.78271  0.55690  1.0000 -0.1082592059
C   C202      1.0  0.78271  0.22581  0.27890  1.0000 -0.1082592059
C   C203      1.0  0.22581  0.94691  0.44310  1.0000 -0.1082592059
C   C204      1.0  0.94691  0.50381  0.72110  1.0000 -0.1082592059
C   C205      1.0  0.49619  0.21729  0.44310  1.0000 -0.1082592059
C   C206      1.0  0.21729  0.77419  0.72110  1.0000 -0.1082592059
C   C207      1.0  0.77419  0.05309  0.55690  1.0000 -0.1082592059
C   C208      1.0  0.05309  0.49619  0.27890  1.0000 -0.1082592059
C   C209      1.0  0.55435  0.85146  0.59931  1.0000 -0.1198748226
C   C210      1.0  0.85146  0.25215  0.29711  1.0000 -0.1198748226
C   C211      1.0  0.25215  0.95504  0.40069  1.0000 -0.1198748226
C   C212      1.0  0.95504  0.55435  0.70289  1.0000 -0.1198748226
C   C213      1.0  0.44565  0.14854  0.40069  1.0000 -0.1198748226
C   C214      1.0  0.14854  0.74785  0.70289  1.0000 -0.1198748226
C   C215      1.0  0.74785  0.04496  0.59931  1.0000 -0.1198748226
C   C216      1.0  0.04496  0.44565  0.29711  1.0000 -0.1198748226
C   C217      1.0  0.55781  0.86526  0.64605  1.0000 -0.2192622805
C   C218      1.0  0.86526  0.21921  0.30745  1.0000 -0.2192622805
C   C219      1.0  0.21921  0.91176  0.35395  1.0000 -0.2192622805
C   C220      1.0  0.91176  0.55781  0.69255  1.0000 -0.2192622805
C   C221      1.0  0.44219  0.13474  0.35395  1.0000 -0.2192622805
C   C222      1.0  0.13474  0.78079  0.69255  1.0000 -0.2192622805
C   C223      1.0  0.78079  0.08824  0.64605  1.0000 -0.2192622805
C   C224      1.0  0.08824  0.44219  0.30745  1.0000 -0.2192622805
C   C225      1.0  0.53161  0.71798  0.76919  1.0000 -0.1314542527
C   C226      1.0  0.71798  0.94879  0.18637  1.0000 -0.1314542527
C   C227      1.0  0.94879  0.76242  0.23081  1.0000 -0.1314542527
C   C228      1.0  0.76242  0.53161  0.81363  1.0000 -0.1314542527
C   C229      1.0  0.46839  0.28202  0.23081  1.0000 -0.1314542527
C   C230      1.0  0.28202  0.05121  0.81363  1.0000 -0.1314542527
C   C231      1.0  0.05121  0.23758  0.76919  1.0000 -0.1314542527
C   C232      1.0  0.23758  0.46839  0.18637  1.0000 -0.1314542527
C   C233      1.0  0.54261  0.72156  0.74135  1.0000 0.1070772855
C   C234      1.0  0.72156  0.98021  0.17895  1.0000 0.1070772855
C   C235      1.0  0.98021  0.80126  0.25865  1.0000 0.1070772855
C   C236      1.0  0.80126  0.54261  0.82105  1.0000 0.1070772855
C   C237      1.0  0.45739  0.27844  0.25865  1.0000 0.1070772855
C   C238      1.0  0.27844  0.01979  0.82105  1.0000 0.1027768835
C   C239      1.0  0.01979  0.19874  0.74135  1.0000 0.1027768835
C   C240      1.0  0.19874  0.45739  0.17895  1.0000 0.1027768835
C   C241      1.0  0.49489  0.75534  0.45729  1.0000 -0.1369135911
C   C242      1.0  0.75534  0.29805  0.26045  1.0000 -0.1369135911
C   C243      1.0  0.29805  0.03760  0.54271  1.0000 -0.1369135911
C   C244      1.0  0.03760  0.49489  0.73955  1.0000 -0.1369135911
C   C245      1.0  0.50511  0.24466  0.54271  1.0000 -0.1369135911
C   C246      1.0  0.24466  0.70195  0.73955  1.0000 -0.1369135911
C   C247      1.0  0.70195  0.96240  0.45729  1.0000 -0.1369135911
C   C248      1.0  0.96240  0.50511  0.26045  1.0000 -0.1369135911
C   C249      1.0  0.50876  0.79516  0.50020  1.0000 0.1027768835
C   C250      1.0  0.79516  0.29496  0.28640  1.0000 0.1027768835
C   C251      1.0  0.29496  0.00856  0.49980  1.0000 0.1027768835
C   C252      1.0  0.00856  0.50876  0.71360  1.0000 0.1070772855
C   C253      1.0  0.49124  0.20484  0.49980  1.0000 0.1027768835
C   C254      1.0  0.20484  0.70504  0.71360  1.0000 0.1027768835
C   C255      1.0  0.70504  0.99144  0.50020  1.0000 0.1027768835
C   C256      1.0  0.99144  0.49124  0.28640  1.0000 0.1070772855
C   C257      1.0  0.51205  0.66550  0.84657  1.0000 -0.0021306835
C   C258      1.0  0.66550  0.81893  0.15345  1.0000 -0.0021306835
C   C259      1.0  0.81893  0.66548  0.15343  1.0000 0.0019165161
C   C260      1.0  0.66548  0.51205  0.84655  1.0000 -0.0021306835
C   C261      1.0  0.48795  0.33450  0.15343  1.0000 -0.0021306835
C   C262      1.0  0.33450  0.18107  0.84655  1.0000 0.0019165161
C   C263      1.0  0.18107  0.33452  0.84657  1.0000 0.0019165161
C   C264      1.0  0.33452  0.48795  0.15345  1.0000 -0.0021306835
C   C265      1.0  0.51898  0.68548  0.82478  1.0000 -0.1788303204
C   C266      1.0  0.68548  0.86070  0.16650  1.0000 -0.1788303204
C   C267      1.0  0.86070  0.69420  0.17522  1.0000 -0.1788303204
C   C268      1.0  0.69420  0.51898  0.83350  1.0000 -0.1788303204
C   C269      1.0  0.48102  0.31452  0.17522  1.0000 -0.1788303204
C   C270      1.0  0.31452  0.13930  0.83350  1.0000 -0.1788303204
C   C271      1.0  0.13930  0.30580  0.82478  1.0000 -0.1788303204
C   C272      1.0  0.30580  0.48102  0.16650  1.0000 -0.1788303204
C   C273      1.0  0.53384  0.61930  0.77474  1.0000 -0.151129338
C   C274      1.0  0.61930  0.84456  0.08546  1.0000 -0.151129338
C   C275      1.0  0.84456  0.75910  0.22526  1.0000 -0.151129338
C   C276      1.0  0.75910  0.53384  0.91454  1.0000 -0.151129338
C   C277      1.0  0.46616  0.38070  0.22526  1.0000 -0.151129338
C   C278      1.0  0.38070  0.15544  0.91454  1.0000 -0.151129338
C   C279      1.0  0.15544  0.24090  0.77474  1.0000 -0.151129338
C   C280      1.0  0.24090  0.46616  0.08546  1.0000 -0.151129338
C   C281      1.0  0.52989  0.66142  0.78919  1.0000 0.1491438268
C   C282      1.0  0.66142  0.87223  0.13153  1.0000 0.1491438268
C   C283      1.0  0.87223  0.74070  0.21081  1.0000 0.1491438268
C   C284      1.0  0.74070  0.52989  0.86847  1.0000 0.1491438268
C   C285      1.0  0.47011  0.33858  0.21081  1.0000 0.1491438268
C   C286      1.0  0.33858  0.12777  0.86847  1.0000 0.138165631
C   C287      1.0  0.12777  0.25930  0.78919  1.0000 0.138165631
C   C288      1.0  0.25930  0.47011  0.13153  1.0000 0.1491438268
C   C289      1.0  0.46889  0.67071  0.27678  1.0000 -0.1006734693
C   C290      1.0  0.67071  0.39393  0.20182  1.0000 -0.1006734693
C   C291      1.0  0.39393  0.19211  0.72322  1.0000 -0.1006734693
C   C292      1.0  0.19211  0.46889  0.79818  1.0000 -0.1006734693
C   C293      1.0  0.53111  0.32929  0.72322  1.0000 -0.1006734693
C   C294      1.0  0.32929  0.60607  0.79818  1.0000 -0.1006734693
C   C295      1.0  0.60607  0.80789  0.27678  1.0000 -0.1006734693
C   C296      1.0  0.80789  0.53111  0.20182  1.0000 -0.1006734693
C   C297      1.0  0.47401  0.65596  0.30705  1.0000 -0.0021306835
C   C298      1.0  0.65596  0.34891  0.18195  1.0000 0.0019165161
C   C299      1.0  0.34891  0.16696  0.69295  1.0000 0.0019165161
C   C300      1.0  0.16696  0.47401  0.81805  1.0000 0.0019165161
C   C301      1.0  0.52599  0.34404  0.69295  1.0000 0.0019165161
C   C302      1.0  0.34404  0.65109  0.81805  1.0000 0.0019165161
C   C303      1.0  0.65109  0.83304  0.30705  1.0000 0.0019165161
C   C304      1.0  0.83304  0.52599  0.18195  1.0000 0.0019165161
C   C305      1.0  0.46850  0.71509  0.29379  1.0000 -0.0021306835
C   C306      1.0  0.71509  0.42130  0.24659  1.0000 -0.0021306835
C   C307      1.0  0.42130  0.17471  0.70621  1.0000 -0.0021306835
C   C308      1.0  0.17471  0.46850  0.75341  1.0000 -0.0021306835
C   C309      1.0  0.53150  0.28491  0.70621  1.0000 -0.0021306835
C   C310      1.0  0.28491  0.57870  0.75341  1.0000 -0.0021306835
C   C311      1.0  0.57870  0.82529  0.29379  1.0000 -0.0021306835
C   C312      1.0  0.82529  0.53150  0.24659  1.0000 -0.0021306835
C   C313      1.0  0.48149  0.68527  0.35522  1.0000 -0.1643973282
C   C314      1.0  0.68527  0.33005  0.20378  1.0000 -0.1643973282
C   C315      1.0  0.33005  0.12627  0.64478  1.0000 -0.1667778274
C   C316      1.0  0.12627  0.48149  0.79622  1.0000 -0.1643973282
C   C317      1.0  0.51851  0.31473  0.64478  1.0000 -0.1643973282
C   C318      1.0  0.31473  0.66995  0.79622  1.0000 -0.1643973282
C   C319      1.0  0.66995  0.87373  0.35522  1.0000 -0.1643973282
C   C320      1.0  0.87373  0.51851  0.20378  1.0000 -0.1643973282
C   C321      1.0  0.47568  0.74423  0.34139  1.0000 -0.1369135911
C   C322      1.0  0.74423  0.40284  0.26855  1.0000 -0.1369135911
C   C323      1.0  0.40284  0.13429  0.65861  1.0000 -0.1369135911
C   C324      1.0  0.13429  0.47568  0.73145  1.0000 -0.1369135911
C   C325      1.0  0.52432  0.25577  0.65861  1.0000 -0.1369135911
C   C326      1.0  0.25577  0.59716  0.73145  1.0000 -0.1369135911
C   C327      1.0  0.59716  0.86571  0.34139  1.0000 -0.1369135911
C   C328      1.0  0.86571  0.52432  0.26855  1.0000 -0.1369135911
C   C329      1.0  0.48317  0.72996  0.37257  1.0000 0.1491438268
C   C330      1.0  0.72996  0.35739  0.24679  1.0000 0.1491438268
C   C331      1.0  0.35739  0.11060  0.62743  1.0000 0.1491438268
C   C332      1.0  0.11060  0.48317  0.75321  1.0000 0.1491438268
C   C333      1.0  0.51683  0.27004  0.62743  1.0000 0.1491438268
C   C334      1.0  0.27004  0.64261  0.75321  1.0000 0.1491438268
C   C335      1.0  0.64261  0.88940  0.37257  1.0000 0.1491438268
C   C336      1.0  0.88940  0.51683  0.24679  1.0000 0.1491438268
C   C337      1.0  0.53093  0.55306  0.78003  1.0000 0.5895709665
C   C338      1.0  0.55306  0.77303  0.02213  1.0000 0.5895709665
C   C339      1.0  0.77303  0.75090  0.21997  1.0000 0.5895709665
C   C340      1.0  0.75090  0.53093  0.97787  1.0000 0.5895709665
C   C341      1.0  0.46907  0.44694  0.21997  1.0000 0.5895709665
C   C342      1.0  0.44694  0.22697  0.97787  1.0000 0.5895709665
C   C343      1.0  0.22697  0.24910  0.78003  1.0000 0.5895709665
C   C344      1.0  0.24910  0.46907  0.02213  1.0000 0.5895709665
C   C345      1.0  0.49757  0.68858  0.88275  1.0000 0.5895709665
C   C346      1.0  0.68858  0.80583  0.19101  1.0000 0.5895709665
C   C347      1.0  0.80583  0.61482  0.11725  1.0000 0.5895709665
C   C348      1.0  0.61482  0.49757  0.80899  1.0000 0.5895709665
C   C349      1.0  0.50243  0.31142  0.11725  1.0000 0.5895709665
C   C350      1.0  0.31142  0.19417  0.80899  1.0000 0.5895709665
C   C351      1.0  0.19417  0.38518  0.88275  1.0000 0.5895709665
C   C352      1.0  0.38518  0.50243  0.19101  1.0000 0.5895709665
C   C353      1.0  0.51737  0.62354  0.83285  1.0000 -0.1006734693
C   C354      1.0  0.62354  0.79069  0.10617  1.0000 -0.1006734693
C   C355      1.0  0.79069  0.68452  0.16715  1.0000 -0.1006734693
C   C356      1.0  0.68452  0.51737  0.89383  1.0000 -0.1006734693
C   C357      1.0  0.48263  0.37646  0.16715  1.0000 -0.1006734693
C   C358      1.0  0.37646  0.20931  0.89383  1.0000 -0.1006734693
C   C359      1.0  0.20931  0.31548  0.83285  1.0000 -0.1006734693
C   C360      1.0  0.31548  0.48263  0.10617  1.0000 -0.1006734693
C   C361      1.0  0.52829  0.60020  0.79711  1.0000 0.0019165161
C   C362      1.0  0.60020  0.80309  0.07191  1.0000 0.0019165161
C   C363      1.0  0.80309  0.73118  0.20289  1.0000 0.0019165161
C   C364      1.0  0.73118  0.52829  0.92809  1.0000 0.0019165161
C   C365      1.0  0.47171  0.39980  0.20289  1.0000 0.0019165161
C   C366      1.0  0.39980  0.19691  0.92809  1.0000 0.0019165161
C   C367      1.0  0.19691  0.26882  0.79711  1.0000 0.0019165161
C   C368      1.0  0.26882  0.47171  0.07191  1.0000 0.0019165161
C   C369      1.0  0.47227  0.60741  0.28710  1.0000 0.5895709665
C   C370      1.0  0.60741  0.32031  0.13514  1.0000 0.5895709665
C   C371      1.0  0.32031  0.18517  0.71290  1.0000 0.5895709665
C   C372      1.0  0.18517  0.47227  0.86486  1.0000 0.5895709665
C   C373      1.0  0.52773  0.39259  0.71290  1.0000 0.5895709665
C   C374      1.0  0.39259  0.67969  0.86486  1.0000 0.5895709665
C   C375      1.0  0.67969  0.81483  0.28710  1.0000 0.5895709665
C   C376      1.0  0.81483  0.52773  0.13514  1.0000 0.5895709665
C   C377      1.0  0.45972  0.72996  0.25812  1.0000 0.5895709665
C   C378      1.0  0.72996  0.47184  0.27024  1.0000 0.5895709665
C   C379      1.0  0.47184  0.20160  0.74188  1.0000 0.5895709665
C   C380      1.0  0.20160  0.45972  0.72976  1.0000 0.5895709665
C   C381      1.0  0.54028  0.27004  0.74188  1.0000 0.5895709665
C   C382      1.0  0.27004  0.52816  0.72976  1.0000 0.5895709665
C   C383      1.0  0.52816  0.79840  0.25812  1.0000 0.5895709665
C   C384      1.0  0.79840  0.54028  0.27024  1.0000 0.5895709665
N   N1        1.0  0.57631  0.10143  0.88690  1.0000 0.1605923513
N   N2        1.0  0.10143  0.21453  0.52512  1.0000 0.1605923513
N   N3        1.0  0.21453  0.68941  0.11310  1.0000 0.1605923513
N   N4        1.0  0.68941  0.57631  0.47488  1.0000 0.1605923513
N   N5        1.0  0.42369  0.89857  0.11310  1.0000 0.1605923513
N   N6        1.0  0.89857  0.78547  0.47488  1.0000 0.1605923513
N   N7        1.0  0.78547  0.31059  0.88690  1.0000 0.1605923513
N   N8        1.0  0.31059  0.42369  0.52512  1.0000 0.1605923513
N   N9        1.0  0.59837  0.09313  0.92394  1.0000 -0.1082592059
N   N10       1.0  0.09313  0.16919  0.49476  1.0000 -0.1082592059
N   N11       1.0  0.16919  0.67443  0.07606  1.0000 -0.1082592059
N   N12       1.0  0.67443  0.59837  0.50524  1.0000 -0.1082592059
N   N13       1.0  0.40163  0.90687  0.07606  1.0000 -0.1082592059
N   N14       1.0  0.90687  0.83081  0.50524  1.0000 -0.1082592059
N   N15       1.0  0.83081  0.32557  0.92394  1.0000 -0.1082592059
N   N16       1.0  0.32557  0.40163  0.49476  1.0000 -0.1082592059
N   N17       1.0  0.59710  0.05120  0.89808  1.0000 -0.2093676133
N   N18       1.0  0.05120  0.15312  0.45410  1.0000 -0.2093676133
N   N19       1.0  0.15312  0.69902  0.10192  1.0000 -0.2093676133
N   N20       1.0  0.69902  0.59710  0.54590  1.0000 -0.2093676133
N   N21       1.0  0.40290  0.94880  0.10192  1.0000 -0.2093676133
N   N22       1.0  0.94880  0.84688  0.54590  1.0000 -0.2093676133
N   N23       1.0  0.84688  0.30098  0.89808  1.0000 -0.2093676133
N   N24       1.0  0.30098  0.40290  0.45410  1.0000 -0.2093676133
N   N25       1.0  0.54470  0.85011  0.69651  1.0000 -0.1369135911
N   N26       1.0  0.85011  0.15360  0.30541  1.0000 -0.1369135911
N   N27       1.0  0.15360  0.84819  0.30349  1.0000 -0.1369135911
N   N28       1.0  0.84819  0.54470  0.69459  1.0000 -0.1369135911
N   N29       1.0  0.45530  0.14989  0.30349  1.0000 -0.1369135911
N   N30       1.0  0.14989  0.84640  0.69459  1.0000 -0.1369135911
N   N31       1.0  0.84640  0.15181  0.69651  1.0000 -0.1369135911
N   N32       1.0  0.15181  0.45530  0.30541  1.0000 -0.1369135911
N   N33       1.0  0.53691  0.68136  0.76697  1.0000 0.1491438268
N   N34       1.0  0.68136  0.91439  0.14445  1.0000 0.1491438268
N   N35       1.0  0.91439  0.76994  0.23303  1.0000 0.1491438268
N   N36       1.0  0.76994  0.53691  0.85555  1.0000 0.1491438268
N   N37       1.0  0.46309  0.31864  0.23303  1.0000 0.1491438268
N   N38       1.0  0.31864  0.08561  0.85555  1.0000 0.1491438268
N   N39       1.0  0.08561  0.23006  0.76697  1.0000 0.1491438268
N   N40       1.0  0.23006  0.46309  0.14445  1.0000 0.1491438268
N   N41       1.0  0.49370  0.76128  0.42382  1.0000 0.138165631
N   N42       1.0  0.76128  0.33746  0.26758  1.0000 0.138165631
N   N43       1.0  0.33746  0.06988  0.57618  1.0000 0.138165631
N   N44       1.0  0.06988  0.49370  0.73242  1.0000 0.138165631
N   N45       1.0  0.50630  0.23872  0.57618  1.0000 0.138165631
N   N46       1.0  0.23872  0.66254  0.73242  1.0000 0.138165631
N   N47       1.0  0.66254  0.93012  0.42382  1.0000 0.138165631
N   N48       1.0  0.93012  0.50630  0.26758  1.0000 0.138165631
N   N49       1.0  0.51456  0.80647  0.44893  1.0000 -0.1198748226
N   N50       1.0  0.80647  0.35754  0.29191  1.0000 -0.1198748226
N   N51       1.0  0.35754  0.06563  0.55107  1.0000 -0.1198748226
N   N52       1.0  0.06563  0.51456  0.70809  1.0000 -0.1198748226
N   N53       1.0  0.48544  0.19353  0.55107  1.0000 -0.1198748226
N   N54       1.0  0.19353  0.64246  0.70809  1.0000 -0.1082592059
N   N55       1.0  0.64246  0.93437  0.44893  1.0000 -0.1198748226
N   N56       1.0  0.93437  0.48544  0.29191  1.0000 -0.1198748226
N   N57       1.0  0.52410  0.82753  0.49703  1.0000 -0.2093676133
N   N58       1.0  0.82753  0.33050  0.30343  1.0000 -0.2093676133
N   N59       1.0  0.33050  0.02707  0.50297  1.0000 -0.2093676133
N   N60       1.0  0.02707  0.52410  0.69657  1.0000 -0.2093676133
N   N61       1.0  0.47590  0.17247  0.50297  1.0000 -0.2093676133
N   N62       1.0  0.17247  0.66950  0.69657  1.0000 -0.2093676133
N   N63       1.0  0.66950  0.97293  0.49703  1.0000 -0.2093676133
N   N64       1.0  0.97293  0.47590  0.30343  1.0000 -0.2093676133
N   N65       1.0  0.55590  0.66395  0.74205  1.0000 -0.0935779605
N   N66       1.0  0.66395  0.92190  0.10805  1.0000 -0.0935779605
N   N67       1.0  0.92190  0.81385  0.25795  1.0000 -0.0935779605
N   N68       1.0  0.81385  0.55590  0.89195  1.0000 -0.0935779605
N   N69       1.0  0.44410  0.33605  0.25795  1.0000 -0.0935779605
N   N70       1.0  0.33605  0.07810  0.89195  1.0000 -0.0935779605
N   N71       1.0  0.07810  0.18615  0.74205  1.0000 -0.0935779605
N   N72       1.0  0.18615  0.44410  0.10805  1.0000 -0.0935779605
N   N73       1.0  0.55889  0.68757  0.72568  1.0000 -0.1992903776
N   N74       1.0  0.68757  0.96189  0.12868  1.0000 -0.1992903776
N   N75       1.0  0.96189  0.83321  0.27432  1.0000 -0.1992903776
N   N76       1.0  0.83321  0.55889  0.87132  1.0000 -0.1897172143
N   N77       1.0  0.44111  0.31243  0.27432  1.0000 -0.1897172143
N   N78       1.0  0.31243  0.03811  0.87132  1.0000 -0.1897172143
N   N79       1.0  0.03811  0.16679  0.72568  1.0000 -0.1897172143
N   N80       1.0  0.16679  0.44111  0.12868  1.0000 -0.1897172143
O   O1        1.0  0.51885  0.36149  0.04086  1.0000 -0.8140973812
O   O2        1.0  0.36149  0.32063  0.84264  1.0000 -0.8140973812
O   O3        1.0  0.32063  0.47799  0.95914  1.0000 -0.8140973812
O   O4        1.0  0.47799  0.51885  0.15736  1.0000 -0.8140973812
O   O5        1.0  0.48115  0.63851  0.95914  1.0000 -0.8140973812
O   O6        1.0  0.63851  0.67937  0.15736  1.0000 -0.8140973812
O   O7        1.0  0.67937  0.52201  0.04086  1.0000 -0.8140973812
O   O8        1.0  0.52201  0.48115  0.84264  1.0000 -0.8140973812
O   O9        1.0  0.53549  0.18872  0.07627  1.0000 -0.8232815086
O   O10       1.0  0.18872  0.11245  0.65323  1.0000 -0.8232815086
O   O11       1.0  0.11245  0.45922  0.92373  1.0000 -0.8260534397
O   O12       1.0  0.45922  0.53549  0.34677  1.0000 -0.8232815086
O   O13       1.0  0.46451  0.81128  0.92373  1.0000 -0.8232815086
O   O14       1.0  0.81128  0.88755  0.34677  1.0000 -0.8232815086
O   O15       1.0  0.88755  0.54078  0.07627  1.0000 -0.8232815086
O   O16       1.0  0.54078  0.46451  0.65323  1.0000 -0.8232815086
O   O17       1.0  0.56898  0.19822  0.82178  1.0000 -0.5097799323
O   O18       1.0  0.19822  0.37644  0.62924  1.0000 -0.5097799323
O   O19       1.0  0.37644  0.74720  0.17822  1.0000 -0.5097799323
O   O20       1.0  0.74720  0.56898  0.37076  1.0000 -0.5097799323
O   O21       1.0  0.43102  0.80178  0.17822  1.0000 -0.5097799323
O   O22       1.0  0.80178  0.62356  0.37076  1.0000 -0.5097799323
O   O23       1.0  0.62356  0.25280  0.82178  1.0000 -0.5097799323
O   O24       1.0  0.25280  0.43102  0.62924  1.0000 -0.5097799323
O   O25       1.0  0.54493  0.27361  0.00522  1.0000 -0.5097799323
O   O26       1.0  0.27361  0.26839  0.72868  1.0000 -0.5097799323
O   O27       1.0  0.26839  0.53971  0.99478  1.0000 -0.5097799323
O   O28       1.0  0.53971  0.54493  0.27132  1.0000 -0.5097799323
O   O29       1.0  0.45507  0.72639  0.99478  1.0000 -0.5097799323
O   O30       1.0  0.72639  0.73161  0.27132  1.0000 -0.5097799323
O   O31       1.0  0.73161  0.46029  0.00522  1.0000 -0.5097799323
O   O32       1.0  0.46029  0.45507  0.72868  1.0000 -0.5097799323
O   O33       1.0  0.55760  0.25944  0.87090  1.0000 -0.5097799323
O   O34       1.0  0.25944  0.38854  0.70184  1.0000 -0.5097799323
O   O35       1.0  0.38854  0.68670  0.12910  1.0000 -0.5097799323
O   O36       1.0  0.68670  0.55760  0.29816  1.0000 -0.5097799323
O   O37       1.0  0.44240  0.74056  0.12910  1.0000 -0.5097799323
O   O38       1.0  0.74056  0.61146  0.29816  1.0000 -0.5097799323
O   O39       1.0  0.61146  0.31330  0.87090  1.0000 -0.5097799323
O   O40       1.0  0.31330  0.44240  0.70184  1.0000 -0.5097799323
O   O41       1.0  0.54776  0.21724  0.01536  1.0000 -0.5005590769
O   O42       1.0  0.21724  0.20188  0.66948  1.0000 -0.5005590769
O   O43       1.0  0.20188  0.53240  0.98464  1.0000 -0.4889547428
O   O44       1.0  0.53240  0.54776  0.33052  1.0000 -0.5005590769
O   O45       1.0  0.45224  0.78276  0.98464  1.0000 -0.5005590769
O   O46       1.0  0.78276  0.79812  0.33052  1.0000 -0.4889547428
O   O47       1.0  0.79812  0.46760  0.01536  1.0000 -0.5005590769
O   O48       1.0  0.46760  0.45224  0.66948  1.0000 -0.5005590769
O   O49       1.0  0.49804  0.67219  0.90575  1.0000 -0.4889547428
O   O50       1.0  0.67219  0.76644  0.17415  1.0000 -0.4889547428
O   O51       1.0  0.76644  0.59229  0.09425  1.0000 -0.4889547428
O   O52       1.0  0.59229  0.49804  0.82585  1.0000 -0.4889547428
O   O53       1.0  0.50196  0.32781  0.09425  1.0000 -0.4889547428
O   O54       1.0  0.32781  0.23356  0.82585  1.0000 -0.4889547428
O   O55       1.0  0.23356  0.40771  0.90575  1.0000 -0.4889547428
O   O56       1.0  0.40771  0.50196  0.17415  1.0000 -0.4889547428
O   O57       1.0  0.52671  0.53927  0.80378  1.0000 -0.5160512095
O   O58       1.0  0.53927  0.73549  0.01256  1.0000 -0.5160512095
O   O59       1.0  0.73549  0.72293  0.19622  1.0000 -0.5160512095
O   O60       1.0  0.72293  0.52671  0.98744  1.0000 -0.5160512095
O   O61       1.0  0.47329  0.46073  0.19622  1.0000 -0.5160512095
O   O62       1.0  0.46073  0.26451  0.98744  1.0000 -0.5160512095
O   O63       1.0  0.26451  0.27707  0.80378  1.0000 -0.5160512095
O   O64       1.0  0.27707  0.47329  0.01256  1.0000 -0.5160512095
O   O65       1.0  0.48835  0.72393  0.88894  1.0000 -0.5005590769
O   O66       1.0  0.72393  0.83499  0.23558  1.0000 -0.5005590769
O   O67       1.0  0.83499  0.59941  0.11106  1.0000 -0.5005590769
O   O68       1.0  0.59941  0.48835  0.76442  1.0000 -0.5005590769
O   O69       1.0  0.51165  0.27607  0.11106  1.0000 -0.5005590769
O   O70       1.0  0.27607  0.16501  0.76442  1.0000 -0.5005590769
O   O71       1.0  0.16501  0.40059  0.88894  1.0000 -0.5005590769
O   O72       1.0  0.40059  0.51165  0.23558  1.0000 -0.5005590769
O   O73       1.0  0.53719  0.53345  0.74506  1.0000 -0.5005590769
O   O74       1.0  0.53345  0.78839  0.99626  1.0000 -0.5005590769
O   O75       1.0  0.78839  0.79213  0.25494  1.0000 -0.5005590769
O   O76       1.0  0.79213  0.53719  0.00374  1.0000 -0.5097799323
O   O77       1.0  0.46281  0.46655  0.25494  1.0000 -0.5005590769
O   O78       1.0  0.46655  0.21161  0.00374  1.0000 -0.5097799323
O   O79       1.0  0.21161  0.20787  0.74506  1.0000 -0.5005590769
O   O80       1.0  0.20787  0.46281  0.99626  1.0000 -0.5005590769
O   O81       1.0  0.47413  0.58526  0.24833  1.0000 -0.5005590769
O   O82       1.0  0.58526  0.33693  0.11113  1.0000 -0.5005590769
O   O83       1.0  0.33693  0.22580  0.75167  1.0000 -0.5005590769
O   O84       1.0  0.22580  0.47413  0.88887  1.0000 -0.5005590769
O   O85       1.0  0.52587  0.41474  0.75167  1.0000 -0.5005590769
O   O86       1.0  0.41474  0.66307  0.88887  1.0000 -0.5005590769
O   O87       1.0  0.66307  0.77420  0.24833  1.0000 -0.5005590769
O   O88       1.0  0.77420  0.52587  0.11113  1.0000 -0.5005590769
O   O89       1.0  0.47107  0.59338  0.31201  1.0000 -0.5005590769
O   O90       1.0  0.59338  0.28137  0.12231  1.0000 -0.5005590769
O   O91       1.0  0.28137  0.15906  0.68799  1.0000 -0.5005590769
O   O92       1.0  0.15906  0.47107  0.87769  1.0000 -0.5005590769
O   O93       1.0  0.52893  0.40662  0.68799  1.0000 -0.5005590769
O   O94       1.0  0.40662  0.71863  0.87769  1.0000 -0.5005590769
O   O95       1.0  0.71863  0.84094  0.31201  1.0000 -0.5005590769
O   O96       1.0  0.84094  0.52893  0.12231  1.0000 -0.5005590769
O   O97       1.0  0.46325  0.70454  0.22181  1.0000 -0.5097799323
O   O98       1.0  0.70454  0.48273  0.24129  1.0000 -0.5097799323
O   O99       1.0  0.48273  0.24144  0.77819  1.0000 -0.5097799323
O   O100      1.0  0.24144  0.46325  0.75871  1.0000 -0.5097799323
O   O101      1.0  0.53675  0.29546  0.77819  1.0000 -0.5097799323
O   O102      1.0  0.29546  0.51727  0.75871  1.0000 -0.5097799323
O   O103      1.0  0.51727  0.75856  0.22181  1.0000 -0.5097799323
O   O104      1.0  0.75856  0.53675  0.24129  1.0000 -0.5097799323
O   O105      1.0  0.45177  0.76636  0.27125  1.0000 -0.5005590769
O   O106      1.0  0.76636  0.49511  0.31459  1.0000 -0.5005590769
O   O107      1.0  0.49511  0.18052  0.72875  1.0000 -0.5097799323
O   O108      1.0  0.18052  0.45177  0.68541  1.0000 -0.5097799323
O   O109      1.0  0.54823  0.23364  0.72875  1.0000 -0.5097799323
O   O110      1.0  0.23364  0.50489  0.68541  1.0000 -0.5097799323
O   O111      1.0  0.50489  0.81948  0.27125  1.0000 -0.5097799323
O   O112      1.0  0.81948  0.54823  0.31459  1.0000 -0.5005590769
