# DDEC6 charges by PACMAN v1.1 (https://github.com/mtap-research/PACMAN-charge/)
data_0000[Eu][sqc]3[ASR]1
_chemical_formula_sum              "Eu2 H6 C12 O12"
_cell_length_a       8.714
_cell_length_b       10.275
_cell_length_c       9.325
_cell_angle_alpha    85.16
_cell_angle_beta     63.81
_cell_angle_gamma    72.37

_symmetry_space_group_name_H-M    "P 1"
_symmetry_Int_Tables_number       1

loop_
  _symmetry_equiv_pos_as_xyz
  'x, y, z'

loop_
  _atom_site_type_symbol
  _atom_site_label
  _atom_site_symmetry_multiplicity
  _atom_site_fract_x
  _atom_site_fract_y
  _atom_site_fract_z
  _atom_site_occupancy
  _atom_site_charge
Eu  Eu1       1.0  0.75630  0.98090  0.00000  1.0000 2.0685719713
Eu  Eu2       1.0  0.24370  0.01910  0.00000  1.0000 2.0685719713
H   H1        1.0  0.15728  0.90146  0.41775  1.0000 0.1193702682
H   H2        1.0  0.40865  0.91407  0.57256  1.0000 0.1145166247
H   H3        1.0  0.87863  0.47266  0.93059  1.0000 0.1193702682
H   H4        1.0  0.84272  0.09854  0.58225  1.0000 0.1193702682
H   H5        1.0  0.59135  0.08593  0.42744  1.0000 0.1145166247
H   H6        1.0  0.12449  0.52379  0.07011  1.0000 0.1193702682
C   C1        1.0  0.43870  0.92020  0.27210  1.0000 0.6612729891
C   C2        1.0  0.28160  0.91180  0.42250  1.0000 -0.1580440835
C   C3        1.0  0.28120  0.91600  0.56450  1.0000 -0.1446934477
C   C4        1.0  0.11810  0.92330  0.71790  1.0000 0.6612729891
C   C5        1.0  0.87580  0.68830  0.98410  1.0000 0.6230834289
C   C6        1.0  0.93850  0.53390  0.97700  1.0000 -0.1178150163
C   C7        1.0  0.56130  0.07980  0.72790  1.0000 0.6612729891
C   C8        1.0  0.71840  0.08820  0.57750  1.0000 -0.1580440835
C   C9        1.0  0.71880  0.08400  0.43550  1.0000 -0.1446934477
C   C10       1.0  0.88190  0.07670  0.28210  1.0000 0.6612729891
C   C11       1.0  0.12420  0.31170  0.01590  1.0000 0.6230834289
C   C12       1.0  0.06150  0.46610  0.02300  1.0000 -0.1178150163
O   O1        1.0  0.41700  0.95400  0.14730  1.0000 -0.7401327626
O   O2        1.0  0.59000  0.90000  0.27000  1.0000 -0.6166320578
O   O3        1.0  0.11780  0.95760  0.84530  1.0000 -0.7401327626
O   O4        1.0  0.98320  0.90160  0.71990  1.0000 -0.6117360131
O   O5        1.0  0.94770  0.75600  0.02700  1.0000 -0.6117360131
O   O6        1.0  0.75010  0.74670  0.94440  1.0000 -0.6265363828
O   O7        1.0  0.58300  0.04600  0.85270  1.0000 -0.7401327626
O   O8        1.0  0.41000  0.10000  0.73000  1.0000 -0.6166320578
O   O9        1.0  0.88220  0.04240  0.15470  1.0000 -0.7401327626
O   O10       1.0  0.01680  0.09840  0.28010  1.0000 -0.6117360131
O   O11       1.0  0.05230  0.24400  0.97300  1.0000 -0.6117360131
O   O12       1.0  0.24990  0.25330  0.05560  1.0000 -0.6265363828
