# DDEC6 charges by PACMAN v1.1 (https://github.com/mtap-research/PACMAN-charge/)
data_0000[Cu][pcu]3[ASR]1
_chemical_formula_sum              "Cu2 H24 C24 N36"
_cell_length_a       12.4435
_cell_length_b       12.4435
_cell_length_c       13.002
_cell_angle_alpha    69.8685
_cell_angle_beta     110.131
_cell_angle_gamma    117.126

_symmetry_space_group_name_H-M    "P 1"
_symmetry_Int_Tables_number       1

loop_
  _symmetry_equiv_pos_as_xyz
  'x, y, z'

loop_
  _atom_site_type_symbol
  _atom_site_label
  _atom_site_symmetry_multiplicity
  _atom_site_fract_x
  _atom_site_fract_y
  _atom_site_fract_z
  _atom_site_occupancy
  _atom_site_charge
Cu  Cu1       1.0  0.50000  0.00000  0.00000  1.0000 0.3243394372
Cu  Cu2       1.0  1.00000  0.50000  0.50000  1.0000 0.3123783049
H   H1        1.0  0.73610  0.13650  0.88510  1.0000 0.1306242716
H   H2        1.0  0.13650  0.73610  0.61490  1.0000 0.1306242716
H   H3        1.0  0.26390  0.86350  0.11490  1.0000 0.1306242716
H   H4        1.0  0.86350  0.26390  0.38510  1.0000 0.1306242716
H   H5        1.0  0.70830  0.45050  0.85360  1.0000 0.1306242716
H   H6        1.0  0.45050  0.70830  0.64640  1.0000 0.1306242716
H   H7        1.0  0.29170  0.54950  0.14640  1.0000 0.1306242716
H   H8        1.0  0.54950  0.29170  0.35360  1.0000 0.1306242716
H   H9        1.0  0.36930  0.18210  0.76680  1.0000 0.1306242716
H   H10       1.0  0.18210  0.36930  0.73320  1.0000 0.1306242716
H   H11       1.0  0.63070  0.81790  0.23320  1.0000 0.1306242716
H   H12       1.0  0.81790  0.63070  0.26680  1.0000 0.1306242716
H   H13       1.0  0.08380  0.05460  0.90180  1.0000 0.1306242716
H   H14       1.0  0.05460  0.08380  0.59820  1.0000 0.1306242716
H   H15       1.0  0.91620  0.94540  0.09820  1.0000 0.1306242716
H   H16       1.0  0.94540  0.91620  0.40180  1.0000 0.1306242716
H   H17       1.0  0.01530  0.42230  0.91030  1.0000 0.1233477545
H   H18       1.0  0.42230  0.01530  0.58970  1.0000 0.1233477545
H   H19       1.0  0.98470  0.57770  0.08970  1.0000 0.1233477545
H   H20       1.0  0.57770  0.98470  0.41030  1.0000 0.1233477545
H   H21       1.0  0.76490  0.38570  0.62540  1.0000 0.1306242716
H   H22       1.0  0.38570  0.76490  0.87460  1.0000 0.1306242716
H   H23       1.0  0.23510  0.61430  0.37460  1.0000 0.1306242716
H   H24       1.0  0.61430  0.23510  0.12540  1.0000 0.1306242716
C   C1        1.0  0.71090  0.19390  0.89030  1.0000 0.0416033788
C   C2        1.0  0.19390  0.71090  0.60970  1.0000 0.0416033788
C   C3        1.0  0.28910  0.80610  0.10970  1.0000 0.0416033788
C   C4        1.0  0.80610  0.28910  0.39030  1.0000 0.0416033788
C   C5        1.0  0.69510  0.36690  0.87350  1.0000 0.0121647537
C   C6        1.0  0.36690  0.69510  0.62650  1.0000 0.0121647537
C   C7        1.0  0.30490  0.63310  0.12650  1.0000 0.0121647537
C   C8        1.0  0.63310  0.30490  0.37350  1.0000 0.0121647537
C   C9        1.0  0.31790  0.14190  0.81740  1.0000 0.0239187087
C   C10       1.0  0.14190  0.31790  0.68260  1.0000 0.0239187087
C   C11       1.0  0.68210  0.85810  0.18260  1.0000 0.0239187087
C   C12       1.0  0.85810  0.68210  0.31740  1.0000 0.0239187087
C   C13       1.0  0.16060  0.07160  0.89120  1.0000 0.0121647537
C   C14       1.0  0.07160  0.16060  0.60880  1.0000 0.0121647537
C   C15       1.0  0.83940  0.92840  0.10880  1.0000 0.0121647537
C   C16       1.0  0.92840  0.83940  0.39120  1.0000 0.0121647537
C   C17       1.0  0.97850  0.42610  0.83430  1.0000 -0.0136541107
C   C18       1.0  0.42610  0.97850  0.66570  1.0000 -0.0136541107
C   C19       1.0  0.02150  0.57390  0.16570  1.0000 -0.0136541107
C   C20       1.0  0.57390  0.02150  0.33430  1.0000 -0.0136541107
C   C21       1.0  0.83990  0.40570  0.67790  1.0000 0.0416033788
C   C22       1.0  0.40570  0.83990  0.82210  1.0000 0.0416033788
C   C23       1.0  0.16010  0.59430  0.32210  1.0000 0.0416033788
C   C24       1.0  0.59430  0.16010  0.17790  1.0000 0.0416033788
N   N1        1.0  0.75900  0.31820  0.85010  1.0000 0.0518008236
N   N2        1.0  0.31820  0.75900  0.64990  1.0000 0.0518008236
N   N3        1.0  0.24100  0.68180  0.14990  1.0000 0.0518008236
N   N4        1.0  0.68180  0.24100  0.35010  1.0000 0.0518008236
N   N5        1.0  0.62270  0.16930  0.93770  1.0000 -0.1809955734
N   N6        1.0  0.16930  0.62270  0.56230  1.0000 -0.1809955734
N   N7        1.0  0.37730  0.83070  0.06230  1.0000 -0.1809955734
N   N8        1.0  0.83070  0.37730  0.43770  1.0000 -0.1809955734
N   N9        1.0  0.61250  0.27990  0.92770  1.0000 -0.2198924582
N   N10       1.0  0.27990  0.61250  0.57230  1.0000 -0.2198924582
N   N11       1.0  0.38750  0.72010  0.07230  1.0000 -0.2198924582
N   N12       1.0  0.72010  0.38750  0.42770  1.0000 -0.2198924582
N   N13       1.0  0.34360  0.07520  0.91810  1.0000 -0.185352468
N   N14       1.0  0.07520  0.34360  0.58190  1.0000 -0.185352468
N   N15       1.0  0.65640  0.92480  0.08190  1.0000 -0.185352468
N   N16       1.0  0.92480  0.65640  0.41810  1.0000 -0.185352468
N   N17       1.0  0.24240  0.02980  0.96310  1.0000 -0.2086780901
N   N18       1.0  0.02980  0.24240  0.53690  1.0000 -0.2086780901
N   N19       1.0  0.75760  0.97020  0.03690  1.0000 -0.2086780901
N   N20       1.0  0.97020  0.75760  0.46310  1.0000 -0.2086780901
N   N21       1.0  0.20420  0.14340  0.79840  1.0000 0.0518008236
N   N22       1.0  0.14340  0.20420  0.70160  1.0000 0.0518008236
N   N23       1.0  0.79580  0.85660  0.20160  1.0000 0.0518008236
N   N24       1.0  0.85660  0.79580  0.29840  1.0000 0.0518008236
N   N25       1.0  0.94890  0.46390  0.65560  1.0000 -0.1809955734
N   N26       1.0  0.46390  0.94890  0.84440  1.0000 -0.1809955734
N   N27       1.0  0.05110  0.53610  0.34440  1.0000 -0.1809955734
N   N28       1.0  0.53610  0.05110  0.15560  1.0000 -0.1809955734
N   N29       1.0  0.03750  0.47610  0.75620  1.0000 -0.2086780901
N   N30       1.0  0.47610  0.03750  0.74380  1.0000 -0.2086780901
N   N31       1.0  0.96250  0.52390  0.24380  1.0000 -0.2086780901
N   N32       1.0  0.52390  0.96250  0.25620  1.0000 -0.2086780901
N   N33       1.0  0.85410  0.37890  0.79140  1.0000 0.0275411949
N   N34       1.0  0.37890  0.85410  0.70860  1.0000 0.0275411949
N   N35       1.0  0.14590  0.62110  0.20860  1.0000 0.0275411949
N   N36       1.0  0.62110  0.14590  0.29140  1.0000 0.0275411949
