# DDEC6 charges by PACMAN v1.1 (https://github.com/mtap-research/PACMAN-charge/)
data_0000[Co][bcu]3[ASR]1
_chemical_formula_sum              "Co10 H96 C128 N8 O44"
_cell_length_a       11.842
_cell_length_b       11.759
_cell_length_c       27.432
_cell_angle_alpha    90
_cell_angle_beta     102.48
_cell_angle_gamma    90

_symmetry_space_group_name_H-M    "P 1"
_symmetry_Int_Tables_number       1

loop_
  _symmetry_equiv_pos_as_xyz
  'x, y, z'

loop_
  _atom_site_type_symbol
  _atom_site_label
  _atom_site_symmetry_multiplicity
  _atom_site_fract_x
  _atom_site_fract_y
  _atom_site_fract_z
  _atom_site_occupancy
  _atom_site_charge
Co  Co1       1.0  0.30502  0.63502  0.01834  1.0000 0.8807711148
Co  Co2       1.0  0.69498  0.13502  0.48166  1.0000 0.8807711148
Co  Co3       1.0  0.69498  0.36498  0.98166  1.0000 0.8807711148
Co  Co4       1.0  0.30502  0.86498  0.51834  1.0000 0.8807711148
Co  Co5       1.0  0.16901  0.64869  0.10302  1.0000 0.9918366664
Co  Co6       1.0  0.83099  0.14869  0.39698  1.0000 0.9918366664
Co  Co7       1.0  0.83099  0.35131  0.89698  1.0000 0.9918366664
Co  Co8       1.0  0.16901  0.85131  0.60302  1.0000 0.9918366664
Co  Co9       1.0  0.00000  0.50000  0.00000  1.0000 1.1549395316
Co  Co10      1.0  0.00000  0.00000  0.50000  1.0000 1.1585444205
H   H1        1.0  0.36500  0.50360  0.17990  1.0000 0.128256934
H   H2        1.0  0.63500  0.00360  0.32010  1.0000 0.128256934
H   H3        1.0  0.63500  0.49640  0.82010  1.0000 0.128256934
H   H4        1.0  0.36500  0.99640  0.67990  1.0000 0.128256934
H   H5        1.0  0.57790  0.60090  0.21360  1.0000 0.1198895804
H   H6        1.0  0.42210  0.10090  0.28640  1.0000 0.1198895804
H   H7        1.0  0.42210  0.39910  0.78640  1.0000 0.1198895804
H   H8        1.0  0.57790  0.89910  0.71360  1.0000 0.1198895804
H   H9        1.0  0.66160  0.59930  0.30090  1.0000 0.1377532779
H   H10       1.0  0.33840  0.09930  0.19910  1.0000 0.1377532779
H   H11       1.0  0.33840  0.40070  0.69910  1.0000 0.1377532779
H   H12       1.0  0.66160  0.90070  0.80090  1.0000 0.1377532779
H   H13       1.0  0.53210  0.41150  0.39800  1.0000 0.128256934
H   H14       1.0  0.46790  0.91150  0.10200  1.0000 0.128256934
H   H15       1.0  0.46790  0.58850  0.60200  1.0000 0.128256934
H   H16       1.0  0.53210  0.08850  0.89800  1.0000 0.128256934
H   H17       1.0  0.37830  0.36090  0.33390  1.0000 0.1198895804
H   H18       1.0  0.62170  0.86090  0.16610  1.0000 0.1198895804
H   H19       1.0  0.62170  0.63910  0.66610  1.0000 0.1198895804
H   H20       1.0  0.37830  0.13910  0.83390  1.0000 0.1198895804
H   H21       1.0  0.36620  0.42580  0.25400  1.0000 0.1198895804
H   H22       1.0  0.63380  0.92580  0.24600  1.0000 0.1198895804
H   H23       1.0  0.63380  0.57420  0.74600  1.0000 0.1198895804
H   H24       1.0  0.36620  0.07420  0.75400  1.0000 0.1198895804
H   H25       1.0  0.79230  0.52610  0.45970  1.0000 0.1377532779
H   H26       1.0  0.20770  0.02610  0.04030  1.0000 0.1377532779
H   H27       1.0  0.20770  0.47390  0.54030  1.0000 0.1377532779
H   H28       1.0  0.79230  0.97390  0.95970  1.0000 0.1377532779
H   H29       1.0  0.65840  0.50780  0.45100  1.0000 0.128256934
H   H30       1.0  0.34160  0.00780  0.04900  1.0000 0.128256934
H   H31       1.0  0.34160  0.49220  0.54900  1.0000 0.128256934
H   H32       1.0  0.65840  0.99220  0.95100  1.0000 0.128256934
H   H33       1.0  0.10320  0.22250  0.12580  1.0000 0.1377532779
H   H34       1.0  0.89680  0.72250  0.37420  1.0000 0.1377532779
H   H35       1.0  0.89680  0.77750  0.87420  1.0000 0.1377532779
H   H36       1.0  0.10320  0.27750  0.62580  1.0000 0.1377532779
H   H37       1.0  0.14820  0.38830  0.19660  1.0000 0.1198895804
H   H38       1.0  0.85180  0.88830  0.30340  1.0000 0.1198895804
H   H39       1.0  0.85180  0.61170  0.80340  1.0000 0.1198895804
H   H40       1.0  0.14820  0.11170  0.69660  1.0000 0.1198895804
H   H41       1.0  0.16620  0.35330  0.28110  1.0000 0.1377532779
H   H42       1.0  0.83380  0.85330  0.21890  1.0000 0.1377532779
H   H43       1.0  0.83380  0.64670  0.71890  1.0000 0.1377532779
H   H44       1.0  0.16620  0.14670  0.78110  1.0000 0.1377532779
H   H45       1.0  0.15780  0.04110  0.33830  1.0000 0.128256934
H   H46       1.0  0.84220  0.54110  0.16170  1.0000 0.128256934
H   H47       1.0  0.84220  0.95890  0.66170  1.0000 0.128256934
H   H48       1.0  0.15780  0.45890  0.83830  1.0000 0.128256934
H   H49       1.0  0.11920  0.96750  0.25860  1.0000 0.1121476298
H   H50       1.0  0.88080  0.46750  0.24140  1.0000 0.1121476298
H   H51       1.0  0.88080  0.03250  0.74140  1.0000 0.1121476298
H   H52       1.0  0.11920  0.53250  0.75860  1.0000 0.1121476298
H   H53       1.0  0.10890  0.08330  0.18950  1.0000 0.128256934
H   H54       1.0  0.89110  0.58330  0.31050  1.0000 0.128256934
H   H55       1.0  0.89110  0.91670  0.81050  1.0000 0.128256934
H   H56       1.0  0.10890  0.41670  0.68950  1.0000 0.128256934
H   H57       1.0  0.25430  0.12800  0.40340  1.0000 0.1198895804
H   H58       1.0  0.74570  0.62800  0.09660  1.0000 0.1198895804
H   H59       1.0  0.74570  0.87200  0.59660  1.0000 0.1198895804
H   H60       1.0  0.25430  0.37200  0.90340  1.0000 0.1198895804
H   H61       1.0  0.25000  0.23840  0.43480  1.0000 0.1377532779
H   H62       1.0  0.75000  0.73840  0.06520  1.0000 0.1377532779
H   H63       1.0  0.75000  0.76160  0.56520  1.0000 0.1377532779
H   H64       1.0  0.25000  0.26160  0.93480  1.0000 0.1377532779
H   H65       1.0  0.33350  0.79860  0.18510  1.0000 0.1021388107
H   H66       1.0  0.66650  0.29860  0.31490  1.0000 0.1021388107
H   H67       1.0  0.66650  0.20140  0.81490  1.0000 0.1021388107
H   H68       1.0  0.33350  0.70140  0.68510  1.0000 0.1021388107
H   H69       1.0  0.36870  0.83940  0.26850  1.0000 0.128256934
H   H70       1.0  0.63130  0.33940  0.23150  1.0000 0.128256934
H   H71       1.0  0.63130  0.16060  0.73150  1.0000 0.128256934
H   H72       1.0  0.36870  0.66060  0.76850  1.0000 0.128256934
H   H73       1.0  0.11600  0.62420  0.28110  1.0000 0.1198895804
H   H74       1.0  0.88400  0.12420  0.21890  1.0000 0.1198895804
H   H75       1.0  0.88400  0.37580  0.71890  1.0000 0.1198895804
H   H76       1.0  0.11600  0.87580  0.78110  1.0000 0.1198895804
H   H77       1.0  0.08980  0.58740  0.19790  1.0000 0.1021388107
H   H78       1.0  0.91020  0.08740  0.30210  1.0000 0.1021388107
H   H79       1.0  0.91020  0.41260  0.80210  1.0000 0.1021388107
H   H80       1.0  0.08980  0.91260  0.69790  1.0000 0.1021388107
H   H81       1.0  0.38970  0.88030  0.34500  1.0000 0.1377532779
H   H82       1.0  0.61030  0.38030  0.15500  1.0000 0.1377532779
H   H83       1.0  0.61030  0.11970  0.65500  1.0000 0.1377532779
H   H84       1.0  0.38970  0.61970  0.84500  1.0000 0.1377532779
H   H85       1.0  0.40400  0.92640  0.42630  1.0000 0.1121476298
H   H86       1.0  0.59600  0.42640  0.07370  1.0000 0.1121476298
H   H87       1.0  0.59600  0.07360  0.57370  1.0000 0.1121476298
H   H88       1.0  0.40400  0.57360  0.92630  1.0000 0.1121476298
H   H89       1.0  0.14960  0.73010  0.43520  1.0000 0.1198895804
H   H90       1.0  0.85040  0.23010  0.06480  1.0000 0.1198895804
H   H91       1.0  0.85040  0.26990  0.56480  1.0000 0.1198895804
H   H92       1.0  0.14960  0.76990  0.93520  1.0000 0.1198895804
H   H93       1.0  0.12760  0.67880  0.35400  1.0000 0.128256934
H   H94       1.0  0.87240  0.17880  0.14600  1.0000 0.128256934
H   H95       1.0  0.87240  0.32120  0.64600  1.0000 0.128256934
H   H96       1.0  0.12760  0.82120  0.85400  1.0000 0.128256934
C   C1        1.0  0.43730  0.59400  0.12836  1.0000 0.6126436212
C   C2        1.0  0.56270  0.09400  0.37164  1.0000 0.6126436212
C   C3        1.0  0.56270  0.40600  0.87164  1.0000 0.6126436212
C   C4        1.0  0.43730  0.90600  0.62836  1.0000 0.6126436212
C   C5        1.0  0.42990  0.54580  0.17738  1.0000 -0.2403739549
C   C6        1.0  0.57010  0.04580  0.32262  1.0000 -0.2403739549
C   C7        1.0  0.57010  0.45420  0.82262  1.0000 -0.2403739549
C   C8        1.0  0.42990  0.95420  0.67738  1.0000 -0.2403739549
C   C9        1.0  0.51290  0.56080  0.21775  1.0000 -0.1259784295
C   C10       1.0  0.48710  0.06080  0.28225  1.0000 -0.1259784295
C   C11       1.0  0.48710  0.43920  0.78225  1.0000 -0.1245725336
C   C12       1.0  0.51290  0.93920  0.71775  1.0000 -0.1245725336
C   C13       1.0  0.51280  0.52040  0.26855  1.0000 0.1377532779
C   C14       1.0  0.48720  0.02040  0.23145  1.0000 0.1377532779
C   C15       1.0  0.48720  0.47960  0.73145  1.0000 0.1377532779
C   C16       1.0  0.51280  0.97960  0.76855  1.0000 0.1377532779
C   C17       1.0  0.60490  0.55020  0.30727  1.0000 -0.267272976
C   C18       1.0  0.39510  0.05020  0.19273  1.0000 -0.267272976
C   C19       1.0  0.39510  0.44980  0.69273  1.0000 -0.267272976
C   C20       1.0  0.60490  0.94980  0.80727  1.0000 -0.267272976
C   C21       1.0  0.61350  0.50840  0.35492  1.0000 0.2482894056
C   C22       1.0  0.38650  0.00840  0.14508  1.0000 0.2482894056
C   C23       1.0  0.38650  0.49160  0.64508  1.0000 0.2482894056
C   C24       1.0  0.61350  0.99160  0.85492  1.0000 0.2482894056
C   C25       1.0  0.52790  0.43800  0.36576  1.0000 -0.2260283984
C   C26       1.0  0.47210  0.93800  0.13424  1.0000 -0.2260283984
C   C27       1.0  0.47210  0.56200  0.63424  1.0000 -0.2260283984
C   C28       1.0  0.52790  0.06200  0.86576  1.0000 -0.2260283984
C   C29       1.0  0.43590  0.40840  0.32718  1.0000 -0.0557909615
C   C30       1.0  0.56410  0.90840  0.17282  1.0000 -0.0557909615
C   C31       1.0  0.56410  0.59160  0.67282  1.0000 -0.0557909615
C   C32       1.0  0.43590  0.09160  0.82718  1.0000 -0.0557909615
C   C33       1.0  0.42810  0.44770  0.27927  1.0000 -0.1818605618
C   C34       1.0  0.57190  0.94770  0.22073  1.0000 -0.1818605618
C   C35       1.0  0.57190  0.55230  0.72073  1.0000 -0.1818605618
C   C36       1.0  0.42810  0.05230  0.77927  1.0000 -0.1818605618
C   C37       1.0  0.72630  0.49060  0.43791  1.0000 -0.1818605618
C   C38       1.0  0.27370  0.99060  0.06209  1.0000 -0.1818605618
C   C39       1.0  0.27370  0.50940  0.56209  1.0000 -0.1818605618
C   C40       1.0  0.72630  0.00940  0.93791  1.0000 -0.1818605618
C   C41       1.0  0.74430  0.36330  0.43924  1.0000 0.6126436212
C   C42       1.0  0.25570  0.86330  0.06076  1.0000 0.6126436212
C   C43       1.0  0.25570  0.63670  0.56076  1.0000 0.6126436212
C   C44       1.0  0.74430  0.13670  0.93924  1.0000 0.6126436212
C   C45       1.0  0.10840  0.39410  0.10318  1.0000 0.6292588108
C   C46       1.0  0.89160  0.89410  0.39682  1.0000 0.6292588108
C   C47       1.0  0.89160  0.60590  0.89682  1.0000 0.6292588108
C   C48       1.0  0.10840  0.10590  0.60318  1.0000 0.6292588108
C   C49       1.0  0.11410  0.29610  0.13833  1.0000 -0.220388993
C   C50       1.0  0.88590  0.79610  0.36167  1.0000 -0.220388993
C   C51       1.0  0.88590  0.70390  0.86167  1.0000 -0.220388993
C   C52       1.0  0.11410  0.20390  0.63833  1.0000 -0.220388993
C   C53       1.0  0.13420  0.31300  0.18682  1.0000 -0.1245725336
C   C54       1.0  0.86580  0.81300  0.31318  1.0000 -0.1245725336
C   C55       1.0  0.86580  0.68700  0.81318  1.0000 -0.1245725336
C   C56       1.0  0.13420  0.18700  0.68682  1.0000 -0.1245725336
C   C57       1.0  0.13830  0.23190  0.22819  1.0000 0.128256934
C   C58       1.0  0.86170  0.73190  0.27181  1.0000 0.128256934
C   C59       1.0  0.86170  0.76810  0.77181  1.0000 0.128256934
C   C60       1.0  0.13830  0.26810  0.72819  1.0000 0.128256934
C   C61       1.0  0.15820  0.27510  0.27638  1.0000 -0.267272976
C   C62       1.0  0.84180  0.77510  0.22362  1.0000 -0.267272976
C   C63       1.0  0.84180  0.72490  0.72362  1.0000 -0.267272976
C   C64       1.0  0.15820  0.22490  0.77638  1.0000 -0.267272976
C   C65       1.0  0.16660  0.20500  0.31764  1.0000 0.2586767369
C   C66       1.0  0.83340  0.70500  0.18236  1.0000 0.2586767369
C   C67       1.0  0.83340  0.79500  0.68236  1.0000 0.2586767369
C   C68       1.0  0.16660  0.29500  0.81764  1.0000 0.2586767369
C   C69       1.0  0.15240  0.08910  0.31097  1.0000 -0.220388993
C   C70       1.0  0.84760  0.58910  0.18903  1.0000 -0.220388993
C   C71       1.0  0.84760  0.91090  0.68903  1.0000 -0.220388993
C   C72       1.0  0.15240  0.41090  0.81097  1.0000 -0.220388993
C   C73       1.0  0.13000  0.04550  0.26311  1.0000 -0.075581812
C   C74       1.0  0.87000  0.54550  0.23689  1.0000 -0.075581812
C   C75       1.0  0.87000  0.95450  0.73689  1.0000 -0.075581812
C   C76       1.0  0.13000  0.45450  0.76311  1.0000 -0.075581812
C   C77       1.0  0.12320  0.11460  0.22139  1.0000 -0.1912669087
C   C78       1.0  0.87680  0.61460  0.27861  1.0000 -0.1912669087
C   C79       1.0  0.87680  0.88540  0.77861  1.0000 -0.1912669087
C   C80       1.0  0.12320  0.38540  0.72139  1.0000 -0.1912669087
C   C81       1.0  0.20720  0.19340  0.40733  1.0000 -0.1582714698
C   C82       1.0  0.79280  0.69340  0.09267  1.0000 -0.1582714698
C   C83       1.0  0.79280  0.80660  0.59267  1.0000 -0.1582714698
C   C84       1.0  0.20720  0.30660  0.90733  1.0000 -0.1582714698
C   C85       1.0  0.09470  0.15160  0.42079  1.0000 0.5973822468
C   C86       1.0  0.90530  0.65160  0.07921  1.0000 0.5973822468
C   C87       1.0  0.90530  0.84840  0.57921  1.0000 0.5973822468
C   C88       1.0  0.09470  0.34840  0.92079  1.0000 0.5973822468
C   C89       1.0  0.28860  0.76310  0.20459  1.0000 0.1021388107
C   C90       1.0  0.71140  0.26310  0.29541  1.0000 0.1021388107
C   C91       1.0  0.71140  0.23690  0.79541  1.0000 0.1021388107
C   C92       1.0  0.28860  0.73690  0.70459  1.0000 0.1021388107
C   C93       1.0  0.31000  0.78880  0.25497  1.0000 -0.1912669087
C   C94       1.0  0.69000  0.28880  0.24503  1.0000 -0.1912669087
C   C95       1.0  0.69000  0.21120  0.74503  1.0000 -0.1912669087
C   C96       1.0  0.31000  0.71120  0.75497  1.0000 -0.1912669087
C   C97       1.0  0.24410  0.73940  0.28528  1.0000 0.1121476298
C   C98       1.0  0.75590  0.23940  0.21472  1.0000 0.1121476298
C   C99       1.0  0.75590  0.26060  0.71472  1.0000 0.1121476298
C   C100      1.0  0.24410  0.76060  0.78528  1.0000 0.1121476298
C   C101      1.0  0.16130  0.66180  0.26240  1.0000 -0.201879651
C   C102      1.0  0.83870  0.16180  0.23760  1.0000 -0.201879651
C   C103      1.0  0.83870  0.33820  0.73760  1.0000 -0.201879651
C   C104      1.0  0.16130  0.83820  0.76240  1.0000 -0.201879651
C   C105      1.0  0.14600  0.64000  0.21211  1.0000 0.0923646756
C   C106      1.0  0.85400  0.14000  0.28789  1.0000 0.0923646756
C   C107      1.0  0.85400  0.36000  0.78789  1.0000 0.0923646756
C   C108      1.0  0.14600  0.86000  0.71211  1.0000 0.0923646756
C   C109      1.0  0.25850  0.77030  0.33885  1.0000 0.1021388107
C   C110      1.0  0.74150  0.27030  0.16115  1.0000 0.1021388107
C   C111      1.0  0.74150  0.22970  0.66115  1.0000 0.1021388107
C   C112      1.0  0.25850  0.72970  0.83885  1.0000 0.1021388107
C   C113      1.0  0.33930  0.84690  0.36250  1.0000 -0.1818605618
C   C114      1.0  0.66070  0.34690  0.13750  1.0000 -0.1818605618
C   C115      1.0  0.66070  0.15310  0.63750  1.0000 -0.1818605618
C   C116      1.0  0.33930  0.65310  0.86250  1.0000 -0.1818605618
C   C117      1.0  0.34700  0.87490  0.41174  1.0000 0.076357513
C   C118      1.0  0.65300  0.37490  0.08826  1.0000 0.076357513
C   C119      1.0  0.65300  0.12510  0.58826  1.0000 0.076357513
C   C120      1.0  0.34700  0.62510  0.91174  1.0000 0.076357513
C   C121      1.0  0.19950  0.76120  0.41693  1.0000 0.1021388107
C   C122      1.0  0.80050  0.26120  0.08307  1.0000 0.1021388107
C   C123      1.0  0.80050  0.23880  0.58307  1.0000 0.1021388107
C   C124      1.0  0.19950  0.73880  0.91693  1.0000 0.1021388107
C   C125      1.0  0.18630  0.72920  0.36788  1.0000 -0.1912669087
C   C126      1.0  0.81370  0.22920  0.13212  1.0000 -0.1912669087
C   C127      1.0  0.81370  0.27080  0.63212  1.0000 -0.1912669087
C   C128      1.0  0.18630  0.77080  0.86788  1.0000 -0.1912669087
N   N1        1.0  0.20720  0.69030  0.18249  1.0000 -0.2403739549
N   N2        1.0  0.79280  0.19030  0.31751  1.0000 -0.2403739549
N   N3        1.0  0.79280  0.30970  0.81751  1.0000 -0.2403739549
N   N4        1.0  0.20720  0.80970  0.68249  1.0000 -0.2403739549
N   N5        1.0  0.27900  0.83370  0.43971  1.0000 -0.220388993
N   N6        1.0  0.72100  0.33370  0.06029  1.0000 -0.220388993
N   N7        1.0  0.72100  0.16630  0.56029  1.0000 -0.220388993
N   N8        1.0  0.27900  0.66630  0.93971  1.0000 -0.220388993
O   O1        1.0  0.13300  0.61810  0.02483  1.0000 -0.8027385182
O   O2        1.0  0.86700  0.11810  0.47517  1.0000 -0.8027385182
O   O3        1.0  0.86700  0.38190  0.97517  1.0000 -0.8027385182
O   O4        1.0  0.13300  0.88190  0.52483  1.0000 -0.8027385182
O   O5        1.0  0.34100  0.61010  0.09704  1.0000 -0.5864680118
O   O6        1.0  0.65900  0.11010  0.40296  1.0000 -0.5864680118
O   O7        1.0  0.65900  0.38990  0.90296  1.0000 -0.5864680118
O   O8        1.0  0.34100  0.88990  0.59704  1.0000 -0.5864680118
O   O9        1.0  0.53290  0.61640  0.11908  1.0000 -0.549251269
O   O10       1.0  0.46710  0.11640  0.38092  1.0000 -0.549251269
O   O11       1.0  0.46710  0.38360  0.88092  1.0000 -0.549251269
O   O12       1.0  0.53290  0.88360  0.61908  1.0000 -0.549251269
O   O13       1.0  0.79510  0.32020  0.40790  1.0000 -0.5407758958
O   O14       1.0  0.20490  0.82020  0.09210  1.0000 -0.5407758958
O   O15       1.0  0.20490  0.67980  0.59210  1.0000 -0.5407758958
O   O16       1.0  0.79510  0.17980  0.90790  1.0000 -0.5407758958
O   O17       1.0  0.70750  0.31090  0.47295  1.0000 -0.5618917353
O   O18       1.0  0.29250  0.81090  0.02705  1.0000 -0.5618917353
O   O19       1.0  0.29250  0.68910  0.52705  1.0000 -0.5618917353
O   O20       1.0  0.70750  0.18910  0.97295  1.0000 -0.5618917353
O   O21       1.0  0.13980  0.48740  0.12289  1.0000 -0.549251269
O   O22       1.0  0.86020  0.98740  0.37711  1.0000 -0.549251269
O   O23       1.0  0.86020  0.51260  0.87711  1.0000 -0.549251269
O   O24       1.0  0.13980  0.01260  0.62289  1.0000 -0.549251269
O   O25       1.0  0.07020  0.37740  0.05690  1.0000 -0.5197192959
O   O26       1.0  0.92980  0.87740  0.44310  1.0000 -0.5197192959
O   O27       1.0  0.92980  0.62260  0.94310  1.0000 -0.5197192959
O   O28       1.0  0.07020  0.12260  0.55690  1.0000 -0.5197192959
O   O29       1.0  0.10830  0.08550  0.45733  1.0000 -0.549251269
O   O30       1.0  0.89170  0.58550  0.04267  1.0000 -0.549251269
O   O31       1.0  0.89170  0.91450  0.54267  1.0000 -0.549251269
O   O32       1.0  0.10830  0.41450  0.95733  1.0000 -0.549251269
O   O33       1.0  0.00260  0.19110  0.39602  1.0000 -0.5197192959
O   O34       1.0  0.99740  0.69110  0.10398  1.0000 -0.5197192959
O   O35       1.0  0.99740  0.80890  0.60398  1.0000 -0.5197192959
O   O36       1.0  0.00260  0.30890  0.89602  1.0000 -0.5197192959
O   O37       1.0  0.71190  0.53940  0.38915  1.0000 -0.1651115424
O   O38       1.0  0.28810  0.03940  0.11085  1.0000 -0.1651115424
O   O39       1.0  0.28810  0.46060  0.61085  1.0000 -0.1651115424
O   O40       1.0  0.71190  0.96060  0.88915  1.0000 -0.1651115424
O   O41       1.0  0.18950  0.25990  0.36290  1.0000 -0.1478661604
O   O42       1.0  0.81050  0.75990  0.13710  1.0000 -0.1478661604
O   O43       1.0  0.81050  0.74010  0.63710  1.0000 -0.1478661604
O   O44       1.0  0.18950  0.24010  0.86290  1.0000 -0.1478661604
