# DDEC6 charges by PACMAN v1.1 (https://github.com/mtap-research/PACMAN-charge/)
data_0000[Zn][nan]3[ASR]7
_chemical_formula_sum              "Zn8 H16 C36 O32"
_cell_length_a       10.3108
_cell_length_b       14.5934
_cell_length_c       14.5241
_cell_angle_alpha    90
_cell_angle_beta     107.038
_cell_angle_gamma    90

_symmetry_space_group_name_H-M    "P 1"
_symmetry_Int_Tables_number       1

loop_
  _symmetry_equiv_pos_as_xyz
  'x, y, z'

loop_
  _atom_site_type_symbol
  _atom_site_label
  _atom_site_symmetry_multiplicity
  _atom_site_fract_x
  _atom_site_fract_y
  _atom_site_fract_z
  _atom_site_occupancy
  _atom_site_charge
Zn  Zn1       1.0  0.37285  0.02558  0.03797  1.0000 0.9319081358
Zn  Zn2       1.0  0.95768  0.39464  0.41478  1.0000 0.8915668777
Zn  Zn3       1.0  0.62715  0.52558  0.46203  1.0000 0.9319081358
Zn  Zn4       1.0  0.04232  0.89464  0.08522  1.0000 0.8915668777
Zn  Zn5       1.0  0.62715  0.97442  0.96203  1.0000 0.9319081358
Zn  Zn6       1.0  0.04232  0.60536  0.58522  1.0000 0.8915668777
Zn  Zn7       1.0  0.37285  0.47442  0.53797  1.0000 0.9319081358
Zn  Zn8       1.0  0.95768  0.10536  0.91478  1.0000 0.8915668777
H   H1        1.0  0.20290  0.23480  0.26210  1.0000 0.1200244813
H   H2        1.0  0.58480  0.22220  0.27080  1.0000 0.1200244813
H   H3        1.0  0.91350  0.46090  0.55000  1.0000 0.2456097356
H   H4        1.0  0.85980  0.51700  0.47410  1.0000 0.3000004194
H   H5        1.0  0.79710  0.73480  0.23790  1.0000 0.1200244813
H   H6        1.0  0.41520  0.72220  0.22920  1.0000 0.1200244813
H   H7        1.0  0.08650  0.96090  0.95000  1.0000 0.2456097356
H   H8        1.0  0.14020  0.01700  0.02590  1.0000 0.3000004194
H   H9        1.0  0.79710  0.76520  0.73790  1.0000 0.1200244813
H   H10       1.0  0.41520  0.77780  0.72920  1.0000 0.1200244813
H   H11       1.0  0.08650  0.53910  0.45000  1.0000 0.2456097356
H   H12       1.0  0.14020  0.48300  0.52590  1.0000 0.3000004194
H   H13       1.0  0.20290  0.26520  0.76210  1.0000 0.1200244813
H   H14       1.0  0.58480  0.27780  0.77080  1.0000 0.1200244813
H   H15       1.0  0.91350  0.03910  0.05000  1.0000 0.2456097356
H   H16       1.0  0.85980  0.98300  0.97410  1.0000 0.3000004194
C   C1        1.0  0.35280  0.14370  0.17670  1.0000 0.5520196608
C   C2        1.0  0.38630  0.21940  0.25150  1.0000 -0.0824306836
C   C3        1.0  0.29070  0.25780  0.28460  1.0000 -0.0824306836
C   C4        1.0  0.51650  0.25000  0.29070  1.0000 -0.0824306836
C   C5        1.0  0.31400  0.33050  0.35130  1.0000 -0.1947965124
C   C6        1.0  0.55150  0.31710  0.35530  1.0000 -0.1579498747
C   C7        1.0  0.44910  0.36140  0.38370  1.0000 0.3062733165
C   C8        1.0  0.19770  0.36690  0.38220  1.0000 0.5904183811
C   C9        1.0  0.69810  0.34680  0.38570  1.0000 0.5904183811
C   C10       1.0  0.64720  0.64370  0.32330  1.0000 0.5520196608
C   C11       1.0  0.61370  0.71940  0.24850  1.0000 -0.0824306836
C   C12       1.0  0.70930  0.75780  0.21540  1.0000 -0.0824306836
C   C13       1.0  0.48350  0.75000  0.20930  1.0000 -0.0824306836
C   C14       1.0  0.68600  0.83050  0.14870  1.0000 -0.1957280883
C   C15       1.0  0.44850  0.81710  0.14470  1.0000 -0.1579498747
C   C16       1.0  0.55090  0.86140  0.11630  1.0000 0.3062733165
C   C17       1.0  0.80230  0.86690  0.11780  1.0000 0.5904183811
C   C18       1.0  0.30190  0.84680  0.11430  1.0000 0.5904183811
C   C19       1.0  0.64720  0.85630  0.82330  1.0000 0.5520196608
C   C20       1.0  0.61370  0.78060  0.74850  1.0000 -0.0824306836
C   C21       1.0  0.70930  0.74220  0.71540  1.0000 -0.0824306836
C   C22       1.0  0.48350  0.75000  0.70930  1.0000 -0.0824306836
C   C23       1.0  0.68600  0.66950  0.64870  1.0000 -0.1957280883
C   C24       1.0  0.44850  0.68290  0.64470  1.0000 -0.1579498747
C   C25       1.0  0.55090  0.63860  0.61630  1.0000 0.3062733165
C   C26       1.0  0.80230  0.63310  0.61780  1.0000 0.5904183811
C   C27       1.0  0.30190  0.65320  0.61430  1.0000 0.5904183811
C   C28       1.0  0.35280  0.35630  0.67670  1.0000 0.5520196608
C   C29       1.0  0.38630  0.28060  0.75150  1.0000 -0.0824306836
C   C30       1.0  0.29070  0.24220  0.78460  1.0000 -0.0824306836
C   C31       1.0  0.51650  0.25000  0.79070  1.0000 -0.0824306836
C   C32       1.0  0.31400  0.16950  0.85130  1.0000 -0.1957280883
C   C33       1.0  0.55150  0.18290  0.85530  1.0000 -0.1579498747
C   C34       1.0  0.44910  0.13860  0.88370  1.0000 0.3062733165
C   C35       1.0  0.19770  0.13310  0.88220  1.0000 0.5904183811
C   C36       1.0  0.69810  0.15320  0.88570  1.0000 0.5904183811
O   O1        1.0  0.44490  0.10990  0.14780  1.0000 -0.5313825407
O   O2        1.0  0.47920  0.43110  0.44350  1.0000 -0.5832882174
O   O3        1.0  0.20930  0.42860  0.43820  1.0000 -0.5434824177
O   O4        1.0  0.73690  0.42140  0.43460  1.0000 -0.5942619988
O   O5        1.0  0.23600  0.11500  0.15090  1.0000 -0.5516329357
O   O6        1.0  0.08300  0.33180  0.34190  1.0000 -0.4896628061
O   O7        1.0  0.78780  0.30020  0.37070  1.0000 -0.4672855088
O   O8        1.0  0.93340  0.49190  0.50650  1.0000 -0.2865303257
O   O9        1.0  0.55510  0.60990  0.35220  1.0000 -0.5313825407
O   O10       1.0  0.52080  0.93110  0.05650  1.0000 -0.5832882174
O   O11       1.0  0.79070  0.92860  0.06180  1.0000 -0.5434824177
O   O12       1.0  0.26310  0.92140  0.06540  1.0000 -0.5942619988
O   O13       1.0  0.76400  0.61500  0.34910  1.0000 -0.5516329357
O   O14       1.0  0.91700  0.83180  0.15810  1.0000 -0.4896628061
O   O15       1.0  0.21220  0.80020  0.12930  1.0000 -0.4672855088
O   O16       1.0  0.06660  0.99190  0.99350  1.0000 -0.2865303257
O   O17       1.0  0.55510  0.89010  0.85220  1.0000 -0.5313825407
O   O18       1.0  0.52080  0.56890  0.55650  1.0000 -0.5832882174
O   O19       1.0  0.79070  0.57140  0.56180  1.0000 -0.5434824177
O   O20       1.0  0.26310  0.57860  0.56540  1.0000 -0.5942619988
O   O21       1.0  0.76400  0.88500  0.84910  1.0000 -0.5516329357
O   O22       1.0  0.91700  0.66820  0.65810  1.0000 -0.4896628061
O   O23       1.0  0.21220  0.69980  0.62930  1.0000 -0.4672855088
O   O24       1.0  0.06660  0.50810  0.49350  1.0000 -0.2865303257
O   O25       1.0  0.44490  0.39010  0.64780  1.0000 -0.5313825407
O   O26       1.0  0.47920  0.06890  0.94350  1.0000 -0.5832882174
O   O27       1.0  0.20930  0.07140  0.93820  1.0000 -0.5434824177
O   O28       1.0  0.73690  0.07860  0.93460  1.0000 -0.5942619988
O   O29       1.0  0.23600  0.38500  0.65090  1.0000 -0.5516329357
O   O30       1.0  0.08300  0.16820  0.84190  1.0000 -0.4896628061
O   O31       1.0  0.78780  0.19980  0.87070  1.0000 -0.4672855088
O   O32       1.0  0.93340  0.00810  0.00650  1.0000 -0.2865303257
