# DDEC6 charges by PACMAN v1.1 (https://github.com/mtap-research/PACMAN-charge/)
data_0000[Mn][fns]3[ASR]1
_chemical_formula_sum              "Mn24 P12 H240 C504 O144 F48"
_cell_length_a       23.0667
_cell_length_b       26.7047
_cell_length_c       44.6266
_cell_angle_alpha    90
_cell_angle_beta     90
_cell_angle_gamma    90

_symmetry_space_group_name_H-M    "P 1"
_symmetry_Int_Tables_number       1

loop_
  _symmetry_equiv_pos_as_xyz
  'x, y, z'

loop_
  _atom_site_type_symbol
  _atom_site_label
  _atom_site_symmetry_multiplicity
  _atom_site_fract_x
  _atom_site_fract_y
  _atom_site_fract_z
  _atom_site_occupancy
  _atom_site_charge
Mn  Mn1       1.0  0.14820  0.18103  0.42090  1.0000 1.0899597973
Mn  Mn2       1.0  0.33767  0.52524  0.18858  1.0000 1.0394388408
Mn  Mn3       1.0  0.32949  0.18825  0.42025  1.0000 1.0718487174
Mn  Mn4       1.0  0.49397  0.75253  0.76450  1.0000 1.0718487174
Mn  Mn5       1.0  0.51190  0.51983  0.18671  1.0000 1.0814917058
Mn  Mn6       1.0  0.32576  0.25106  0.73440  1.0000 1.0567507416
Mn  Mn7       1.0  0.35180  0.81897  0.92090  1.0000 1.0899597973
Mn  Mn8       1.0  0.16233  0.47476  0.68858  1.0000 1.0394388408
Mn  Mn9       1.0  0.17051  0.81175  0.92025  1.0000 1.0718487174
Mn  Mn10      1.0  0.00603  0.24747  0.26450  1.0000 1.0718487174
Mn  Mn11      1.0  0.98810  0.48017  0.68671  1.0000 1.0814917058
Mn  Mn12      1.0  0.17424  0.74894  0.23440  1.0000 1.0567507416
Mn  Mn13      1.0  0.85180  0.68103  0.07910  1.0000 1.0899597973
Mn  Mn14      1.0  0.66233  0.02524  0.31142  1.0000 1.0394388408
Mn  Mn15      1.0  0.67051  0.68825  0.07975  1.0000 1.0718487174
Mn  Mn16      1.0  0.50603  0.25253  0.73550  1.0000 1.0718487174
Mn  Mn17      1.0  0.48810  0.01983  0.31329  1.0000 1.0814917058
Mn  Mn18      1.0  0.67424  0.75106  0.76560  1.0000 1.0567507416
Mn  Mn19      1.0  0.64820  0.31897  0.57910  1.0000 1.0899597973
Mn  Mn20      1.0  0.83767  0.97476  0.81142  1.0000 1.0394388408
Mn  Mn21      1.0  0.82949  0.31175  0.57975  1.0000 1.0718487174
Mn  Mn22      1.0  0.99397  0.74747  0.23550  1.0000 1.0718487174
Mn  Mn23      1.0  0.01190  0.98017  0.81329  1.0000 1.0814917058
Mn  Mn24      1.0  0.82576  0.24894  0.26560  1.0000 1.0567507416
P   P1        1.0  0.23902  0.21721  0.47682  1.0000 1.4785431083
P   P2        1.0  0.58694  0.67846  0.72622  1.0000 1.4785431083
P   P3        1.0  0.41707  0.42992  0.20956  1.0000 1.474693057
P   P4        1.0  0.26098  0.78279  0.97682  1.0000 1.474693057
P   P5        1.0  0.91306  0.32154  0.22622  1.0000 1.4785431083
P   P6        1.0  0.08293  0.57008  0.70956  1.0000 1.474693057
P   P7        1.0  0.76098  0.71721  0.02318  1.0000 1.474693057
P   P8        1.0  0.41306  0.17846  0.77378  1.0000 1.4785431083
P   P9        1.0  0.58293  0.92992  0.29044  1.0000 1.4785431083
P   P10       1.0  0.73902  0.28279  0.52318  1.0000 1.4785431083
P   P11       1.0  0.08694  0.82154  0.27378  1.0000 1.4785431083
P   P12       1.0  0.91707  0.07008  0.79044  1.0000 1.474693057
H   H1        1.0  0.44880  0.52910  0.76510  1.0000 0.1294169238
H   H2        1.0  0.50780  0.26680  0.65640  1.0000 0.138804807
H   H3        1.0  0.46110  0.25320  0.57000  1.0000 0.1294169238
H   H4        1.0  0.98330  0.41080  0.62400  1.0000 0.138804807
H   H5        1.0  0.68360  0.72570  0.68900  1.0000 0.1578851052
H   H6        1.0  0.65440  0.67870  0.60390  1.0000 0.1294169238
H   H7        1.0  0.70540  0.82160  0.61950  1.0000 0.1578851052
H   H8        1.0  0.31760  0.37580  0.71840  1.0000 0.1484726276
H   H9        1.0  0.07080  0.34070  0.46930  1.0000 0.138804807
H   H10       1.0  0.24320  0.34270  0.45180  1.0000 0.1484726276
H   H11       1.0  0.12780  0.36570  0.38470  1.0000 0.1700129123
H   H12       1.0  0.84000  0.42140  0.61900  1.0000 0.1484726276
H   H13       1.0  0.51690  0.27890  0.29470  1.0000 0.138804807
H   H14       1.0  0.45930  0.24580  0.29190  1.0000 0.138804807
H   H15       1.0  0.45450  0.30470  0.29770  1.0000 0.1294169238
H   H16       1.0  0.34310  0.23160  0.63460  1.0000 0.1294169238
H   H17       1.0  0.66840  0.13480  0.27770  1.0000 0.138804807
H   H18       1.0  0.02470  0.32870  0.55110  1.0000 0.1236481563
H   H19       1.0  0.48360  0.42010  0.73160  1.0000 0.1294169238
H   H20       1.0  0.50100  0.17080  0.26150  1.0000 0.1294169238
H   H21       1.0  0.80200  0.54770  0.66480  1.0000 0.1294169238
H   H22       1.0  0.15160  0.39540  0.59790  1.0000 0.1294169238
H   H23       1.0  0.14290  0.23790  0.34690  1.0000 0.138804807
H   H24       1.0  0.14250  0.26990  0.59600  1.0000 0.138804807
H   H25       1.0  0.19140  0.31010  0.60420  1.0000 0.138804807
H   H26       1.0  0.20960  0.25580  0.59240  1.0000 0.1294169238
H   H27       1.0  0.36340  0.51950  0.70370  1.0000 0.1294169238
H   H28       1.0  0.67970  0.47520  0.69380  1.0000 0.138804807
H   H29       1.0  0.62470  0.46580  0.67270  1.0000 0.138804807
H   H30       1.0  0.61580  0.48670  0.70600  1.0000 0.1294169238
H   H31       1.0  0.72280  0.61110  0.63300  1.0000 0.1294169238
H   H32       1.0  0.37690  0.15520  0.57040  1.0000 0.1294169238
H   H33       1.0  0.30880  0.31380  0.60070  1.0000 0.138804807
H   H34       1.0  0.28410  0.33640  0.57010  1.0000 0.1294169238
H   H35       1.0  0.35250  0.32890  0.57440  1.0000 0.138804807
H   H36       1.0  0.30920  0.28600  0.33960  1.0000 0.1294169238
H   H37       1.0  0.19210  0.31510  0.27480  1.0000 0.1294169238
H   H38       1.0  0.31300  0.08530  0.57250  1.0000 0.1294169238
H   H39       1.0  0.30150  0.97860  0.50820  1.0000 0.1700129123
H   H40       1.0  0.30680  0.12520  0.48490  1.0000 0.1578851052
H   H41       1.0  0.67570  0.47330  0.62110  1.0000 0.1294169238
H   H42       1.0  0.26890  0.40520  0.30080  1.0000 0.1294169238
H   H43       1.0  0.10550  0.37410  0.51400  1.0000 0.1236481563
H   H44       1.0  0.43760  0.61570  0.79190  1.0000 0.1484726276
H   H45       1.0  0.52700  0.64480  0.86820  1.0000 0.1700129123
H   H46       1.0  0.60880  0.58250  0.79700  1.0000 0.1484726276
H   H47       1.0  0.36500  0.24940  0.25070  1.0000 0.138804807
H   H48       1.0  0.30650  0.24660  0.27000  1.0000 0.138804807
H   H49       1.0  0.36810  0.24490  0.28650  1.0000 0.138804807
H   H50       1.0  0.49450  0.39680  0.16070  1.0000 0.1578851052
H   H51       1.0  0.48410  0.24660  0.14900  1.0000 0.1236481563
H   H52       1.0  0.49980  0.33800  0.07700  1.0000 0.1700129123
H   H53       1.0  0.54340  0.25600  0.19310  1.0000 0.1294169238
H   H54       1.0  0.63070  0.26500  0.23710  1.0000 0.1294169238
H   H55       1.0  0.53550  0.52390  0.65630  1.0000 0.1294169238
H   H56       1.0  0.46880  0.51100  0.66260  1.0000 0.138804807
H   H57       1.0  0.51830  0.47160  0.67140  1.0000 0.138804807
H   H58       1.0  0.30820  0.61270  0.28850  1.0000 0.1764274749
H   H59       1.0  0.24430  0.47410  0.27190  1.0000 0.138804807
H   H60       1.0  0.41640  0.49320  0.28620  1.0000 0.1578851052
H   H61       1.0  0.05120  0.47090  0.26510  1.0000 0.1294169238
H   H62       1.0  0.99220  0.73320  0.15640  1.0000 0.138804807
H   H63       1.0  0.03890  0.74680  0.07000  1.0000 0.1294169238
H   H64       1.0  0.51670  0.58920  0.12400  1.0000 0.1484726276
H   H65       1.0  0.81640  0.27430  0.18900  1.0000 0.1578851052
H   H66       1.0  0.84560  0.32130  0.10390  1.0000 0.1294169238
H   H67       1.0  0.79460  0.17840  0.11950  1.0000 0.1578851052
H   H68       1.0  0.18240  0.62420  0.21840  1.0000 0.1484726276
H   H69       1.0  0.42920  0.65930  0.96930  1.0000 0.138804807
H   H70       1.0  0.25680  0.65730  0.95180  1.0000 0.1484726276
H   H71       1.0  0.37220  0.63430  0.88470  1.0000 0.1700129123
H   H72       1.0  0.66000  0.57860  0.11900  1.0000 0.1484726276
H   H73       1.0  0.98310  0.72110  0.79470  1.0000 0.138804807
H   H74       1.0  0.04070  0.75420  0.79190  1.0000 0.138804807
H   H75       1.0  0.04550  0.69530  0.79770  1.0000 0.1294169238
H   H76       1.0  0.15690  0.76840  0.13460  1.0000 0.1294169238
H   H77       1.0  0.83160  0.86520  0.77770  1.0000 0.138804807
H   H78       1.0  0.47530  0.67130  0.05110  1.0000 0.1236481563
H   H79       1.0  0.01640  0.57990  0.23160  1.0000 0.1294169238
H   H80       1.0  0.99900  0.82920  0.76150  1.0000 0.1294169238
H   H81       1.0  0.69800  0.45230  0.16480  1.0000 0.1294169238
H   H82       1.0  0.34840  0.60460  0.09790  1.0000 0.1294169238
H   H83       1.0  0.35710  0.76210  0.84690  1.0000 0.138804807
H   H84       1.0  0.35750  0.73010  0.09600  1.0000 0.138804807
H   H85       1.0  0.30860  0.68990  0.10420  1.0000 0.138804807
H   H86       1.0  0.29040  0.74420  0.09240  1.0000 0.1294169238
H   H87       1.0  0.13660  0.48050  0.20370  1.0000 0.1294169238
H   H88       1.0  0.82030  0.52480  0.19380  1.0000 0.138804807
H   H89       1.0  0.87530  0.53420  0.17270  1.0000 0.138804807
H   H90       1.0  0.88420  0.51330  0.20600  1.0000 0.1294169238
H   H91       1.0  0.77720  0.38890  0.13300  1.0000 0.1294169238
H   H92       1.0  0.12310  0.84480  0.07040  1.0000 0.1294169238
H   H93       1.0  0.19120  0.68620  0.10070  1.0000 0.138804807
H   H94       1.0  0.21590  0.66360  0.07010  1.0000 0.1294169238
H   H95       1.0  0.14750  0.67110  0.07440  1.0000 0.138804807
H   H96       1.0  0.19080  0.71400  0.83960  1.0000 0.1294169238
H   H97       1.0  0.30790  0.68490  0.77480  1.0000 0.1294169238
H   H98       1.0  0.18700  0.91470  0.07250  1.0000 0.1294169238
H   H99       1.0  0.19850  0.02140  0.00820  1.0000 0.1700129123
H   H100      1.0  0.19320  0.87480  0.98490  1.0000 0.1578851052
H   H101      1.0  0.82430  0.52670  0.12110  1.0000 0.1294169238
H   H102      1.0  0.23110  0.59480  0.80080  1.0000 0.1294169238
H   H103      1.0  0.39450  0.62590  0.01400  1.0000 0.1236481563
H   H104      1.0  0.06240  0.38430  0.29190  1.0000 0.1484726276
H   H105      1.0  0.97300  0.35520  0.36820  1.0000 0.1700129123
H   H106      1.0  0.89120  0.41750  0.29700  1.0000 0.1484726276
H   H107      1.0  0.13500  0.75060  0.75070  1.0000 0.138804807
H   H108      1.0  0.19350  0.75340  0.77000  1.0000 0.138804807
H   H109      1.0  0.13190  0.75510  0.78650  1.0000 0.138804807
H   H110      1.0  0.00550  0.60320  0.66070  1.0000 0.1578851052
H   H111      1.0  0.01590  0.75340  0.64900  1.0000 0.1294169238
H   H112      1.0  0.00020  0.66200  0.57700  1.0000 0.1700129123
H   H113      1.0  0.95660  0.74400  0.69310  1.0000 0.1236481563
H   H114      1.0  0.86930  0.73500  0.73710  1.0000 0.1294169238
H   H115      1.0  0.96450  0.47610  0.15630  1.0000 0.1294169238
H   H116      1.0  0.03120  0.48900  0.16260  1.0000 0.138804807
H   H117      1.0  0.98170  0.52840  0.17140  1.0000 0.138804807
H   H118      1.0  0.19180  0.38730  0.78850  1.0000 0.1764274749
H   H119      1.0  0.25570  0.52590  0.77190  1.0000 0.138804807
H   H120      1.0  0.08360  0.50680  0.78620  1.0000 0.1578851052
H   H121      1.0  0.55120  0.02910  0.73490  1.0000 0.1294169238
H   H122      1.0  0.49220  0.76680  0.84360  1.0000 0.138804807
H   H123      1.0  0.53890  0.75320  0.93000  1.0000 0.1294169238
H   H124      1.0  0.01670  0.91080  0.87600  1.0000 0.138804807
H   H125      1.0  0.31640  0.22570  0.81100  1.0000 0.1578851052
H   H126      1.0  0.34560  0.17870  0.89610  1.0000 0.1294169238
H   H127      1.0  0.29460  0.32160  0.88050  1.0000 0.1578851052
H   H128      1.0  0.68240  0.87580  0.78160  1.0000 0.1484726276
H   H129      1.0  0.92920  0.84070  0.03070  1.0000 0.138804807
H   H130      1.0  0.75680  0.84270  0.04820  1.0000 0.1484726276
H   H131      1.0  0.87220  0.86570  0.11530  1.0000 0.1700129123
H   H132      1.0  0.16000  0.92140  0.88100  1.0000 0.1484726276
H   H133      1.0  0.48310  0.77890  0.20530  1.0000 0.138804807
H   H134      1.0  0.54070  0.74580  0.20810  1.0000 0.138804807
H   H135      1.0  0.54550  0.80470  0.20230  1.0000 0.1294169238
H   H136      1.0  0.65690  0.73160  0.86540  1.0000 0.1294169238
H   H137      1.0  0.33160  0.63480  0.22230  1.0000 0.138804807
H   H138      1.0  0.97530  0.82870  0.94890  1.0000 0.1236481563
H   H139      1.0  0.51640  0.92010  0.76840  1.0000 0.1294169238
H   H140      1.0  0.49900  0.67080  0.23850  1.0000 0.1294169238
H   H141      1.0  0.19800  0.04770  0.83520  1.0000 0.1294169238
H   H142      1.0  0.84840  0.89540  0.90210  1.0000 0.1294169238
H   H143      1.0  0.85710  0.73790  0.15310  1.0000 0.138804807
H   H144      1.0  0.85750  0.76990  0.90400  1.0000 0.138804807
H   H145      1.0  0.80860  0.81010  0.89580  1.0000 0.138804807
H   H146      1.0  0.79040  0.75580  0.90760  1.0000 0.1294169238
H   H147      1.0  0.63660  0.01950  0.79630  1.0000 0.1294169238
H   H148      1.0  0.32030  0.97520  0.80620  1.0000 0.138804807
H   H149      1.0  0.37530  0.96580  0.82730  1.0000 0.138804807
H   H150      1.0  0.38420  0.98670  0.79400  1.0000 0.138804807
H   H151      1.0  0.27720  0.11110  0.86700  1.0000 0.1294169238
H   H152      1.0  0.62310  0.65520  0.92960  1.0000 0.1294169238
H   H153      1.0  0.69120  0.81380  0.89930  1.0000 0.138804807
H   H154      1.0  0.71590  0.83640  0.92990  1.0000 0.1294169238
H   H155      1.0  0.64750  0.82890  0.92560  1.0000 0.138804807
H   H156      1.0  0.69080  0.78600  0.16040  1.0000 0.1294169238
H   H157      1.0  0.80790  0.81510  0.22520  1.0000 0.1294169238
H   H158      1.0  0.68700  0.58530  0.92750  1.0000 0.1294169238
H   H159      1.0  0.69850  0.47860  0.99180  1.0000 0.1700129123
H   H160      1.0  0.69320  0.62520  0.01510  1.0000 0.1578851052
H   H161      1.0  0.32430  0.97330  0.87890  1.0000 0.1294169238
H   H162      1.0  0.73110  0.90520  0.19920  1.0000 0.1294169238
H   H163      1.0  0.89450  0.87410  0.98600  1.0000 0.1236481563
H   H164      1.0  0.56240  0.11570  0.70810  1.0000 0.1484726276
H   H165      1.0  0.47300  0.14480  0.63180  1.0000 0.1700129123
H   H166      1.0  0.39120  0.08250  0.70300  1.0000 0.1484726276
H   H167      1.0  0.63500  0.74940  0.24930  1.0000 0.138804807
H   H168      1.0  0.69350  0.74660  0.23000  1.0000 0.138804807
H   H169      1.0  0.63190  0.74490  0.21350  1.0000 0.138804807
H   H170      1.0  0.50550  0.89680  0.33930  1.0000 0.1578851052
H   H171      1.0  0.51590  0.74660  0.35100  1.0000 0.1236481563
H   H172      1.0  0.50020  0.83800  0.42300  1.0000 0.1700129123
H   H173      1.0  0.45660  0.75600  0.30690  1.0000 0.1294169238
H   H174      1.0  0.36930  0.76500  0.26290  1.0000 0.1294169238
H   H175      1.0  0.46450  0.02390  0.84370  1.0000 0.1294169238
H   H176      1.0  0.53120  0.01100  0.83740  1.0000 0.138804807
H   H177      1.0  0.48170  0.97160  0.82860  1.0000 0.138804807
H   H178      1.0  0.69180  0.11270  0.21150  1.0000 0.1764274749
H   H179      1.0  0.75570  0.97410  0.22810  1.0000 0.138804807
H   H180      1.0  0.58360  0.99320  0.21380  1.0000 0.1578851052
H   H181      1.0  0.94880  0.97090  0.23490  1.0000 0.1294169238
H   H182      1.0  0.00780  0.23320  0.34360  1.0000 0.138804807
H   H183      1.0  0.96110  0.24680  0.43000  1.0000 0.1294169238
H   H184      1.0  0.48330  0.08920  0.37600  1.0000 0.138804807
H   H185      1.0  0.18360  0.77430  0.31100  1.0000 0.1578851052
H   H186      1.0  0.15440  0.82130  0.39610  1.0000 0.1294169238
H   H187      1.0  0.20540  0.67840  0.38050  1.0000 0.1578851052
H   H188      1.0  0.81760  0.12420  0.28160  1.0000 0.1484726276
H   H189      1.0  0.57080  0.15930  0.53070  1.0000 0.138804807
H   H190      1.0  0.74320  0.15730  0.54820  1.0000 0.1484726276
H   H191      1.0  0.62780  0.13430  0.61530  1.0000 0.1700129123
H   H192      1.0  0.34000  0.07860  0.38100  1.0000 0.1484726276
H   H193      1.0  0.01690  0.22110  0.70530  1.0000 0.138804807
H   H194      1.0  0.95930  0.25420  0.70810  1.0000 0.138804807
H   H195      1.0  0.95450  0.19530  0.70230  1.0000 0.1294169238
H   H196      1.0  0.84310  0.26840  0.36540  1.0000 0.1294169238
H   H197      1.0  0.16840  0.36520  0.72230  1.0000 0.138804807
H   H198      1.0  0.52470  0.17130  0.44890  1.0000 0.1236481563
H   H199      1.0  0.98360  0.07990  0.26840  1.0000 0.1294169238
H   H200      1.0  0.00100  0.32920  0.73850  1.0000 0.1294169238
H   H201      1.0  0.30200  0.95230  0.33520  1.0000 0.1294169238
H   H202      1.0  0.65160  0.10460  0.40210  1.0000 0.1294169238
H   H203      1.0  0.64290  0.26210  0.65310  1.0000 0.138804807
H   H204      1.0  0.64250  0.23010  0.40400  1.0000 0.138804807
H   H205      1.0  0.69140  0.18990  0.39580  1.0000 0.138804807
H   H206      1.0  0.70960  0.24420  0.40760  1.0000 0.1294169238
H   H207      1.0  0.86340  0.98050  0.29630  1.0000 0.1294169238
H   H208      1.0  0.17970  0.02480  0.30620  1.0000 0.138804807
H   H209      1.0  0.12470  0.03420  0.32730  1.0000 0.138804807
H   H210      1.0  0.11580  0.01330  0.29400  1.0000 0.1294169238
H   H211      1.0  0.22280  0.88890  0.36700  1.0000 0.1294169238
H   H212      1.0  0.87690  0.34480  0.42960  1.0000 0.1294169238
H   H213      1.0  0.80880  0.18620  0.39930  1.0000 0.138804807
H   H214      1.0  0.78410  0.16360  0.42990  1.0000 0.1294169238
H   H215      1.0  0.85250  0.17110  0.42560  1.0000 0.138804807
H   H216      1.0  0.80920  0.21400  0.66040  1.0000 0.1294169238
H   H217      1.0  0.69210  0.18490  0.72520  1.0000 0.1294169238
H   H218      1.0  0.81300  0.41470  0.42750  1.0000 0.1294169238
H   H219      1.0  0.80150  0.52140  0.49180  1.0000 0.1764274749
H   H220      1.0  0.80680  0.37480  0.51510  1.0000 0.1578851052
H   H221      1.0  0.17570  0.02670  0.37890  1.0000 0.1294169238
H   H222      1.0  0.76890  0.09480  0.69920  1.0000 0.1294169238
H   H223      1.0  0.60550  0.12590  0.48600  1.0000 0.1236481563
H   H224      1.0  0.93760  0.88430  0.20810  1.0000 0.1484726276
H   H225      1.0  0.02700  0.85520  0.13180  1.0000 0.1700129123
H   H226      1.0  0.10880  0.91750  0.20300  1.0000 0.1484726276
H   H227      1.0  0.86500  0.25060  0.74930  1.0000 0.138804807
H   H228      1.0  0.80650  0.25340  0.73000  1.0000 0.138804807
H   H229      1.0  0.86810  0.25510  0.71350  1.0000 0.138804807
H   H230      1.0  0.99450  0.10320  0.83930  1.0000 0.1578851052
H   H231      1.0  0.98410  0.25340  0.85100  1.0000 0.1236481563
H   H232      1.0  0.99980  0.16200  0.92300  1.0000 0.1700129123
H   H233      1.0  0.04340  0.24400  0.80690  1.0000 0.1294169238
H   H234      1.0  0.13070  0.23500  0.76290  1.0000 0.1294169238
H   H235      1.0  0.03550  0.97610  0.34370  1.0000 0.1294169238
H   H236      1.0  0.96880  0.98900  0.33740  1.0000 0.138804807
H   H237      1.0  0.01830  0.02840  0.32860  1.0000 0.138804807
H   H238      1.0  0.80820  0.88730  0.71150  1.0000 0.1764274749
H   H239      1.0  0.74430  0.02590  0.72810  1.0000 0.138804807
H   H240      1.0  0.91640  0.00680  0.71380  1.0000 0.1578851052
C   C1        1.0  0.47690  0.53880  0.75061  1.0000 -0.1921708092
C   C2        1.0  0.47910  0.26060  0.64154  1.0000 -0.1184895813
C   C3        1.0  0.49330  0.26460  0.61166  1.0000 -0.0093019183
C   C4        1.0  0.45100  0.25250  0.59064  1.0000 -0.1515166781
C   C5        1.0  0.33120  0.44730  0.70944  1.0000 0.0020037311
C   C6        1.0  0.01160  0.39740  0.61075  1.0000 -0.1095904747
C   C7        1.0  0.69700  0.77960  0.65740  1.0000 0.3498115864
C   C8        1.0  0.68260  0.73230  0.66806  1.0000 -0.2714095053
C   C9        1.0  0.66667  0.69470  0.64810  1.0000 0.138804807
C   C10       1.0  0.66530  0.70440  0.61750  1.0000 -0.2617017586
C   C11       1.0  0.67970  0.75170  0.60690  1.0000 0.3785271218
C   C12       1.0  0.69560  0.78930  0.62680  1.0000 -0.3409529768
C   C13       1.0  0.83000  0.48570  0.64372  1.0000 0.0085972652
C   C14       1.0  0.55140  0.28220  0.60231  1.0000 0.5397957579
C   C15       1.0  0.34610  0.40150  0.71813  1.0000 -0.1095904747
C   C16       1.0  0.10180  0.34440  0.45552  1.0000 -0.2714095053
C   C17       1.0  0.15880  0.34020  0.46535  1.0000 0.1700129123
C   C18       1.0  0.20420  0.34550  0.44513  1.0000 -0.2617017586
C   C19       1.0  0.19270  0.35500  0.41510  1.0000 0.3395561674
C   C20       1.0  0.13570  0.35920  0.40527  1.0000 -0.3409529768
C   C21       1.0  0.09030  0.35390  0.42550  1.0000 0.3395561674
C   C22       1.0  0.40330  0.39030  0.72691  1.0000 0.0085972652
C   C23       1.0  0.43030  0.47710  0.71969  1.0000 0.0769835982
C   C24       1.0  0.08780  0.44330  0.64005  1.0000 0.5808445782
C   C25       1.0  0.21840  0.28340  0.53693  1.0000 -0.042046653
C   C26       1.0  0.10210  0.26360  0.29374  1.0000 0.5397957579
C   C27       1.0  0.47410  0.51700  0.72254  1.0000 -0.001823348
C   C28       1.0  0.60600  0.57700  0.68663  1.0000 -0.0504573997
C   C29       1.0  0.58130  0.14510  0.27139  1.0000 -0.0192754503
C   C30       1.0  0.30240  0.33820  0.28892  1.0000 0.0085972652
C   C31       1.0  0.17990  0.30210  0.55837  1.0000 0.1073950907
C   C32       1.0  0.26760  0.24920  0.54469  1.0000 -0.0504573997
C   C33       1.0  0.81230  0.44520  0.62564  1.0000 -0.0999938905
C   C34       1.0  0.44480  0.33570  0.21134  1.0000 0.2062146113
C   C35       1.0  0.47670  0.27850  0.28756  1.0000 -0.4308972562
C   C36       1.0  0.42320  0.24750  0.65011  1.0000 -0.0093019183
C   C37       1.0  0.25810  0.30800  0.30544  1.0000 0.0769835982
C   C38       1.0  0.64540  0.53920  0.67696  1.0000 0.1073950907
C   C39       1.0  0.38180  0.23860  0.62861  1.0000 -0.1515166781
C   C40       1.0  0.09470  0.35890  0.57145  1.0000 0.0769835982
C   C41       1.0  0.22950  0.25710  0.34844  1.0000 -0.042046653
C   C42       1.0  0.64030  0.15760  0.27022  1.0000 -0.1184895813
C   C43       1.0  0.03660  0.34850  0.56764  1.0000 -0.1515166781
C   C44       1.0  0.43820  0.32200  0.24133  1.0000 -0.0504573997
C   C45       1.0  0.07050  0.40910  0.61470  1.0000 0.0085972652
C   C46       1.0  0.39540  0.23970  0.59823  1.0000 0.0769835982
C   C47       1.0  0.99520  0.36640  0.58767  1.0000 0.0182435034
C   C48       1.0  0.26940  0.45860  0.69985  1.0000 0.5302216056
C   C49       1.0  0.93260  0.35010  0.58439  1.0000 0.5302216056
C   C50       1.0  0.35120  0.22730  0.57532  1.0000 0.0182435034
C   C51       1.0  0.55770  0.56460  0.70753  1.0000 -0.0504573997
C   C52       1.0  0.65760  0.20190  0.25853  1.0000 0.0085972652
C   C53       1.0  0.34600  0.31410  0.27213  1.0000 0.1014628836
C   C54       1.0  0.38240  0.39670  0.26075  1.0000 0.1764274749
C   C55       1.0  0.30940  0.26310  0.56630  1.0000 0.1073950907
C   C56       1.0  0.44460  0.42800  0.72677  1.0000 -0.1399908319
C   C57       1.0  0.54100  0.17900  0.26058  1.0000 -0.1399908319
C   C58       1.0  0.89080  0.48570  0.65579  1.0000 0.5397957579
C   C59       1.0  0.79010  0.52010  0.65288  1.0000 -0.1399908319
C   C60       1.0  0.21060  0.29690  0.50712  1.0000 0.1885442909
C   C61       1.0  0.55650  0.58790  0.73565  1.0000 0.2025266223
C   C62       1.0  0.16990  0.33090  0.49801  1.0000 -0.0291298916
C   C63       1.0  0.47590  0.28760  0.25451  1.0000 0.1073950907
C   C64       1.0  0.68800  0.55350  0.65601  1.0000 0.0085972652
C   C65       1.0  0.48450  0.31160  0.19222  1.0000 -0.0093019183
C   C66       1.0  0.11160  0.38860  0.59496  1.0000 -0.1561676964
C   C67       1.0  0.27160  0.20210  0.53108  1.0000 0.2025266223
C   C68       1.0  0.61630  0.62650  0.67948  1.0000 0.1885442909
C   C69       1.0  0.31110  0.16600  0.54023  1.0000 -0.0192754503
C   C70       1.0  0.13840  0.33620  0.54932  1.0000 0.0020037311
C   C71       1.0  0.17290  0.25410  0.33593  1.0000 -0.0949126735
C   C72       1.0  0.18090  0.28280  0.59063  1.0000 -0.4308972562
C   C73       1.0  0.72000  0.21750  0.25900  1.0000 0.5302216056
C   C74       1.0  0.33950  0.41910  0.27517  1.0000 -0.0291298916
C   C75       1.0  0.73110  0.51520  0.64477  1.0000 0.0769835982
C   C76       1.0  0.51330  0.53050  0.70043  1.0000 0.1014628836
C   C77       1.0  0.37380  0.48680  0.71000  1.0000 -0.1515166781
C   C78       1.0  0.64110  0.48740  0.68830  1.0000 -0.4308972562
C   C79       1.0  0.16080  0.27410  0.30823  1.0000 0.0020037311
C   C80       1.0  0.24370  0.23470  0.37706  1.0000 0.5808445782
C   C81       1.0  0.69380  0.60270  0.64725  1.0000 -0.181488638
C   C82       1.0  0.38850  0.34410  0.25809  1.0000 -0.0291298916
C   C83       1.0  0.35030  0.17950  0.56313  1.0000 -0.181488638
C   C84       1.0  0.75550  0.44020  0.61767  1.0000 -0.001823348
C   C85       1.0  0.31410  0.31510  0.57897  1.0000 -0.4227421974
C   C86       1.0  0.51630  0.26210  0.23563  1.0000 0.0020037311
C   C87       1.0  0.27080  0.28410  0.33207  1.0000 -0.1399908319
C   C88       1.0  0.20150  0.30070  0.29369  1.0000 -0.1399908319
C   C89       1.0  0.73680  0.39720  0.59781  1.0000 0.5960285634
C   C90       1.0  0.31060  0.07630  0.55194  1.0000 -0.2714095053
C   C91       1.0  0.30730  0.02610  0.54380  1.0000 0.3674914062
C   C92       1.0  0.30380  0.01290  0.51370  1.0000 -0.3323438309
C   C93       1.0  0.30360  0.04980  0.49180  1.0000 0.3498115864
C   C94       1.0  0.30690  0.10000  0.49992  1.0000 -0.2487764865
C   C95       1.0  0.31040  0.11319  0.52999  1.0000 0.138804807
C   C96       1.0  0.71500  0.47630  0.62717  1.0000 -0.1515166781
C   C97       1.0  0.29930  0.38970  0.28984  1.0000 -0.181488638
C   C98       1.0  0.56330  0.09570  0.28371  1.0000 0.5808445782
C   C99       1.0  0.13410  0.35030  0.51963  1.0000 -0.1742655404
C   C100      1.0  0.52300  0.59620  0.78983  1.0000 0.1700129123
C   C101      1.0  0.47287  0.61510  0.80293  1.0000 -0.278091266
C   C102      1.0  0.47440  0.63320  0.83212  1.0000 0.3608764269
C   C103      1.0  0.52590  0.63240  0.84822  1.0000 -0.3754573345
C   C104      1.0  0.57600  0.61350  0.83512  1.0000 0.3498115864
C   C105      1.0  0.57455  0.59540  0.80592  1.0000 -0.278091266
C   C106      1.0  0.34640  0.25920  0.26960  1.0000 -0.4308972562
C   C107      1.0  0.40730  0.24220  0.68290  1.0000 0.5883352653
C   C108      1.0  0.49380  0.36850  0.14777  1.0000 -0.2487764865
C   C109      1.0  0.48860  0.32070  0.15973  1.0000 0.138804807
C   C110      1.0  0.48760  0.27927  0.14086  1.0000 -0.2714095053
C   C111      1.0  0.49180  0.28570  0.11003  1.0000 0.3498115864
C   C112      1.0  0.49690  0.33360  0.09807  1.0000 -0.3205316618
C   C113      1.0  0.49790  0.37500  0.11694  1.0000 0.3498115864
C   C114      1.0  0.51770  0.27440  0.20560  1.0000 -0.181488638
C   C115      1.0  0.42080  0.33810  0.73556  1.0000 0.5883352653
C   C116      1.0  0.51900  0.57450  0.75918  1.0000 -0.0093019183
C   C117      1.0  0.65860  0.64080  0.65862  1.0000 -0.001823348
C   C118      1.0  0.61720  0.23530  0.24654  1.0000 -0.1515166781
C   C119      1.0  0.55830  0.22640  0.24797  1.0000 0.0769835982
C   C120      1.0  0.50860  0.50730  0.67010  1.0000 -0.4227421974
C   C121      1.0  0.36970  0.55790  0.28832  1.0000 0.3309002265
C   C122      1.0  0.31420  0.57778  0.28596  1.0000 -0.3323438309
C   C123      1.0  0.26740  0.54660  0.27983  1.0000 0.3395561674
C   C124      1.0  0.27620  0.49540  0.27605  1.0000 -0.2908133894
C   C125      1.0  0.33170  0.47556  0.27841  1.0000 0.1764274749
C   C126      1.0  0.37840  0.50680  0.28454  1.0000 -0.2617017586
C   C127      1.0  0.02310  0.46120  0.25061  1.0000 -0.1921708092
C   C128      1.0  0.02090  0.73940  0.14154  1.0000 -0.1184895813
C   C129      1.0  0.00670  0.73540  0.11166  1.0000 -0.0093019183
C   C130      1.0  0.04900  0.74750  0.09064  1.0000 -0.1515166781
C   C131      1.0  0.16880  0.55270  0.20944  1.0000 0.0085972652
C   C132      1.0  0.48840  0.60260  0.11075  1.0000 -0.1095904747
C   C133      1.0  0.80300  0.22040  0.15740  1.0000 0.3498115864
C   C134      1.0  0.81740  0.26770  0.16806  1.0000 -0.2617017586
C   C135      1.0  0.83333  0.30530  0.14810  1.0000 0.138804807
C   C136      1.0  0.83470  0.29560  0.11750  1.0000 -0.2617017586
C   C137      1.0  0.82030  0.24830  0.10690  1.0000 0.3785271218
C   C138      1.0  0.80440  0.21070  0.12680  1.0000 -0.3409529768
C   C139      1.0  0.67000  0.51430  0.14372  1.0000 0.0085972652
C   C140      1.0  0.94860  0.71780  0.10231  1.0000 0.5397957579
C   C141      1.0  0.15390  0.59850  0.21813  1.0000 -0.1095904747
C   C142      1.0  0.39820  0.65560  0.95552  1.0000 -0.2714095053
C   C143      1.0  0.34120  0.65980  0.96535  1.0000 0.1700129123
C   C144      1.0  0.29580  0.65450  0.94513  1.0000 -0.2617017586
C   C145      1.0  0.30730  0.64500  0.91510  1.0000 0.3395561674
C   C146      1.0  0.36430  0.64080  0.90527  1.0000 -0.3409529768
C   C147      1.0  0.40970  0.64610  0.92550  1.0000 0.3395561674
C   C148      1.0  0.09670  0.60970  0.22691  1.0000 0.0085972652
C   C149      1.0  0.06970  0.52290  0.21969  1.0000 0.0769835982
C   C150      1.0  0.41220  0.55670  0.14005  1.0000 0.5808445782
C   C151      1.0  0.28160  0.71660  0.03693  1.0000 -0.042046653
C   C152      1.0  0.39790  0.73640  0.79374  1.0000 0.5397957579
C   C153      1.0  0.02590  0.48300  0.22254  1.0000 -0.001823348
C   C154      1.0  0.89400  0.42300  0.18663  1.0000 -0.0504573997
C   C155      1.0  0.91870  0.85490  0.77139  1.0000 -0.0192754503
C   C156      1.0  0.19760  0.66180  0.78892  1.0000 0.0085972652
C   C157      1.0  0.32010  0.69790  0.05837  1.0000 0.1073950907
C   C158      1.0  0.23240  0.75080  0.04469  1.0000 -0.0504573997
C   C159      1.0  0.68770  0.55480  0.12564  1.0000 -0.0999938905
C   C160      1.0  0.05520  0.66430  0.71134  1.0000 0.2062146113
C   C161      1.0  0.02330  0.72150  0.78756  1.0000 -0.4308972562
C   C162      1.0  0.07680  0.75250  0.15011  1.0000 -0.0093019183
C   C163      1.0  0.24190  0.69200  0.80544  1.0000 0.0769835982
C   C164      1.0  0.85460  0.46080  0.17696  1.0000 0.1073950907
C   C165      1.0  0.11820  0.76140  0.12861  1.0000 -0.1515166781
C   C166      1.0  0.40530  0.64110  0.07145  1.0000 0.0769835982
C   C167      1.0  0.27050  0.74290  0.84844  1.0000 -0.042046653
C   C168      1.0  0.85970  0.84240  0.77022  1.0000 -0.1184895813
C   C169      1.0  0.46340  0.65150  0.06764  1.0000 -0.1515166781
C   C170      1.0  0.06180  0.67800  0.74133  1.0000 -0.0504573997
C   C171      1.0  0.42950  0.59090  0.11470  1.0000 0.0085972652
C   C172      1.0  0.10460  0.76030  0.09823  1.0000 0.0739280353
C   C173      1.0  0.50480  0.63360  0.08767  1.0000 0.0182435034
C   C174      1.0  0.23060  0.54140  0.19985  1.0000 0.5302216056
C   C175      1.0  0.56740  0.64990  0.08439  1.0000 0.5302216056
C   C176      1.0  0.14880  0.77270  0.07532  1.0000 0.0182435034
C   C177      1.0  0.94230  0.43540  0.20753  1.0000 -0.0504573997
C   C178      1.0  0.84240  0.79810  0.75853  1.0000 0.0085972652
C   C179      1.0  0.15400  0.68590  0.77213  1.0000 0.1014628836
C   C180      1.0  0.11760  0.60330  0.76075  1.0000 0.1764274749
C   C181      1.0  0.19060  0.73690  0.06630  1.0000 0.1073950907
C   C182      1.0  0.05540  0.57200  0.22677  1.0000 -0.1515166781
C   C183      1.0  0.95900  0.82100  0.76058  1.0000 -0.1399908319
C   C184      1.0  0.60920  0.51430  0.15579  1.0000 0.5397957579
C   C185      1.0  0.70990  0.47990  0.15288  1.0000 -0.1399908319
C   C186      1.0  0.28940  0.70310  0.00712  1.0000 0.1885442909
C   C187      1.0  0.94350  0.41210  0.23565  1.0000 0.2025266223
C   C188      1.0  0.33010  0.66910  0.99801  1.0000 -0.0291298916
C   C189      1.0  0.02410  0.71240  0.75451  1.0000 0.1073950907
C   C190      1.0  0.81200  0.44650  0.15601  1.0000 0.0085972652
C   C191      1.0  0.01550  0.68840  0.69222  1.0000 -0.0093019183
C   C192      1.0  0.38840  0.61140  0.09496  1.0000 -0.1561676964
C   C193      1.0  0.22840  0.79790  0.03108  1.0000 0.2025266223
C   C194      1.0  0.88370  0.37350  0.17948  1.0000 0.1885442909
C   C195      1.0  0.18890  0.83400  0.04023  1.0000 -0.0192754503
C   C196      1.0  0.36160  0.66380  0.04932  1.0000 0.0020037311
C   C197      1.0  0.32710  0.74590  0.83593  1.0000 -0.0999938905
C   C198      1.0  0.31910  0.71720  0.09063  1.0000 -0.4227421974
C   C199      1.0  0.78000  0.78250  0.75900  1.0000 0.5302216056
C   C200      1.0  0.16050  0.58090  0.77517  1.0000 -0.0291298916
C   C201      1.0  0.76890  0.48480  0.14477  1.0000 0.0769835982
C   C202      1.0  0.98670  0.46950  0.20043  1.0000 0.1014628836
C   C203      1.0  0.12620  0.51320  0.21000  1.0000 -0.1515166781
C   C204      1.0  0.85890  0.51260  0.18830  1.0000 -0.4368378197
C   C205      1.0  0.33920  0.72590  0.80823  1.0000 0.0020037311
C   C206      1.0  0.25630  0.76530  0.87706  1.0000 0.5808445782
C   C207      1.0  0.80620  0.39730  0.14725  1.0000 -0.181488638
C   C208      1.0  0.11150  0.65590  0.75809  1.0000 -0.0291298916
C   C209      1.0  0.14970  0.82050  0.06313  1.0000 -0.181488638
C   C210      1.0  0.74450  0.55980  0.11767  1.0000 -0.001823348
C   C211      1.0  0.18590  0.68490  0.07897  1.0000 -0.4227421974
C   C212      1.0  0.98370  0.73790  0.73563  1.0000 0.0020037311
C   C213      1.0  0.22920  0.71590  0.83207  1.0000 -0.1349131197
C   C214      1.0  0.29850  0.69930  0.79369  1.0000 -0.1399908319
C   C215      1.0  0.76320  0.60280  0.09781  1.0000 0.5960285634
C   C216      1.0  0.18940  0.92370  0.05194  1.0000 -0.2714095053
C   C217      1.0  0.19270  0.97390  0.04380  1.0000 0.3674914062
C   C218      1.0  0.19620  0.98710  0.01370  1.0000 -0.3323438309
C   C219      1.0  0.19640  0.95020  0.99180  1.0000 0.3498115864
C   C220      1.0  0.19310  0.90000  0.99992  1.0000 -0.2487764865
C   C221      1.0  0.18960  0.88681  0.02999  1.0000 0.138804807
C   C222      1.0  0.78500  0.52370  0.12717  1.0000 -0.1515166781
C   C223      1.0  0.20070  0.61030  0.78984  1.0000 -0.181488638
C   C224      1.0  0.93670  0.90430  0.78371  1.0000 0.5808445782
C   C225      1.0  0.36590  0.64970  0.01963  1.0000 -0.1742655404
C   C226      1.0  0.97700  0.40380  0.28983  1.0000 0.1700129123
C   C227      1.0  0.02713  0.38490  0.30293  1.0000 -0.278091266
C   C228      1.0  0.02560  0.36680  0.33212  1.0000 0.3608764269
C   C229      1.0  0.97410  0.36760  0.34822  1.0000 -0.3754573345
C   C230      1.0  0.92400  0.38650  0.33512  1.0000 0.3395561674
C   C231      1.0  0.92545  0.40460  0.30592  1.0000 -0.278091266
C   C232      1.0  0.15360  0.74080  0.76960  1.0000 -0.4308972562
C   C233      1.0  0.09270  0.75780  0.18290  1.0000 0.5883352653
C   C234      1.0  0.00620  0.63150  0.64777  1.0000 -0.2487764865
C   C235      1.0  0.01140  0.67930  0.65973  1.0000 0.138804807
C   C236      1.0  0.01240  0.72073  0.64086  1.0000 -0.2714095053
C   C237      1.0  0.00820  0.71430  0.61003  1.0000 0.3498115864
C   C238      1.0  0.00310  0.66640  0.59807  1.0000 -0.3205316618
C   C239      1.0  0.00210  0.62500  0.61694  1.0000 0.3608764269
C   C240      1.0  0.98230  0.72560  0.70560  1.0000 -0.181488638
C   C241      1.0  0.07920  0.66190  0.23556  1.0000 0.5883352653
C   C242      1.0  0.98100  0.42550  0.25918  1.0000 -0.0093019183
C   C243      1.0  0.84140  0.35920  0.15862  1.0000 0.0020037311
C   C244      1.0  0.88280  0.76470  0.74654  1.0000 -0.1515166781
C   C245      1.0  0.94170  0.77360  0.74797  1.0000 0.0769835982
C   C246      1.0  0.99140  0.49270  0.17010  1.0000 -0.4227421974
C   C247      1.0  0.13030  0.44210  0.78832  1.0000 0.3309002265
C   C248      1.0  0.18580  0.42222  0.78596  1.0000 -0.3323438309
C   C249      1.0  0.23260  0.45340  0.77983  1.0000 0.3395561674
C   C250      1.0  0.22380  0.50460  0.77605  1.0000 -0.2908133894
C   C251      1.0  0.16830  0.52444  0.77841  1.0000 0.1764274749
C   C252      1.0  0.12160  0.49320  0.78454  1.0000 -0.2617017586
C   C253      1.0  0.52310  0.03880  0.74939  1.0000 -0.1921708092
C   C254      1.0  0.52090  0.76060  0.85846  1.0000 -0.1184895813
C   C255      1.0  0.50670  0.76460  0.88834  1.0000 -0.0093019183
C   C256      1.0  0.54900  0.75250  0.90936  1.0000 -0.1515166781
C   C257      1.0  0.66880  0.94730  0.79056  1.0000 0.0085972652
C   C258      1.0  0.98840  0.89740  0.88925  1.0000 -0.1095904747
C   C259      1.0  0.30300  0.27960  0.84260  1.0000 0.3498115864
C   C260      1.0  0.31740  0.23230  0.83194  1.0000 -0.2714095053
C   C261      1.0  0.33333  0.19470  0.85190  1.0000 0.138804807
C   C262      1.0  0.33470  0.20440  0.88250  1.0000 -0.2617017586
C   C263      1.0  0.32030  0.25170  0.89310  1.0000 0.3785271218
C   C264      1.0  0.30440  0.28930  0.87320  1.0000 -0.3409529768
C   C265      1.0  0.17000  0.98570  0.85628  1.0000 0.0085972652
C   C266      1.0  0.44860  0.78220  0.89769  1.0000 0.5397957579
C   C267      1.0  0.65390  0.90150  0.78187  1.0000 -0.1095904747
C   C268      1.0  0.89820  0.84440  0.04448  1.0000 -0.2714095053
C   C269      1.0  0.84120  0.84020  0.03465  1.0000 0.1700129123
C   C270      1.0  0.79580  0.84550  0.05487  1.0000 -0.2617017586
C   C271      1.0  0.80730  0.85500  0.08490  1.0000 0.3395561674
C   C272      1.0  0.86430  0.85920  0.09473  1.0000 -0.3409529768
C   C273      1.0  0.90970  0.85390  0.07450  1.0000 0.3395561674
C   C274      1.0  0.59670  0.89030  0.77309  1.0000 0.0085972652
C   C275      1.0  0.56970  0.97710  0.78031  1.0000 0.0769835982
C   C276      1.0  0.91220  0.94330  0.85995  1.0000 0.5808445782
C   C277      1.0  0.78160  0.78340  0.96307  1.0000 -0.042046653
C   C278      1.0  0.89790  0.76360  0.20626  1.0000 0.5397957579
C   C279      1.0  0.52590  0.01700  0.77746  1.0000 -0.001823348
C   C280      1.0  0.39400  0.07700  0.81337  1.0000 -0.0504573997
C   C281      1.0  0.41870  0.64510  0.22861  1.0000 -0.0192754503
C   C282      1.0  0.69760  0.83820  0.21108  1.0000 0.0085972652
C   C283      1.0  0.82010  0.80210  0.94163  1.0000 0.1073950907
C   C284      1.0  0.73240  0.74920  0.95531  1.0000 -0.0504573997
C   C285      1.0  0.18770  0.94520  0.87436  1.0000 -0.0999938905
C   C286      1.0  0.55520  0.83570  0.28866  1.0000 0.2062146113
C   C287      1.0  0.52330  0.77850  0.21244  1.0000 -0.4308972562
C   C288      1.0  0.57680  0.74750  0.84989  1.0000 -0.0093019183
C   C289      1.0  0.74190  0.80800  0.19456  1.0000 0.0769835982
C   C290      1.0  0.35460  0.03920  0.82304  1.0000 0.1014628836
C   C291      1.0  0.61820  0.73860  0.87139  1.0000 -0.1515166781
C   C292      1.0  0.90530  0.85890  0.92855  1.0000 0.0769835982
C   C293      1.0  0.77050  0.75710  0.15156  1.0000 -0.042046653
C   C294      1.0  0.35970  0.65760  0.22978  1.0000 -0.1184895813
C   C295      1.0  0.96340  0.84850  0.93236  1.0000 -0.1515166781
C   C296      1.0  0.56180  0.82200  0.25867  1.0000 -0.0504573997
C   C297      1.0  0.92950  0.90910  0.88530  1.0000 0.0085972652
C   C298      1.0  0.60460  0.73970  0.90177  1.0000 0.0739280353
C   C299      1.0  0.00480  0.86640  0.91233  1.0000 0.0182435034
C   C300      1.0  0.73060  0.95860  0.80015  1.0000 0.5302216056
C   C301      1.0  0.06740  0.85010  0.91561  1.0000 0.5302216056
C   C302      1.0  0.64880  0.72730  0.92468  1.0000 0.0182435034
C   C303      1.0  0.44230  0.06460  0.79247  1.0000 -0.0504573997
C   C304      1.0  0.34240  0.70190  0.24147  1.0000 0.0085972652
C   C305      1.0  0.65400  0.81410  0.22787  1.0000 0.1014628836
C   C306      1.0  0.61760  0.89670  0.23925  1.0000 0.1764274749
C   C307      1.0  0.69060  0.76310  0.93370  1.0000 0.1073950907
C   C308      1.0  0.55540  0.92800  0.77323  1.0000 -0.1399908319
C   C309      1.0  0.45900  0.67900  0.23942  1.0000 -0.1399908319
C   C310      1.0  0.10920  0.98570  0.84421  1.0000 0.5397957579
C   C311      1.0  0.20990  0.02010  0.84712  1.0000 -0.1399908319
C   C312      1.0  0.78940  0.79690  0.99288  1.0000 0.1885442909
C   C313      1.0  0.44350  0.08790  0.76435  1.0000 0.2025266223
C   C314      1.0  0.83010  0.83090  0.00199  1.0000 -0.0291298916
C   C315      1.0  0.52410  0.78760  0.24549  1.0000 0.1073950907
C   C316      1.0  0.31200  0.05350  0.84399  1.0000 0.0085972652
C   C317      1.0  0.51550  0.81160  0.30778  1.0000 -0.0093019183
C   C318      1.0  0.88840  0.88860  0.90504  1.0000 -0.1561676964
C   C319      1.0  0.72840  0.70210  0.96892  1.0000 0.2025266223
C   C320      1.0  0.38370  0.12650  0.82052  1.0000 0.1885442909
C   C321      1.0  0.68890  0.66600  0.95977  1.0000 -0.0192754503
C   C322      1.0  0.86160  0.83620  0.95068  1.0000 0.0020037311
C   C323      1.0  0.82710  0.75410  0.16407  1.0000 -0.0949126735
C   C324      1.0  0.81910  0.78280  0.90937  1.0000 -0.4227421974
C   C325      1.0  0.28000  0.71750  0.24100  1.0000 0.5302216056
C   C326      1.0  0.66050  0.91910  0.22483  1.0000 -0.0291298916
C   C327      1.0  0.26890  0.01520  0.85523  1.0000 0.0769835982
C   C328      1.0  0.48670  0.03050  0.79957  1.0000 0.1014628836
C   C329      1.0  0.62620  0.98680  0.79000  1.0000 -0.1515166781
C   C330      1.0  0.35890  0.98740  0.81170  1.0000 -0.4368378197
C   C331      1.0  0.83920  0.77410  0.19177  1.0000 0.0020037311
C   C332      1.0  0.75630  0.73470  0.12294  1.0000 0.5808445782
C   C333      1.0  0.30620  0.10270  0.85275  1.0000 -0.181488638
C   C334      1.0  0.61150  0.84410  0.24191  1.0000 -0.0192754503
C   C335      1.0  0.64970  0.67950  0.93687  1.0000 -0.181488638
C   C336      1.0  0.24450  0.94020  0.88233  1.0000 -0.001823348
C   C337      1.0  0.68590  0.81510  0.92103  1.0000 -0.4227421974
C   C338      1.0  0.48370  0.76210  0.26437  1.0000 0.0020037311
C   C339      1.0  0.72920  0.78410  0.16793  1.0000 -0.1349131197
C   C340      1.0  0.79850  0.80070  0.20631  1.0000 -0.1399908319
C   C341      1.0  0.26320  0.89720  0.90219  1.0000 0.5960285634
C   C342      1.0  0.68940  0.57630  0.94806  1.0000 -0.2714095053
C   C343      1.0  0.69270  0.52610  0.95620  1.0000 0.3608764269
C   C344      1.0  0.69620  0.51290  0.98630  1.0000 -0.3323438309
C   C345      1.0  0.69640  0.54980  0.00820  1.0000 0.3498115864
C   C346      1.0  0.69310  0.60000  0.00008  1.0000 -0.2487764865
C   C347      1.0  0.68960  0.61319  0.97001  1.0000 0.138804807
C   C348      1.0  0.28500  0.97630  0.87283  1.0000 -0.1515166781
C   C349      1.0  0.70070  0.88970  0.21016  1.0000 -0.181488638
C   C350      1.0  0.43670  0.59570  0.21629  1.0000 0.5808445782
C   C351      1.0  0.86590  0.85030  0.98037  1.0000 -0.1742655404
C   C352      1.0  0.47700  0.09620  0.71017  1.0000 0.1700129123
C   C353      1.0  0.52713  0.11510  0.69707  1.0000 -0.278091266
C   C354      1.0  0.52560  0.13320  0.66788  1.0000 0.3608764269
C   C355      1.0  0.47410  0.13240  0.65178  1.0000 -0.3754573345
C   C356      1.0  0.42400  0.11350  0.66488  1.0000 0.3395561674
C   C357      1.0  0.42545  0.09540  0.69408  1.0000 -0.278091266
C   C358      1.0  0.65360  0.75920  0.23040  1.0000 -0.4308972562
C   C359      1.0  0.59270  0.74220  0.81710  1.0000 0.5883352653
C   C360      1.0  0.50620  0.86850  0.35223  1.0000 -0.2487764865
C   C361      1.0  0.51140  0.82070  0.34027  1.0000 0.1294169238
C   C362      1.0  0.51240  0.77927  0.35914  1.0000 -0.2617017586
C   C363      1.0  0.50820  0.78570  0.38997  1.0000 0.3498115864
C   C364      1.0  0.50310  0.83360  0.40193  1.0000 -0.3205316618
C   C365      1.0  0.50210  0.87500  0.38306  1.0000 0.3608764269
C   C366      1.0  0.48230  0.77440  0.29440  1.0000 -0.181488638
C   C367      1.0  0.57920  0.83810  0.76444  1.0000 0.5883352653
C   C368      1.0  0.48100  0.07450  0.74082  1.0000 -0.0093019183
C   C369      1.0  0.34140  0.14080  0.84138  1.0000 0.0020037311
C   C370      1.0  0.38280  0.73530  0.25346  1.0000 -0.1515166781
C   C371      1.0  0.44170  0.72640  0.25203  1.0000 0.0769835982
C   C372      1.0  0.49140  0.00730  0.82990  1.0000 -0.4227421974
C   C373      1.0  0.63030  0.05790  0.21168  1.0000 0.3309002265
C   C374      1.0  0.68580  0.07778  0.21404  1.0000 -0.3323438309
C   C375      1.0  0.73260  0.04660  0.22017  1.0000 0.3395561674
C   C376      1.0  0.72380  0.99540  0.22395  1.0000 -0.2908133894
C   C377      1.0  0.66830  0.97556  0.22159  1.0000 0.1764274749
C   C378      1.0  0.62160  0.00680  0.21546  1.0000 -0.2617017586
C   C379      1.0  0.97690  0.96120  0.24939  1.0000 -0.1921708092
C   C380      1.0  0.97910  0.23940  0.35846  1.0000 -0.1184895813
C   C381      1.0  0.99330  0.23540  0.38834  1.0000 -0.0093019183
C   C382      1.0  0.95100  0.24750  0.40936  1.0000 -0.1515166781
C   C383      1.0  0.83120  0.05270  0.29056  1.0000 0.0085972652
C   C384      1.0  0.51160  0.10260  0.38925  1.0000 -0.1095904747
C   C385      1.0  0.19700  0.72040  0.34260  1.0000 0.3498115864
C   C386      1.0  0.18260  0.76770  0.33194  1.0000 -0.2714095053
C   C387      1.0  0.16667  0.80530  0.35190  1.0000 0.138804807
C   C388      1.0  0.16530  0.79560  0.38250  1.0000 -0.2617017586
C   C389      1.0  0.17970  0.74830  0.39310  1.0000 0.386017111
C   C390      1.0  0.19560  0.71070  0.37320  1.0000 -0.3409529768
C   C391      1.0  0.33000  0.01430  0.35628  1.0000 0.0085972652
C   C392      1.0  0.05140  0.21780  0.39769  1.0000 0.5397957579
C   C393      1.0  0.84610  0.09850  0.28187  1.0000 -0.1095904747
C   C394      1.0  0.60180  0.15560  0.54448  1.0000 -0.2714095053
C   C395      1.0  0.65880  0.15980  0.53465  1.0000 0.1700129123
C   C396      1.0  0.70420  0.15450  0.55487  1.0000 -0.2617017586
C   C397      1.0  0.69270  0.14500  0.58490  1.0000 0.3395561674
C   C398      1.0  0.63570  0.14080  0.59473  1.0000 -0.3409529768
C   C399      1.0  0.59030  0.14610  0.57450  1.0000 0.3395561674
C   C400      1.0  0.90330  0.10970  0.27309  1.0000 0.0085972652
C   C401      1.0  0.93030  0.02290  0.28031  1.0000 0.0769835982
C   C402      1.0  0.58780  0.05670  0.35995  1.0000 0.5808445782
C   C403      1.0  0.71840  0.21660  0.46307  1.0000 -0.042046653
C   C404      1.0  0.60210  0.23640  0.70626  1.0000 0.5397957579
C   C405      1.0  0.97410  0.98300  0.27746  1.0000 -0.001823348
C   C406      1.0  0.10600  0.92300  0.31337  1.0000 -0.0504573997
C   C407      1.0  0.08130  0.35490  0.72861  1.0000 -0.0192754503
C   C408      1.0  0.80240  0.16180  0.71108  1.0000 0.0085972652
C   C409      1.0  0.67990  0.19790  0.44163  1.0000 0.1073950907
C   C410      1.0  0.76760  0.25080  0.45531  1.0000 -0.0504573997
C   C411      1.0  0.31230  0.05480  0.37436  1.0000 -0.0999938905
C   C412      1.0  0.94480  0.16430  0.78866  1.0000 0.2062146113
C   C413      1.0  0.97670  0.22150  0.71244  1.0000 -0.4308972562
C   C414      1.0  0.92320  0.25250  0.34989  1.0000 -0.0093019183
C   C415      1.0  0.75810  0.19200  0.69456  1.0000 0.0769835982
C   C416      1.0  0.14540  0.96080  0.32304  1.0000 0.1073950907
C   C417      1.0  0.88180  0.26140  0.37139  1.0000 -0.1515166781
C   C418      1.0  0.59470  0.14110  0.42855  1.0000 0.0769835982
C   C419      1.0  0.72950  0.24290  0.65156  1.0000 -0.042046653
C   C420      1.0  0.14030  0.34240  0.72978  1.0000 -0.1184895813
C   C421      1.0  0.53660  0.15150  0.43236  1.0000 -0.1515166781
C   C422      1.0  0.93820  0.17800  0.75867  1.0000 -0.0504573997
C   C423      1.0  0.57050  0.09090  0.38530  1.0000 0.0085972652
C   C424      1.0  0.89540  0.26030  0.40177  1.0000 0.0739280353
C   C425      1.0  0.49520  0.13360  0.41233  1.0000 0.0182435034
C   C426      1.0  0.76940  0.04140  0.30015  1.0000 0.5302216056
C   C427      1.0  0.43260  0.14990  0.41561  1.0000 0.5397957579
C   C428      1.0  0.85120  0.27270  0.42468  1.0000 0.0182435034
C   C429      1.0  0.05770  0.93540  0.29247  1.0000 -0.0504573997
C   C430      1.0  0.15760  0.29810  0.74147  1.0000 0.0085972652
C   C431      1.0  0.84600  0.18590  0.72787  1.0000 0.1014628836
C   C432      1.0  0.88240  0.10330  0.73925  1.0000 0.1764274749
C   C433      1.0  0.80940  0.23690  0.43370  1.0000 0.1073950907
C   C434      1.0  0.94460  0.07200  0.27323  1.0000 -0.1515166781
C   C435      1.0  0.04100  0.32100  0.73942  1.0000 -0.1399908319
C   C436      1.0  0.39080  0.01430  0.34421  1.0000 0.5397957579
C   C437      1.0  0.29010  0.97990  0.34712  1.0000 -0.1399908319
C   C438      1.0  0.71060  0.20310  0.49288  1.0000 0.1885442909
C   C439      1.0  0.05650  0.91210  0.26435  1.0000 0.2025266223
C   C440      1.0  0.66990  0.16910  0.50199  1.0000 -0.0291298916
C   C441      1.0  0.97590  0.21240  0.74549  1.0000 0.1073950907
C   C442      1.0  0.18800  0.94650  0.34399  1.0000 0.0085972652
C   C443      1.0  0.98450  0.18840  0.80778  1.0000 -0.0093019183
C   C444      1.0  0.61160  0.11140  0.40504  1.0000 -0.1561676964
C   C445      1.0  0.77160  0.29790  0.46892  1.0000 0.2025266223
C   C446      1.0  0.11630  0.87350  0.32052  1.0000 0.1885442909
C   C447      1.0  0.81110  0.33400  0.45977  1.0000 -0.0192754503
C   C448      1.0  0.63840  0.16380  0.45068  1.0000 0.0020037311
C   C449      1.0  0.67290  0.24590  0.66407  1.0000 -0.0949126735
C   C450      1.0  0.68090  0.21720  0.40937  1.0000 -0.4227421974
C   C451      1.0  0.22000  0.28250  0.74100  1.0000 0.5302216056
C   C452      1.0  0.83950  0.08090  0.72483  1.0000 -0.042046653
C   C453      1.0  0.23110  0.98480  0.35523  1.0000 0.0769835982
C   C454      1.0  0.01330  0.96950  0.29957  1.0000 0.1014628836
C   C455      1.0  0.87380  0.01320  0.29000  1.0000 -0.1515166781
C   C456      1.0  0.14110  0.01260  0.31170  1.0000 -0.4368378197
C   C457      1.0  0.66080  0.22590  0.69177  1.0000 0.0020037311
C   C458      1.0  0.74370  0.26530  0.62294  1.0000 0.5808445782
C   C459      1.0  0.19380  0.89730  0.35275  1.0000 -0.181488638
C   C460      1.0  0.88850  0.15590  0.74191  1.0000 -0.0291298916
C   C461      1.0  0.85030  0.32050  0.43687  1.0000 -0.181488638
C   C462      1.0  0.25550  0.05980  0.38233  1.0000 -0.001823348
C   C463      1.0  0.81410  0.18490  0.42103  1.0000 -0.4227421974
C   C464      1.0  0.01630  0.23790  0.76437  1.0000 0.0020037311
C   C465      1.0  0.77080  0.21590  0.66793  1.0000 -0.1349131197
C   C466      1.0  0.70150  0.19930  0.70631  1.0000 -0.1399908319
C   C467      1.0  0.23680  0.10280  0.40219  1.0000 0.5960285634
C   C468      1.0  0.81060  0.42370  0.44806  1.0000 -0.2714095053
C   C469      1.0  0.80730  0.47390  0.45620  1.0000 0.3608764269
C   C470      1.0  0.80380  0.48710  0.48630  1.0000 -0.3323438309
C   C471      1.0  0.80360  0.45020  0.50820  1.0000 0.3498115864
C   C472      1.0  0.80690  0.40000  0.50008  1.0000 -0.2487764865
C   C473      1.0  0.81040  0.38681  0.47001  1.0000 0.138804807
C   C474      1.0  0.21500  0.02370  0.37283  1.0000 -0.1515166781
C   C475      1.0  0.79930  0.11030  0.71016  1.0000 -0.181488638
C   C476      1.0  0.06330  0.40430  0.71629  1.0000 0.5808445782
C   C477      1.0  0.63410  0.14970  0.48037  1.0000 -0.1742655404
C   C478      1.0  0.02300  0.90380  0.21017  1.0000 0.1700129123
C   C479      1.0  0.97287  0.88490  0.19707  1.0000 -0.278091266
C   C480      1.0  0.97440  0.86680  0.16788  1.0000 0.3608764269
C   C481      1.0  0.02590  0.86760  0.15178  1.0000 -0.3754573345
C   C482      1.0  0.07600  0.88650  0.16488  1.0000 0.3498115864
C   C483      1.0  0.07455  0.90460  0.19408  1.0000 -0.278091266
C   C484      1.0  0.84640  0.24080  0.73040  1.0000 -0.4308972562
C   C485      1.0  0.90730  0.25780  0.31710  1.0000 0.5883352653
C   C486      1.0  0.99380  0.13150  0.85223  1.0000 -0.2487764865
C   C487      1.0  0.98860  0.17930  0.84027  1.0000 0.138804807
C   C488      1.0  0.98760  0.22073  0.85914  1.0000 -0.2617017586
C   C489      1.0  0.99180  0.21430  0.88997  1.0000 0.3498115864
C   C490      1.0  0.99690  0.16640  0.90193  1.0000 -0.3205316618
C   C491      1.0  0.99790  0.12500  0.88306  1.0000 0.3498115864
C   C492      1.0  0.01770  0.22560  0.79440  1.0000 -0.181488638
C   C493      1.0  0.92080  0.16190  0.26444  1.0000 0.5883352653
C   C494      1.0  0.01900  0.92550  0.24082  1.0000 -0.0093019183
C   C495      1.0  0.15860  0.85920  0.34138  1.0000 0.0020037311
C   C496      1.0  0.11720  0.26470  0.75346  1.0000 -0.1515166781
C   C497      1.0  0.05830  0.27360  0.75203  1.0000 0.0769835982
C   C498      1.0  0.00860  0.99270  0.32990  1.0000 -0.4227421974
C   C499      1.0  0.86970  0.94210  0.71168  1.0000 0.3309002265
C   C500      1.0  0.81420  0.92222  0.71404  1.0000 -0.3323438309
C   C501      1.0  0.76740  0.95340  0.72017  1.0000 0.3395561674
C   C502      1.0  0.77620  0.00460  0.72395  1.0000 -0.2908133894
C   C503      1.0  0.83170  0.02444  0.72159  1.0000 0.1764274749
C   C504      1.0  0.87840  0.99320  0.71546  1.0000 -0.2617017586
O   O1        1.0  0.38130  0.31015  0.74593  1.0000 -0.5562458813
O   O2        1.0  0.35616  0.24810  0.68993  1.0000 -0.5302147895
O   O3        1.0  0.20450  0.22630  0.39535  1.0000 -0.5483342339
O   O4        1.0  0.91325  0.34020  0.55850  1.0000 -0.5302147895
O   O5        1.0  0.05132  0.46954  0.65166  1.0000 -0.5017489076
O   O6        1.0  0.59816  0.62422  0.74179  1.0000 -0.4368378197
O   O7        1.0  0.90185  0.34884  0.60668  1.0000 -0.4798283085
O   O8        1.0  0.14114  0.44182  0.64779  1.0000 -0.5401494868
O   O9        1.0  0.57080  0.26889  0.57701  1.0000 -0.5483342339
O   O10       1.0  0.18345  0.20896  0.46125  1.0000 -0.75307976
O   O11       1.0  0.42423  0.42478  0.24485  1.0000 -0.4368378197
O   O12       1.0  0.58045  0.66484  0.69184  1.0000 -0.4227421974
O   O13       1.0  0.36267  0.45413  0.20105  1.0000 -0.7418883994
O   O14       1.0  0.64231  0.70579  0.73170  1.0000 -0.7607576653
O   O15       1.0  0.23186  0.19061  0.50867  1.0000 -0.4227421974
O   O16       1.0  0.40902  0.37299  0.19951  1.0000 -0.4227421974
O   O17       1.0  0.29458  0.20380  0.46256  1.0000 -0.7607576653
O   O18       1.0  0.51138  0.09111  0.29353  1.0000 -0.5401494868
O   O19       1.0  0.24739  0.27528  0.48575  1.0000 -0.4368378197
O   O20       1.0  0.47323  0.45078  0.19882  1.0000 -0.774305585
O   O21       1.0  0.91669  0.44522  0.66059  1.0000 -0.5133694223
O   O22       1.0  0.77515  0.37522  0.58358  1.0000 -0.5302147895
O   O23       1.0  0.68432  0.38596  0.59780  1.0000 -0.5302147895
O   O24       1.0  0.53093  0.69946  0.73482  1.0000 -0.7418883994
O   O25       1.0  0.25720  0.49981  0.68755  1.0000 -0.5017489076
O   O26       1.0  0.59922  0.06115  0.28497  1.0000 -0.5703606188
O   O27       1.0  0.57897  0.31220  0.61820  1.0000 -0.5133694223
O   O28       1.0  0.47185  0.32677  0.73354  1.0000 -0.5160041481
O   O29       1.0  0.07451  0.22660  0.30073  1.0000 -0.489372234
O   O30       1.0  0.23295  0.42802  0.70315  1.0000 -0.4567670043
O   O31       1.0  0.08542  0.29380  0.27401  1.0000 -0.5483342339
O   O32       1.0  0.91360  0.52770  0.66247  1.0000 -0.5401494868
O   O33       1.0  0.29574  0.22300  0.38133  1.0000 -0.5401494868
O   O34       1.0  0.44643  0.23130  0.70129  1.0000 -0.5703606188
O   O35       1.0  0.75174  0.19894  0.27886  1.0000 -0.489372234
O   O36       1.0  0.73840  0.24710  0.24160  1.0000 -0.448397699
O   O37       1.0  0.11870  0.68985  0.24593  1.0000 -0.5562458813
O   O38       1.0  0.14384  0.75190  0.18993  1.0000 -0.5302147895
O   O39       1.0  0.29550  0.77370  0.89535  1.0000 -0.5483342339
O   O40       1.0  0.58675  0.65980  0.05850  1.0000 -0.5302147895
O   O41       1.0  0.44868  0.53046  0.15166  1.0000 -0.5017489076
O   O42       1.0  0.90184  0.37578  0.24179  1.0000 -0.4368378197
O   O43       1.0  0.59815  0.65116  0.10668  1.0000 -0.4798283085
O   O44       1.0  0.35886  0.55818  0.14779  1.0000 -0.5401494868
O   O45       1.0  0.92920  0.73111  0.07701  1.0000 -0.5483342339
O   O46       1.0  0.31655  0.79104  0.96125  1.0000 -0.75307976
O   O47       1.0  0.07577  0.57522  0.74485  1.0000 -0.448397699
O   O48       1.0  0.91955  0.33516  0.19184  1.0000 -0.4227421974
O   O49       1.0  0.13733  0.54587  0.70105  1.0000 -0.7418883994
O   O50       1.0  0.85769  0.29421  0.23170  1.0000 -0.7607576653
O   O51       1.0  0.26814  0.80939  0.00867  1.0000 -0.4227421974
O   O52       1.0  0.09098  0.62701  0.69951  1.0000 -0.4227421974
O   O53       1.0  0.20542  0.79620  0.96256  1.0000 -0.7607576653
O   O54       1.0  0.98862  0.90889  0.79353  1.0000 -0.5401494868
O   O55       1.0  0.25261  0.72472  0.98575  1.0000 -0.4368378197
O   O56       1.0  0.02677  0.54922  0.69882  1.0000 -0.774305585
O   O57       1.0  0.58331  0.55478  0.16059  1.0000 -0.5133694223
O   O58       1.0  0.72485  0.62478  0.08358  1.0000 -0.5302147895
O   O59       1.0  0.81568  0.61404  0.09780  1.0000 -0.5302147895
O   O60       1.0  0.96907  0.30054  0.23482  1.0000 -0.7418883994
O   O61       1.0  0.24280  0.50019  0.18755  1.0000 -0.5017489076
O   O62       1.0  0.90078  0.93885  0.78497  1.0000 -0.5703606188
O   O63       1.0  0.92103  0.68780  0.11820  1.0000 -0.5133694223
O   O64       1.0  0.02815  0.67323  0.23354  1.0000 -0.5133694223
O   O65       1.0  0.42549  0.77340  0.80073  1.0000 -0.489372234
O   O66       1.0  0.26705  0.57198  0.20315  1.0000 -0.4567670043
O   O67       1.0  0.41458  0.70620  0.77401  1.0000 -0.5483342339
O   O68       1.0  0.58640  0.47230  0.16247  1.0000 -0.5401494868
O   O69       1.0  0.20426  0.77700  0.88133  1.0000 -0.5401494868
O   O70       1.0  0.05357  0.76870  0.20129  1.0000 -0.5703606188
O   O71       1.0  0.74826  0.80106  0.77886  1.0000 -0.489372234
O   O72       1.0  0.76160  0.75290  0.74160  1.0000 -0.4567670043
O   O73       1.0  0.61870  0.81015  0.75407  1.0000 -0.5562458813
O   O74       1.0  0.64384  0.74810  0.81007  1.0000 -0.5302147895
O   O75       1.0  0.79550  0.72630  0.10465  1.0000 -0.5483342339
O   O76       1.0  0.08675  0.84020  0.94150  1.0000 -0.5302147895
O   O77       1.0  0.94868  0.96954  0.84834  1.0000 -0.5017489076
O   O78       1.0  0.40184  0.12422  0.75821  1.0000 -0.4368378197
O   O79       1.0  0.09815  0.84884  0.89332  1.0000 -0.4798283085
O   O80       1.0  0.85886  0.94182  0.85221  1.0000 -0.5401494868
O   O81       1.0  0.42920  0.76889  0.92299  1.0000 -0.5483342339
O   O82       1.0  0.81655  0.70896  0.03875  1.0000 -0.75307976
O   O83       1.0  0.57577  0.92478  0.25515  1.0000 -0.4368378197
O   O84       1.0  0.41955  0.16484  0.80816  1.0000 -0.4227421974
O   O85       1.0  0.63733  0.95413  0.29895  1.0000 -0.7418883994
O   O86       1.0  0.35769  0.20579  0.76830  1.0000 -0.7607576653
O   O87       1.0  0.76814  0.69061  0.99133  1.0000 -0.4227421974
O   O88       1.0  0.59098  0.87299  0.30049  1.0000 -0.4227421974
O   O89       1.0  0.70542  0.70380  0.03744  1.0000 -0.7607576653
O   O90       1.0  0.48862  0.59111  0.20647  1.0000 -0.5401494868
O   O91       1.0  0.75261  0.77528  0.01425  1.0000 -0.4308972562
O   O92       1.0  0.52677  0.95078  0.30118  1.0000 -0.774305585
O   O93       1.0  0.08331  0.94522  0.83941  1.0000 -0.5133694223
O   O94       1.0  0.22485  0.87522  0.91642  1.0000 -0.5302147895
O   O95       1.0  0.31568  0.88596  0.90220  1.0000 -0.5302147895
O   O96       1.0  0.46907  0.19946  0.76518  1.0000 -0.7418883994
O   O97       1.0  0.74280  0.99981  0.81245  1.0000 -0.5017489076
O   O98       1.0  0.40078  0.56115  0.21503  1.0000 -0.5703606188
O   O99       1.0  0.42103  0.81220  0.88180  1.0000 -0.5133694223
O   O100      1.0  0.52815  0.82677  0.76646  1.0000 -0.5133694223
O   O101      1.0  0.92549  0.72660  0.19927  1.0000 -0.489372234
O   O102      1.0  0.76705  0.92802  0.79685  1.0000 -0.4567670043
O   O103      1.0  0.91458  0.79380  0.22599  1.0000 -0.5483342339
O   O104      1.0  0.08640  0.02770  0.83753  1.0000 -0.5401494868
O   O105      1.0  0.70426  0.72300  0.11867  1.0000 -0.5401494868
O   O106      1.0  0.55357  0.73130  0.79871  1.0000 -0.5703606188
O   O107      1.0  0.24826  0.69894  0.22114  1.0000 -0.489372234
O   O108      1.0  0.26160  0.74710  0.25840  1.0000 -0.4567670043
O   O109      1.0  0.88130  0.18985  0.25407  1.0000 -0.5562458813
O   O110      1.0  0.85616  0.25190  0.31007  1.0000 -0.5302147895
O   O111      1.0  0.70450  0.27370  0.60465  1.0000 -0.5483342339
O   O112      1.0  0.41325  0.15980  0.44150  1.0000 -0.5302147895
O   O113      1.0  0.55132  0.03046  0.34834  1.0000 -0.5017489076
O   O114      1.0  0.09816  0.87578  0.25821  1.0000 -0.4368378197
O   O115      1.0  0.40185  0.15116  0.39332  1.0000 -0.4798283085
O   O116      1.0  0.64114  0.05818  0.35221  1.0000 -0.5401494868
O   O117      1.0  0.07080  0.23111  0.42299  1.0000 -0.5483342339
O   O118      1.0  0.68345  0.29104  0.53875  1.0000 -0.75307976
O   O119      1.0  0.92423  0.07522  0.75515  1.0000 -0.448397699
O   O120      1.0  0.08045  0.83516  0.30816  1.0000 -0.4227421974
O   O121      1.0  0.86267  0.04587  0.79895  1.0000 -0.7418883994
O   O122      1.0  0.14231  0.79421  0.26830  1.0000 -0.7607576653
O   O123      1.0  0.73186  0.30939  0.49133  1.0000 -0.4227421974
O   O124      1.0  0.90902  0.12701  0.80049  1.0000 -0.4227421974
O   O125      1.0  0.79458  0.29620  0.53744  1.0000 -0.7607576653
O   O126      1.0  0.01138  0.40889  0.70647  1.0000 -0.5401494868
O   O127      1.0  0.74739  0.22472  0.51425  1.0000 -0.4308972562
O   O128      1.0  0.97323  0.04922  0.80118  1.0000 -0.774305585
O   O129      1.0  0.41669  0.05478  0.33941  1.0000 -0.5133694223
O   O130      1.0  0.27515  0.12478  0.41642  1.0000 -0.5302147895
O   O131      1.0  0.18432  0.11404  0.40220  1.0000 -0.5302147895
O   O132      1.0  0.03093  0.80054  0.26518  1.0000 -0.7418883994
O   O133      1.0  0.75720  0.00019  0.31245  1.0000 -0.5017489076
O   O134      1.0  0.09922  0.43885  0.71503  1.0000 -0.5703606188
O   O135      1.0  0.07897  0.18780  0.38180  1.0000 -0.5133694223
O   O136      1.0  0.97185  0.17323  0.26646  1.0000 -0.5133694223
O   O137      1.0  0.57451  0.27340  0.69927  1.0000 -0.489372234
O   O138      1.0  0.73295  0.07198  0.29685  1.0000 -0.4567670043
O   O139      1.0  0.58542  0.20620  0.72599  1.0000 -0.5483342339
O   O140      1.0  0.41360  0.97230  0.33753  1.0000 -0.5401494868
O   O141      1.0  0.79574  0.27700  0.61867  1.0000 -0.5401494868
O   O142      1.0  0.94643  0.26870  0.29871  1.0000 -0.5703606188
O   O143      1.0  0.25174  0.30106  0.72114  1.0000 -0.489372234
O   O144      1.0  0.23840  0.25290  0.75840  1.0000 -0.4567670043
F   F1        1.0  0.50370  0.41870  0.10573  1.0000 -0.1399908319
F   F2        1.0  0.49480  0.24440  0.09260  1.0000 -0.2180932492
F   F3        1.0  0.31450  0.98930  0.56300  1.0000 -0.2313547536
F   F4        1.0  0.30430  0.03690  0.46330  1.0000 -0.1349131197
F   F5        1.0  0.43010  0.65380  0.84480  1.0000 -0.1349131197
F   F6        1.0  0.67760  0.76250  0.57900  1.0000 -0.2487764865
F   F7        1.0  0.71110  0.81640  0.67480  1.0000 -0.1399908319
F   F8        1.0  0.62420  0.61290  0.85109  1.0000 -0.1561676964
F   F9        1.0  0.21340  0.56480  0.27837  1.0000 -0.1399908319
F   F10       1.0  0.41650  0.58710  0.29480  1.0000 -0.1515166781
F   F11       1.0  0.24040  0.35980  0.39700  1.0000 -0.1515166781
F   F12       1.0  0.03420  0.35960  0.41690  1.0000 -0.1515166781
F   F13       1.0  0.99630  0.58130  0.60573  1.0000 -0.1399908319
F   F14       1.0  0.00520  0.75560  0.59260  1.0000 -0.2180932492
F   F15       1.0  0.18550  0.01070  0.06300  1.0000 -0.2313547536
F   F16       1.0  0.19570  0.96310  0.96330  1.0000 -0.1399908319
F   F17       1.0  0.06990  0.34620  0.34480  1.0000 -0.1349131197
F   F18       1.0  0.82240  0.23750  0.07900  1.0000 -0.2617017586
F   F19       1.0  0.78890  0.18360  0.17480  1.0000 -0.1399908319
F   F20       1.0  0.87580  0.38710  0.35109  1.0000 -0.1561676964
F   F21       1.0  0.28660  0.43520  0.77837  1.0000 -0.1399908319
F   F22       1.0  0.08350  0.41290  0.79480  1.0000 -0.1515166781
F   F23       1.0  0.25960  0.64020  0.89700  1.0000 -0.1515166781
F   F24       1.0  0.46580  0.64040  0.91690  1.0000 -0.1515166781
F   F25       1.0  0.49630  0.91870  0.39427  1.0000 -0.1399908319
F   F26       1.0  0.50520  0.74440  0.40740  1.0000 -0.2180932492
F   F27       1.0  0.68550  0.48930  0.93700  1.0000 -0.2313547536
F   F28       1.0  0.69570  0.53690  0.03670  1.0000 -0.1349131197
F   F29       1.0  0.56990  0.15380  0.65520  1.0000 -0.1349131197
F   F30       1.0  0.32240  0.26250  0.92100  1.0000 -0.2487764865
F   F31       1.0  0.28890  0.31640  0.82520  1.0000 -0.1399908319
F   F32       1.0  0.37580  0.11290  0.64891  1.0000 -0.1561676964
F   F33       1.0  0.78660  0.06480  0.22163  1.0000 -0.1399908319
F   F34       1.0  0.58350  0.08710  0.20520  1.0000 -0.1515166781
F   F35       1.0  0.75960  0.85980  0.10300  1.0000 -0.1515166781
F   F36       1.0  0.96580  0.85960  0.08310  1.0000 -0.1515166781
F   F37       1.0  0.00370  0.08130  0.89427  1.0000 -0.1399908319
F   F38       1.0  0.99480  0.25560  0.90740  1.0000 -0.2180932492
F   F39       1.0  0.81450  0.51070  0.43700  1.0000 -0.2313547536
F   F40       1.0  0.80430  0.46310  0.53670  1.0000 -0.1349131197
F   F41       1.0  0.93010  0.84620  0.15520  1.0000 -0.1349131197
F   F42       1.0  0.17760  0.73750  0.42100  1.0000 -0.2617017586
F   F43       1.0  0.21110  0.68360  0.32520  1.0000 -0.1399908319
F   F44       1.0  0.12420  0.88710  0.14891  1.0000 -0.1561676964
F   F45       1.0  0.71340  0.93520  0.72163  1.0000 -0.1399908319
F   F46       1.0  0.91650  0.91290  0.70520  1.0000 -0.1515166781
F   F47       1.0  0.74040  0.14020  0.60300  1.0000 -0.1515166781
F   F48       1.0  0.53420  0.14040  0.58310  1.0000 -0.1515166781
