# DDEC6 charges by PACMAN v1.1 (https://github.com/mtap-research/PACMAN-charge/)
data_0000[La][srs]3[ASR]1
_chemical_formula_sum              "La8 H312 C192 N48 O96"
_cell_length_a       14.5779
_cell_length_b       14.5779
_cell_length_c       36.7061
_cell_angle_alpha    90
_cell_angle_beta     90
_cell_angle_gamma    90

_symmetry_space_group_name_H-M    "P 1"
_symmetry_Int_Tables_number       1

loop_
  _symmetry_equiv_pos_as_xyz
  'x, y, z'

loop_
  _atom_site_type_symbol
  _atom_site_label
  _atom_site_symmetry_multiplicity
  _atom_site_fract_x
  _atom_site_fract_y
  _atom_site_fract_z
  _atom_site_occupancy
  _atom_site_charge
La  La1       1.0  0.86187  0.26106  0.90576  1.0000 1.7282372702
La  La2       1.0  0.13813  0.73894  0.40576  1.0000 1.7247613061
La  La3       1.0  0.23894  0.36187  0.65576  1.0000 1.7282372702
La  La4       1.0  0.76106  0.63813  0.15576  1.0000 1.7247613061
La  La5       1.0  0.63813  0.76106  0.84424  1.0000 1.7247613061
La  La6       1.0  0.36187  0.23894  0.34424  1.0000 1.7282372702
La  La7       1.0  0.26106  0.86187  0.09424  1.0000 1.7282372702
La  La8       1.0  0.73894  0.13813  0.59424  1.0000 1.7247613061
H   H1        1.0  0.68760  0.33680  0.84320  1.0000 0.165509491
H   H2        1.0  0.31240  0.66320  0.34320  1.0000 0.165509491
H   H3        1.0  0.16320  0.18760  0.59320  1.0000 0.165509491
H   H4        1.0  0.83680  0.81240  0.09320  1.0000 0.165509491
H   H5        1.0  0.81240  0.83680  0.90680  1.0000 0.165509491
H   H6        1.0  0.18760  0.16320  0.40680  1.0000 0.165509491
H   H7        1.0  0.33680  0.68760  0.15680  1.0000 0.165509491
H   H8        1.0  0.66320  0.31240  0.65680  1.0000 0.165509491
H   H9        1.0  0.65870  0.30710  0.80380  1.0000 0.1514323434
H   H10       1.0  0.34130  0.69290  0.30380  1.0000 0.1514323434
H   H11       1.0  0.19290  0.15870  0.55380  1.0000 0.1514323434
H   H12       1.0  0.80710  0.84130  0.05380  1.0000 0.1514323434
H   H13       1.0  0.84130  0.80710  0.94620  1.0000 0.1514323434
H   H14       1.0  0.15870  0.19290  0.44620  1.0000 0.1514323434
H   H15       1.0  0.30710  0.65870  0.19620  1.0000 0.1514323434
H   H16       1.0  0.69290  0.34130  0.69620  1.0000 0.1514323434
H   H17       1.0  0.70140  0.40440  0.81040  1.0000 0.1514323434
H   H18       1.0  0.29860  0.59560  0.31040  1.0000 0.1514323434
H   H19       1.0  0.09560  0.20140  0.56040  1.0000 0.1514323434
H   H20       1.0  0.90440  0.79860  0.06040  1.0000 0.1514323434
H   H21       1.0  0.79860  0.90440  0.93960  1.0000 0.1514323434
H   H22       1.0  0.20140  0.09560  0.43960  1.0000 0.1514323434
H   H23       1.0  0.40440  0.70140  0.18960  1.0000 0.1514323434
H   H24       1.0  0.59560  0.29860  0.68960  1.0000 0.1514323434
H   H25       1.0  0.79490  0.33100  0.75820  1.0000 0.1514323434
H   H26       1.0  0.20510  0.66900  0.25820  1.0000 0.1514323434
H   H27       1.0  0.16900  0.29490  0.50820  1.0000 0.1514323434
H   H28       1.0  0.83100  0.70510  0.00820  1.0000 0.1514323434
H   H29       1.0  0.70510  0.83100  0.99180  1.0000 0.1514323434
H   H30       1.0  0.29490  0.16900  0.49180  1.0000 0.1514323434
H   H31       1.0  0.33100  0.79490  0.24180  1.0000 0.1514323434
H   H32       1.0  0.66900  0.20510  0.74180  1.0000 0.1514323434
H   H33       1.0  0.99650  0.23600  0.72130  1.0000 0.1514323434
H   H34       1.0  0.00350  0.76400  0.22130  1.0000 0.1514323434
H   H35       1.0  0.26400  0.49650  0.47130  1.0000 0.1514323434
H   H36       1.0  0.73600  0.50350  0.97130  1.0000 0.1514323434
H   H37       1.0  0.50350  0.73600  0.02870  1.0000 0.1514323434
H   H38       1.0  0.49650  0.26400  0.52870  1.0000 0.1514323434
H   H39       1.0  0.23600  0.99650  0.27870  1.0000 0.1514323434
H   H40       1.0  0.76400  0.00350  0.77870  1.0000 0.1514323434
H   H41       1.0  0.93940  0.32620  0.71610  1.0000 0.1574256506
H   H42       1.0  0.06060  0.67380  0.21610  1.0000 0.1574256506
H   H43       1.0  0.17380  0.43940  0.46610  1.0000 0.1574256506
H   H44       1.0  0.82620  0.56060  0.96610  1.0000 0.1574256506
H   H45       1.0  0.56060  0.82620  0.03390  1.0000 0.1574256506
H   H46       1.0  0.43940  0.17380  0.53390  1.0000 0.1574256506
H   H47       1.0  0.32620  0.93940  0.28390  1.0000 0.1574256506
H   H48       1.0  0.67380  0.06060  0.78390  1.0000 0.1574256506
H   H49       1.0  0.89180  0.23040  0.71170  1.0000 0.1574256506
H   H50       1.0  0.10820  0.76960  0.21170  1.0000 0.1574256506
H   H51       1.0  0.26960  0.39180  0.46170  1.0000 0.1574256506
H   H52       1.0  0.73040  0.60820  0.96170  1.0000 0.1574256506
H   H53       1.0  0.60820  0.73040  0.03830  1.0000 0.1574256506
H   H54       1.0  0.39180  0.26960  0.53830  1.0000 0.1574256506
H   H55       1.0  0.23040  0.89180  0.28830  1.0000 0.1574256506
H   H56       1.0  0.76960  0.10820  0.78830  1.0000 0.1574256506
H   H57       1.0  0.07520  0.18650  0.75630  1.0000 0.0878933296
H   H58       1.0  0.92480  0.81350  0.25630  1.0000 0.0878933296
H   H59       1.0  0.31350  0.57520  0.50630  1.0000 0.0878933296
H   H60       1.0  0.68650  0.42480  0.00630  1.0000 0.0878933296
H   H61       1.0  0.42480  0.68650  0.99370  1.0000 0.0878933296
H   H62       1.0  0.57520  0.31350  0.49370  1.0000 0.0878933296
H   H63       1.0  0.18650  0.07520  0.24370  1.0000 0.0878933296
H   H64       1.0  0.81350  0.92480  0.74370  1.0000 0.0878933296
H   H65       1.0  0.04750  0.05980  0.79410  1.0000 0.1253783096
H   H66       1.0  0.95250  0.94020  0.29410  1.0000 0.1253783096
H   H67       1.0  0.44020  0.54750  0.54410  1.0000 0.1253783096
H   H68       1.0  0.55980  0.45250  0.04410  1.0000 0.1253783096
H   H69       1.0  0.45250  0.55980  0.95590  1.0000 0.1253783096
H   H70       1.0  0.54750  0.44020  0.45590  1.0000 0.1253783096
H   H71       1.0  0.05980  0.04750  0.20590  1.0000 0.1253783096
H   H72       1.0  0.94020  0.95250  0.70590  1.0000 0.1253783096
H   H73       1.0  0.07320  0.11710  0.82880  1.0000 0.117335147
H   H74       1.0  0.92680  0.88290  0.32880  1.0000 0.117335147
H   H75       1.0  0.38290  0.57320  0.57880  1.0000 0.117335147
H   H76       1.0  0.61710  0.42680  0.07880  1.0000 0.117335147
H   H77       1.0  0.42680  0.61710  0.92120  1.0000 0.117335147
H   H78       1.0  0.57320  0.38290  0.42120  1.0000 0.117335147
H   H79       1.0  0.11710  0.07320  0.17120  1.0000 0.117335147
H   H80       1.0  0.88290  0.92680  0.67120  1.0000 0.117335147
H   H81       1.0  0.20020  0.02610  0.81190  1.0000 0.1014020281
H   H82       1.0  0.79980  0.97390  0.31190  1.0000 0.1014020281
H   H83       1.0  0.47390  0.70020  0.56190  1.0000 0.1014020281
H   H84       1.0  0.52610  0.29980  0.06190  1.0000 0.1014020281
H   H85       1.0  0.29980  0.52610  0.93810  1.0000 0.1014020281
H   H86       1.0  0.70020  0.47390  0.43810  1.0000 0.1014020281
H   H87       1.0  0.02610  0.20020  0.18810  1.0000 0.1014020281
H   H88       1.0  0.97390  0.79980  0.68810  1.0000 0.1014020281
H   H89       1.0  0.19990  0.06980  0.77280  1.0000 0.1014020281
H   H90       1.0  0.80010  0.93020  0.27280  1.0000 0.1014020281
H   H91       1.0  0.43020  0.69990  0.52280  1.0000 0.1014020281
H   H92       1.0  0.56980  0.30010  0.02280  1.0000 0.1014020281
H   H93       1.0  0.30010  0.56980  0.97720  1.0000 0.1014020281
H   H94       1.0  0.69990  0.43020  0.47720  1.0000 0.1014020281
H   H95       1.0  0.06980  0.19990  0.22720  1.0000 0.1014020281
H   H96       1.0  0.93020  0.80010  0.72720  1.0000 0.1014020281
H   H97       1.0  0.31260  0.13920  0.80830  1.0000 0.0878933296
H   H98       1.0  0.68740  0.86080  0.30830  1.0000 0.0878933296
H   H99       1.0  0.36080  0.81260  0.55830  1.0000 0.0878933296
H   H100      1.0  0.63920  0.18740  0.05830  1.0000 0.0878933296
H   H101      1.0  0.18740  0.63920  0.94170  1.0000 0.0878933296
H   H102      1.0  0.81260  0.36080  0.44170  1.0000 0.0878933296
H   H103      1.0  0.13920  0.31260  0.19170  1.0000 0.0878933296
H   H104      1.0  0.86080  0.68740  0.69170  1.0000 0.0878933296
H   H105      1.0  0.23880  0.16700  0.83740  1.0000 0.1014020281
H   H106      1.0  0.76120  0.83300  0.33740  1.0000 0.1014020281
H   H107      1.0  0.33300  0.73880  0.58740  1.0000 0.1014020281
H   H108      1.0  0.66700  0.26120  0.08740  1.0000 0.1014020281
H   H109      1.0  0.26120  0.66700  0.91260  1.0000 0.1014020281
H   H110      1.0  0.73880  0.33300  0.41260  1.0000 0.1014020281
H   H111      1.0  0.16700  0.23880  0.16260  1.0000 0.1014020281
H   H112      1.0  0.83300  0.76120  0.66260  1.0000 0.1014020281
H   H113      1.0  0.11700  0.29090  0.81960  1.0000 0.0878933296
H   H114      1.0  0.88300  0.70910  0.31960  1.0000 0.0878933296
H   H115      1.0  0.20910  0.61700  0.56960  1.0000 0.0878933296
H   H116      1.0  0.79090  0.38300  0.06960  1.0000 0.0878933296
H   H117      1.0  0.38300  0.79090  0.93040  1.0000 0.0878933296
H   H118      1.0  0.61700  0.20910  0.43040  1.0000 0.0878933296
H   H119      1.0  0.29090  0.11700  0.18040  1.0000 0.0878933296
H   H120      1.0  0.70910  0.88300  0.68040  1.0000 0.0878933296
H   H121      1.0  0.69300  0.11080  0.94680  1.0000 0.1574256506
H   H122      1.0  0.30700  0.88920  0.44680  1.0000 0.1574256506
H   H123      1.0  0.38920  0.19300  0.69680  1.0000 0.1574256506
H   H124      1.0  0.61080  0.80700  0.19680  1.0000 0.1574256506
H   H125      1.0  0.80700  0.61080  0.80320  1.0000 0.1574256506
H   H126      1.0  0.19300  0.38920  0.30320  1.0000 0.1574256506
H   H127      1.0  0.11080  0.69300  0.05320  1.0000 0.1574256506
H   H128      1.0  0.88920  0.30700  0.55320  1.0000 0.1574256506
H   H129      1.0  0.66820  0.09660  0.98800  1.0000 0.1514323434
H   H130      1.0  0.33180  0.90340  0.48800  1.0000 0.1514323434
H   H131      1.0  0.40340  0.16820  0.73800  1.0000 0.1514323434
H   H132      1.0  0.59660  0.83180  0.23800  1.0000 0.1514323434
H   H133      1.0  0.83180  0.59660  0.76200  1.0000 0.1514323434
H   H134      1.0  0.16820  0.40340  0.26200  1.0000 0.1514323434
H   H135      1.0  0.09660  0.66820  0.01200  1.0000 0.1514323434
H   H136      1.0  0.90340  0.33180  0.51200  1.0000 0.1514323434
H   H137      1.0  0.70210  0.01340  0.96450  1.0000 0.1514323434
H   H138      1.0  0.29790  0.98660  0.46450  1.0000 0.1514323434
H   H139      1.0  0.48660  0.20210  0.71450  1.0000 0.1514323434
H   H140      1.0  0.51340  0.79790  0.21450  1.0000 0.1514323434
H   H141      1.0  0.79790  0.51340  0.78550  1.0000 0.1514323434
H   H142      1.0  0.20210  0.48660  0.28550  1.0000 0.1514323434
H   H143      1.0  0.01340  0.70210  0.03550  1.0000 0.1514323434
H   H144      1.0  0.98660  0.29790  0.53550  1.0000 0.1514323434
H   H145      1.0  0.80680  0.01740  0.02290  1.0000 0.1574256506
H   H146      1.0  0.19320  0.98260  0.52290  1.0000 0.1574256506
H   H147      1.0  0.48260  0.30680  0.77290  1.0000 0.1574256506
H   H148      1.0  0.51740  0.69320  0.27290  1.0000 0.1574256506
H   H149      1.0  0.69320  0.51740  0.72710  1.0000 0.1574256506
H   H150      1.0  0.30680  0.48260  0.22710  1.0000 0.1574256506
H   H151      1.0  0.01740  0.80680  0.97710  1.0000 0.1574256506
H   H152      1.0  0.98260  0.19320  0.47710  1.0000 0.1574256506
H   H153      1.0  0.02390  0.04280  0.06330  1.0000 0.1514323434
H   H154      1.0  0.97610  0.95720  0.56330  1.0000 0.1514323434
H   H155      1.0  0.45720  0.52390  0.81330  1.0000 0.1514323434
H   H156      1.0  0.54280  0.47610  0.31330  1.0000 0.1514323434
H   H157      1.0  0.47610  0.54280  0.68670  1.0000 0.1514323434
H   H158      1.0  0.52390  0.45720  0.18670  1.0000 0.1514323434
H   H159      1.0  0.04280  0.02390  0.93670  1.0000 0.1514323434
H   H160      1.0  0.95720  0.97610  0.43670  1.0000 0.1514323434
H   H161      1.0  0.95800  0.96080  0.05430  1.0000 0.1514323434
H   H162      1.0  0.04200  0.03920  0.55430  1.0000 0.1514323434
H   H163      1.0  0.53920  0.45800  0.80430  1.0000 0.1514323434
H   H164      1.0  0.46080  0.54200  0.30430  1.0000 0.1514323434
H   H165      1.0  0.54200  0.46080  0.69570  1.0000 0.1514323434
H   H166      1.0  0.45800  0.53920  0.19570  1.0000 0.1514323434
H   H167      1.0  0.96080  0.95800  0.94570  1.0000 0.1514323434
H   H168      1.0  0.03920  0.04200  0.44570  1.0000 0.1514323434
H   H169      1.0  0.92240  0.04410  0.07730  1.0000 0.1574256506
H   H170      1.0  0.07760  0.95590  0.57730  1.0000 0.1574256506
H   H171      1.0  0.45590  0.42240  0.82730  1.0000 0.1574256506
H   H172      1.0  0.54410  0.57760  0.32730  1.0000 0.1574256506
H   H173      1.0  0.57760  0.54410  0.67270  1.0000 0.1574256506
H   H174      1.0  0.42240  0.45590  0.17270  1.0000 0.1574256506
H   H175      1.0  0.04410  0.92240  0.92270  1.0000 0.1574256506
H   H176      1.0  0.95590  0.07760  0.42270  1.0000 0.1574256506
H   H177      1.0  0.10190  0.12340  0.03830  1.0000 0.0878933296
H   H178      1.0  0.89810  0.87660  0.53830  1.0000 0.0878933296
H   H179      1.0  0.37660  0.60190  0.78830  1.0000 0.0878933296
H   H180      1.0  0.62340  0.39810  0.28830  1.0000 0.0878933296
H   H181      1.0  0.39810  0.62340  0.71170  1.0000 0.0878933296
H   H182      1.0  0.60190  0.37660  0.21170  1.0000 0.0878933296
H   H183      1.0  0.12340  0.10190  0.96170  1.0000 0.0878933296
H   H184      1.0  0.87660  0.89810  0.46170  1.0000 0.0878933296
H   H185      1.0  0.07720  0.27820  0.03020  1.0000 0.117335147
H   H186      1.0  0.92280  0.72180  0.53020  1.0000 0.117335147
H   H187      1.0  0.22180  0.57720  0.78020  1.0000 0.117335147
H   H188      1.0  0.77820  0.42280  0.28020  1.0000 0.117335147
H   H189      1.0  0.42280  0.77820  0.71980  1.0000 0.117335147
H   H190      1.0  0.57720  0.22180  0.21980  1.0000 0.117335147
H   H191      1.0  0.27820  0.07720  0.96980  1.0000 0.117335147
H   H192      1.0  0.72180  0.92280  0.46980  1.0000 0.117335147
H   H193      1.0  0.08740  0.26910  0.98780  1.0000 0.1137181253
H   H194      1.0  0.91260  0.73090  0.48780  1.0000 0.1137181253
H   H195      1.0  0.23090  0.58740  0.73780  1.0000 0.1137181253
H   H196      1.0  0.76910  0.41260  0.23780  1.0000 0.1137181253
H   H197      1.0  0.41260  0.76910  0.76220  1.0000 0.1137181253
H   H198      1.0  0.58740  0.23090  0.26220  1.0000 0.1137181253
H   H199      1.0  0.26910  0.08740  0.01220  1.0000 0.1137181253
H   H200      1.0  0.73090  0.91260  0.51220  1.0000 0.1137181253
H   H201      1.0  0.22280  0.32980  0.01110  1.0000 0.1014020281
H   H202      1.0  0.77720  0.67020  0.51110  1.0000 0.1014020281
H   H203      1.0  0.17020  0.72280  0.76110  1.0000 0.1014020281
H   H204      1.0  0.82980  0.27720  0.26110  1.0000 0.1014020281
H   H205      1.0  0.27720  0.82980  0.73890  1.0000 0.1014020281
H   H206      1.0  0.72280  0.17020  0.23890  1.0000 0.1014020281
H   H207      1.0  0.32980  0.22280  0.98890  1.0000 0.1014020281
H   H208      1.0  0.67020  0.77720  0.48890  1.0000 0.1014020281
H   H209      1.0  0.23250  0.24730  0.03830  1.0000 0.1014020281
H   H210      1.0  0.76750  0.75270  0.53830  1.0000 0.1014020281
H   H211      1.0  0.25270  0.73250  0.78830  1.0000 0.1014020281
H   H212      1.0  0.74730  0.26750  0.28830  1.0000 0.1014020281
H   H213      1.0  0.26750  0.74730  0.71170  1.0000 0.1014020281
H   H214      1.0  0.73250  0.25270  0.21170  1.0000 0.1014020281
H   H215      1.0  0.24730  0.23250  0.96170  1.0000 0.1014020281
H   H216      1.0  0.75270  0.76750  0.46170  1.0000 0.1014020281
H   H217      1.0  0.08160  0.55520  0.66610  1.0000 0.1574256506
H   H218      1.0  0.91840  0.44480  0.16610  1.0000 0.1574256506
H   H219      1.0  0.94480  0.58160  0.41610  1.0000 0.1574256506
H   H220      1.0  0.05520  0.41840  0.91610  1.0000 0.1574256506
H   H221      1.0  0.41840  0.05520  0.08390  1.0000 0.1574256506
H   H222      1.0  0.58160  0.94480  0.58390  1.0000 0.1574256506
H   H223      1.0  0.55520  0.08160  0.33390  1.0000 0.1574256506
H   H224      1.0  0.44480  0.91840  0.83390  1.0000 0.1574256506
H   H225      1.0  0.07020  0.62390  0.69860  1.0000 0.1514323434
H   H226      1.0  0.92980  0.37610  0.19860  1.0000 0.1514323434
H   H227      1.0  0.87610  0.57020  0.44860  1.0000 0.1514323434
H   H228      1.0  0.12390  0.42980  0.94860  1.0000 0.1514323434
H   H229      1.0  0.42980  0.12390  0.05140  1.0000 0.1514323434
H   H230      1.0  0.57020  0.87610  0.55140  1.0000 0.1514323434
H   H231      1.0  0.62390  0.07020  0.30140  1.0000 0.1514323434
H   H232      1.0  0.37610  0.92980  0.80140  1.0000 0.1514323434
H   H233      1.0  0.98690  0.56370  0.68610  1.0000 0.1574256506
H   H234      1.0  0.01310  0.43630  0.18610  1.0000 0.1574256506
H   H235      1.0  0.93630  0.48690  0.43610  1.0000 0.1574256506
H   H236      1.0  0.06370  0.51310  0.93610  1.0000 0.1574256506
H   H237      1.0  0.51310  0.06370  0.06390  1.0000 0.1574256506
H   H238      1.0  0.48690  0.93630  0.56390  1.0000 0.1574256506
H   H239      1.0  0.56370  0.98690  0.31390  1.0000 0.1574256506
H   H240      1.0  0.43630  0.01310  0.81390  1.0000 0.1574256506
H   H241      1.0  0.00670  0.54160  0.75670  1.0000 0.1574256506
H   H242      1.0  0.99330  0.45840  0.25670  1.0000 0.1574256506
H   H243      1.0  0.95840  0.50670  0.50670  1.0000 0.1574256506
H   H244      1.0  0.04160  0.49330  0.00670  1.0000 0.1574256506
H   H245      1.0  0.49330  0.04160  0.99330  1.0000 0.1574256506
H   H246      1.0  0.50670  0.95840  0.49330  1.0000 0.1574256506
H   H247      1.0  0.54160  0.00670  0.24330  1.0000 0.1574256506
H   H248      1.0  0.45840  0.99330  0.74330  1.0000 0.1574256506
H   H249      1.0  0.04310  0.39610  0.83130  1.0000 0.1514323434
H   H250      1.0  0.95690  0.60390  0.33130  1.0000 0.1514323434
H   H251      1.0  0.10390  0.54310  0.58130  1.0000 0.1514323434
H   H252      1.0  0.89610  0.45690  0.08130  1.0000 0.1514323434
H   H253      1.0  0.45690  0.89610  0.91870  1.0000 0.1514323434
H   H254      1.0  0.54310  0.10390  0.41870  1.0000 0.1514323434
H   H255      1.0  0.39610  0.04310  0.16870  1.0000 0.1514323434
H   H256      1.0  0.60390  0.95690  0.66870  1.0000 0.1514323434
H   H257      1.0  0.95850  0.44570  0.81380  1.0000 0.1574256506
H   H258      1.0  0.04150  0.55430  0.31380  1.0000 0.1574256506
H   H259      1.0  0.05430  0.45850  0.56380  1.0000 0.1574256506
H   H260      1.0  0.94570  0.54150  0.06380  1.0000 0.1574256506
H   H261      1.0  0.54150  0.94570  0.93620  1.0000 0.1574256506
H   H262      1.0  0.45850  0.05430  0.43620  1.0000 0.1574256506
H   H263      1.0  0.44570  0.95850  0.18620  1.0000 0.1574256506
H   H264      1.0  0.55430  0.04150  0.68620  1.0000 0.1574256506
H   H265      1.0  0.04560  0.50240  0.82480  1.0000 0.1574256506
H   H266      1.0  0.95440  0.49760  0.32480  1.0000 0.1574256506
H   H267      1.0  0.99760  0.54560  0.57480  1.0000 0.1574256506
H   H268      1.0  0.00240  0.45440  0.07480  1.0000 0.1574256506
H   H269      1.0  0.45440  0.00240  0.92520  1.0000 0.1574256506
H   H270      1.0  0.54560  0.99760  0.42520  1.0000 0.1574256506
H   H271      1.0  0.50240  0.04560  0.17520  1.0000 0.1574256506
H   H272      1.0  0.49760  0.95440  0.67520  1.0000 0.1574256506
H   H273      1.0  0.24770  0.23880  0.76570  1.0000 0.1137181253
H   H274      1.0  0.75230  0.76120  0.26570  1.0000 0.1137181253
H   H275      1.0  0.26120  0.74770  0.51570  1.0000 0.1137181253
H   H276      1.0  0.73880  0.25230  0.01570  1.0000 0.1137181253
H   H277      1.0  0.25230  0.73880  0.98430  1.0000 0.1137181253
H   H278      1.0  0.74770  0.26120  0.48430  1.0000 0.1137181253
H   H279      1.0  0.23880  0.24770  0.23430  1.0000 0.1137181253
H   H280      1.0  0.76120  0.75230  0.73430  1.0000 0.1137181253
H   H281      1.0  0.27030  0.29460  0.80120  1.0000 0.117335147
H   H282      1.0  0.72970  0.70540  0.30120  1.0000 0.117335147
H   H283      1.0  0.20540  0.77030  0.55120  1.0000 0.117335147
H   H284      1.0  0.79460  0.22970  0.05120  1.0000 0.117335147
H   H285      1.0  0.22970  0.79460  0.94880  1.0000 0.117335147
H   H286      1.0  0.77030  0.20540  0.44880  1.0000 0.117335147
H   H287      1.0  0.29460  0.27030  0.19880  1.0000 0.117335147
H   H288      1.0  0.70540  0.72970  0.69880  1.0000 0.117335147
H   H289      1.0  0.94980  0.21750  0.81000  1.0000 0.2729874242
H   H290      1.0  0.05020  0.78250  0.31000  1.0000 0.2729874242
H   H291      1.0  0.28250  0.44980  0.56000  1.0000 0.2729874242
H   H292      1.0  0.71750  0.55020  0.06000  1.0000 0.2729874242
H   H293      1.0  0.55020  0.71750  0.94000  1.0000 0.2729874242
H   H294      1.0  0.44980  0.28250  0.44000  1.0000 0.2729874242
H   H295      1.0  0.21750  0.94980  0.19000  1.0000 0.2729874242
H   H296      1.0  0.78250  0.05020  0.69000  1.0000 0.2729874242
H   H297      1.0  0.96680  0.16050  0.98900  1.0000 0.2771840978
H   H298      1.0  0.03320  0.83950  0.48900  1.0000 0.2771840978
H   H299      1.0  0.33950  0.46680  0.73900  1.0000 0.2771840978
H   H300      1.0  0.66050  0.53320  0.23900  1.0000 0.2771840978
H   H301      1.0  0.53320  0.66050  0.76100  1.0000 0.2771840978
H   H302      1.0  0.46680  0.33950  0.26100  1.0000 0.2771840978
H   H303      1.0  0.16050  0.96680  0.01100  1.0000 0.2771840978
H   H304      1.0  0.83950  0.03320  0.51100  1.0000 0.2771840978
H   H305      1.0  0.14570  0.35730  0.75120  1.0000 0.2771840978
H   H306      1.0  0.85430  0.64270  0.25120  1.0000 0.2771840978
H   H307      1.0  0.14270  0.64570  0.50120  1.0000 0.2771840978
H   H308      1.0  0.85730  0.35430  0.00120  1.0000 0.2771840978
H   H309      1.0  0.35430  0.85730  0.99880  1.0000 0.2771840978
H   H310      1.0  0.64570  0.14270  0.49880  1.0000 0.2771840978
H   H311      1.0  0.35730  0.14570  0.24880  1.0000 0.2771840978
H   H312      1.0  0.64270  0.85430  0.74880  1.0000 0.2771840978
C   C1        1.0  0.70260  0.34120  0.81779  1.0000 -0.5503508348
C   C2        1.0  0.29740  0.65880  0.31779  1.0000 -0.5503508348
C   C3        1.0  0.15880  0.20260  0.56779  1.0000 -0.5503508348
C   C4        1.0  0.84120  0.79740  0.06779  1.0000 -0.5503508348
C   C5        1.0  0.79740  0.84120  0.93221  1.0000 -0.5503508348
C   C6        1.0  0.20260  0.15880  0.43221  1.0000 -0.5503508348
C   C7        1.0  0.34120  0.70260  0.18221  1.0000 -0.5503508348
C   C8        1.0  0.65880  0.29740  0.68221  1.0000 -0.5503508348
C   C9        1.0  0.79732  0.30239  0.81148  1.0000 0.48065025
C   C10       1.0  0.20268  0.69761  0.31148  1.0000 0.48065025
C   C11       1.0  0.19761  0.29732  0.56148  1.0000 0.48065025
C   C12       1.0  0.80239  0.70268  0.06148  1.0000 0.48065025
C   C13       1.0  0.70268  0.80239  0.93852  1.0000 0.48065025
C   C14       1.0  0.29732  0.19761  0.43852  1.0000 0.48065025
C   C15       1.0  0.30239  0.79732  0.18852  1.0000 0.48065025
C   C16       1.0  0.69761  0.20268  0.68852  1.0000 0.48065025
C   C17       1.0  0.83072  0.30280  0.77595  1.0000 -0.4610962329
C   C18       1.0  0.16928  0.69720  0.27595  1.0000 -0.4610962329
C   C19       1.0  0.19720  0.33072  0.52595  1.0000 -0.4610962329
C   C20       1.0  0.80280  0.66928  0.02595  1.0000 -0.4610962329
C   C21       1.0  0.66928  0.80280  0.97405  1.0000 -0.4610962329
C   C22       1.0  0.33072  0.19720  0.47405  1.0000 -0.4610962329
C   C23       1.0  0.30280  0.83072  0.22405  1.0000 -0.4610962329
C   C24       1.0  0.69720  0.16928  0.72405  1.0000 -0.4610962329
C   C25       1.0  0.91438  0.26410  0.76479  1.0000 0.3693242372
C   C26       1.0  0.08562  0.73590  0.26479  1.0000 0.3693242372
C   C27       1.0  0.23590  0.41438  0.51479  1.0000 0.3693242372
C   C28       1.0  0.76410  0.58562  0.01479  1.0000 0.3693242372
C   C29       1.0  0.58562  0.76410  0.98521  1.0000 0.3693242372
C   C30       1.0  0.41438  0.23590  0.48521  1.0000 0.3693242372
C   C31       1.0  0.26410  0.91438  0.23521  1.0000 0.3693242372
C   C32       1.0  0.73590  0.08562  0.73521  1.0000 0.3693242372
C   C33       1.0  0.93760  0.26420  0.72482  1.0000 -0.5183131035
C   C34       1.0  0.06240  0.73580  0.22482  1.0000 -0.5183131035
C   C35       1.0  0.23580  0.43760  0.47482  1.0000 -0.5183131035
C   C36       1.0  0.76420  0.56240  0.97482  1.0000 -0.5183131035
C   C37       1.0  0.56240  0.76420  0.02518  1.0000 -0.5183131035
C   C38       1.0  0.43760  0.23580  0.52518  1.0000 -0.5183131035
C   C39       1.0  0.26420  0.93760  0.27518  1.0000 -0.5183131035
C   C40       1.0  0.73580  0.06240  0.77518  1.0000 -0.5183131035
C   C41       1.0  0.06633  0.19770  0.78235  1.0000 0.0698575279
C   C42       1.0  0.93367  0.80230  0.28235  1.0000 0.0698575279
C   C43       1.0  0.30230  0.56633  0.53235  1.0000 0.0698575279
C   C44       1.0  0.69770  0.43367  0.03235  1.0000 0.0698575279
C   C45       1.0  0.43367  0.69770  0.96765  1.0000 0.0698575279
C   C46       1.0  0.56633  0.30230  0.46765  1.0000 0.0698575279
C   C47       1.0  0.19770  0.06633  0.21765  1.0000 0.0698575279
C   C48       1.0  0.80230  0.93367  0.71765  1.0000 0.0698575279
C   C49       1.0  0.08650  0.10860  0.80317  1.0000 -0.2207674581
C   C50       1.0  0.91350  0.89140  0.30317  1.0000 -0.2207674581
C   C51       1.0  0.39140  0.58650  0.55317  1.0000 -0.2207674581
C   C52       1.0  0.60860  0.41350  0.05317  1.0000 -0.2207674581
C   C53       1.0  0.41350  0.60860  0.94683  1.0000 -0.2207674581
C   C54       1.0  0.58650  0.39140  0.44683  1.0000 -0.2207674581
C   C55       1.0  0.10860  0.08650  0.19683  1.0000 -0.2207674581
C   C56       1.0  0.89140  0.91350  0.69683  1.0000 -0.2207674581
C   C57       1.0  0.18760  0.08180  0.79834  1.0000 -0.1543847943
C   C58       1.0  0.81240  0.91820  0.29834  1.0000 -0.1543847943
C   C59       1.0  0.41820  0.68760  0.54834  1.0000 -0.1543847943
C   C60       1.0  0.58180  0.31240  0.04834  1.0000 -0.1543847943
C   C61       1.0  0.31240  0.58180  0.95166  1.0000 -0.1543847943
C   C62       1.0  0.68760  0.41820  0.45166  1.0000 -0.1543847943
C   C63       1.0  0.08180  0.18760  0.20166  1.0000 -0.1543847943
C   C64       1.0  0.91820  0.81240  0.70166  1.0000 -0.1543847943
C   C65       1.0  0.24910  0.15730  0.81154  1.0000 -0.1543847943
C   C66       1.0  0.75090  0.84270  0.31154  1.0000 -0.1543847943
C   C67       1.0  0.34270  0.74910  0.56154  1.0000 -0.1543847943
C   C68       1.0  0.65730  0.25090  0.06154  1.0000 -0.1543847943
C   C69       1.0  0.25090  0.65730  0.93846  1.0000 -0.1543847943
C   C70       1.0  0.74910  0.34270  0.43846  1.0000 -0.1543847943
C   C71       1.0  0.15730  0.24910  0.18846  1.0000 -0.1543847943
C   C72       1.0  0.84270  0.75090  0.68846  1.0000 -0.1543847943
C   C73       1.0  0.13030  0.27510  0.79424  1.0000 0.0698575279
C   C74       1.0  0.86970  0.72490  0.29424  1.0000 0.0698575279
C   C75       1.0  0.22490  0.63030  0.54424  1.0000 0.0698575279
C   C76       1.0  0.77510  0.36970  0.04424  1.0000 0.0698575279
C   C77       1.0  0.36970  0.77510  0.95576  1.0000 0.0698575279
C   C78       1.0  0.63030  0.22490  0.45576  1.0000 0.0698575279
C   C79       1.0  0.27510  0.13030  0.20576  1.0000 0.0698575279
C   C80       1.0  0.72490  0.86970  0.70576  1.0000 0.0698575279
C   C81       1.0  0.70850  0.07810  0.96863  1.0000 -0.5678282391
C   C82       1.0  0.29150  0.92190  0.46863  1.0000 -0.5678282391
C   C83       1.0  0.42190  0.20850  0.71863  1.0000 -0.5678282391
C   C84       1.0  0.57810  0.79150  0.21863  1.0000 -0.5678282391
C   C85       1.0  0.79150  0.57810  0.78137  1.0000 -0.5678282391
C   C86       1.0  0.20850  0.42190  0.28137  1.0000 -0.5678282391
C   C87       1.0  0.07810  0.70850  0.03137  1.0000 -0.5678282391
C   C88       1.0  0.92190  0.29150  0.53137  1.0000 -0.5678282391
C   C89       1.0  0.80579  0.09929  0.97902  1.0000 0.48065025
C   C90       1.0  0.19421  0.90071  0.47902  1.0000 0.48065025
C   C91       1.0  0.40071  0.30579  0.72902  1.0000 0.48065025
C   C92       1.0  0.59929  0.69421  0.22902  1.0000 0.48065025
C   C93       1.0  0.69421  0.59929  0.77098  1.0000 0.48065025
C   C94       1.0  0.30579  0.40071  0.27098  1.0000 0.48065025
C   C95       1.0  0.09929  0.80579  0.02098  1.0000 0.48065025
C   C96       1.0  0.90071  0.19421  0.52098  1.0000 0.48065025
C   C97       1.0  0.84360  0.05820  0.01005  1.0000 -0.4694998844
C   C98       1.0  0.15640  0.94180  0.51005  1.0000 -0.4694998844
C   C99       1.0  0.44180  0.34360  0.76005  1.0000 -0.4694998844
C   C100      1.0  0.55820  0.65640  0.26005  1.0000 -0.4694998844
C   C101      1.0  0.65640  0.55820  0.73995  1.0000 -0.4694998844
C   C102      1.0  0.34360  0.44180  0.23995  1.0000 -0.4694998844
C   C103      1.0  0.05820  0.84360  0.98995  1.0000 -0.4694998844
C   C104      1.0  0.94180  0.15640  0.48995  1.0000 -0.4694998844
C   C105      1.0  0.93223  0.07355  0.02323  1.0000 0.3693242372
C   C106      1.0  0.06777  0.92645  0.52323  1.0000 0.3693242372
C   C107      1.0  0.42645  0.43223  0.77323  1.0000 0.3693242372
C   C108      1.0  0.57355  0.56777  0.27323  1.0000 0.3693242372
C   C109      1.0  0.56777  0.57355  0.72677  1.0000 0.3693242372
C   C110      1.0  0.43223  0.42645  0.22677  1.0000 0.3693242372
C   C111      1.0  0.07355  0.93223  0.97677  1.0000 0.3693242372
C   C112      1.0  0.92645  0.06777  0.47677  1.0000 0.3693242372
C   C113      1.0  0.96180  0.02600  0.05764  1.0000 -0.5144330125
C   C114      1.0  0.03820  0.97400  0.55764  1.0000 -0.5144330125
C   C115      1.0  0.47400  0.46180  0.80764  1.0000 -0.5144330125
C   C116      1.0  0.52600  0.53820  0.30764  1.0000 -0.5144330125
C   C117      1.0  0.53820  0.52600  0.69236  1.0000 -0.5144330125
C   C118      1.0  0.46180  0.47400  0.19236  1.0000 -0.5144330125
C   C119      1.0  0.02600  0.96180  0.94236  1.0000 -0.5144330125
C   C120      1.0  0.97400  0.03820  0.44236  1.0000 -0.5144330125
C   C121      1.0  0.08770  0.14440  0.01359  1.0000 0.0698575279
C   C122      1.0  0.91230  0.85560  0.51359  1.0000 0.0698575279
C   C123      1.0  0.35560  0.58770  0.76359  1.0000 0.0698575279
C   C124      1.0  0.64440  0.41230  0.26359  1.0000 0.0698575279
C   C125      1.0  0.41230  0.64440  0.73641  1.0000 0.0698575279
C   C126      1.0  0.58770  0.35560  0.23641  1.0000 0.0698575279
C   C127      1.0  0.14440  0.08770  0.98641  1.0000 0.0698575279
C   C128      1.0  0.85560  0.91230  0.48641  1.0000 0.0698575279
C   C129      1.0  0.10940  0.24580  0.01095  1.0000 -0.226236568
C   C130      1.0  0.89060  0.75420  0.51095  1.0000 -0.226236568
C   C131      1.0  0.25420  0.60940  0.76095  1.0000 -0.226236568
C   C132      1.0  0.74580  0.39060  0.26095  1.0000 -0.226236568
C   C133      1.0  0.39060  0.74580  0.73905  1.0000 -0.226236568
C   C134      1.0  0.60940  0.25420  0.23905  1.0000 -0.226236568
C   C135      1.0  0.24580  0.10940  0.98905  1.0000 -0.226236568
C   C136      1.0  0.75420  0.89060  0.48905  1.0000 -0.226236568
C   C137      1.0  0.21150  0.26470  0.01422  1.0000 -0.1543847943
C   C138      1.0  0.78850  0.73530  0.51422  1.0000 -0.1543847943
C   C139      1.0  0.23530  0.71150  0.76422  1.0000 -0.1543847943
C   C140      1.0  0.76470  0.28850  0.26422  1.0000 -0.1543847943
C   C141      1.0  0.28850  0.76470  0.73578  1.0000 -0.1543847943
C   C142      1.0  0.71150  0.23530  0.23578  1.0000 -0.1543847943
C   C143      1.0  0.26470  0.21150  0.98578  1.0000 -0.1543847943
C   C144      1.0  0.73530  0.78850  0.48578  1.0000 -0.1543847943
C   C145      1.0  0.05230  0.56520  0.68916  1.0000 -0.5503508348
C   C146      1.0  0.94770  0.43480  0.18916  1.0000 -0.5503508348
C   C147      1.0  0.93480  0.55230  0.43916  1.0000 -0.5503508348
C   C148      1.0  0.06520  0.44770  0.93916  1.0000 -0.5503508348
C   C149      1.0  0.44770  0.06520  0.06084  1.0000 -0.5503508348
C   C150      1.0  0.55230  0.93480  0.56084  1.0000 -0.5503508348
C   C151      1.0  0.56520  0.05230  0.31084  1.0000 -0.5503508348
C   C152      1.0  0.43480  0.94770  0.81084  1.0000 -0.5503508348
C   C153      1.0  0.08064  0.49156  0.71519  1.0000 0.48065025
C   C154      1.0  0.91936  0.50844  0.21519  1.0000 0.48065025
C   C155      1.0  0.00844  0.58064  0.46519  1.0000 0.48065025
C   C156      1.0  0.99156  0.41936  0.96519  1.0000 0.48065025
C   C157      1.0  0.41936  0.99156  0.03481  1.0000 0.48065025
C   C158      1.0  0.58064  0.00844  0.53481  1.0000 0.48065025
C   C159      1.0  0.49156  0.08064  0.28481  1.0000 0.48065025
C   C160      1.0  0.50844  0.91936  0.78481  1.0000 0.48065025
C   C161      1.0  0.04572  0.49342  0.75074  1.0000 -0.4610962329
C   C162      1.0  0.95428  0.50658  0.25074  1.0000 -0.4610962329
C   C163      1.0  0.00658  0.54572  0.50074  1.0000 -0.4610962329
C   C164      1.0  0.99342  0.45428  0.00074  1.0000 -0.4610962329
C   C165      1.0  0.45428  0.99342  0.99926  1.0000 -0.4610962329
C   C166      1.0  0.54572  0.00658  0.49926  1.0000 -0.4610962329
C   C167      1.0  0.49342  0.04572  0.24926  1.0000 -0.4610962329
C   C168      1.0  0.50658  0.95428  0.74926  1.0000 -0.4610962329
C   C169      1.0  0.06427  0.42935  0.77799  1.0000 0.3693242372
C   C170      1.0  0.93573  0.57065  0.27799  1.0000 0.3693242372
C   C171      1.0  0.07065  0.56427  0.52799  1.0000 0.3693242372
C   C172      1.0  0.92935  0.43573  0.02799  1.0000 0.3693242372
C   C173      1.0  0.43573  0.92935  0.97201  1.0000 0.3693242372
C   C174      1.0  0.56427  0.07065  0.47201  1.0000 0.3693242372
C   C175      1.0  0.42935  0.06427  0.22201  1.0000 0.3693242372
C   C176      1.0  0.57065  0.93573  0.72201  1.0000 0.3693242372
C   C177      1.0  0.02420  0.44480  0.81537  1.0000 -0.5183131035
C   C178      1.0  0.97580  0.55520  0.31537  1.0000 -0.5183131035
C   C179      1.0  0.05520  0.52420  0.56537  1.0000 -0.5183131035
C   C180      1.0  0.94480  0.47580  0.06537  1.0000 -0.5183131035
C   C181      1.0  0.47580  0.94480  0.93463  1.0000 -0.5183131035
C   C182      1.0  0.52420  0.05520  0.43463  1.0000 -0.5183131035
C   C183      1.0  0.44480  0.02420  0.18463  1.0000 -0.5183131035
C   C184      1.0  0.55520  0.97580  0.68463  1.0000 -0.5183131035
C   C185      1.0  0.23170  0.24660  0.79115  1.0000 -0.2207674581
C   C186      1.0  0.76830  0.75340  0.29115  1.0000 -0.2207674581
C   C187      1.0  0.25340  0.73170  0.54115  1.0000 -0.2207674581
C   C188      1.0  0.74660  0.26830  0.04115  1.0000 -0.2207674581
C   C189      1.0  0.26830  0.74660  0.95885  1.0000 -0.2207674581
C   C190      1.0  0.73170  0.25340  0.45885  1.0000 -0.2207674581
C   C191      1.0  0.24660  0.23170  0.20885  1.0000 -0.2207674581
C   C192      1.0  0.75340  0.76830  0.70885  1.0000 -0.2207674581
N   N1        1.0  0.97115  0.22635  0.78846  1.0000 -0.2604371618
N   N2        1.0  0.02885  0.77365  0.28846  1.0000 -0.2604371618
N   N3        1.0  0.27365  0.47115  0.53846  1.0000 -0.2604371618
N   N4        1.0  0.72635  0.52885  0.03846  1.0000 -0.2604371618
N   N5        1.0  0.52885  0.72635  0.96154  1.0000 -0.2604371618
N   N6        1.0  0.47115  0.27365  0.46154  1.0000 -0.2604371618
N   N7        1.0  0.22635  0.97115  0.21154  1.0000 -0.2604371618
N   N8        1.0  0.77365  0.02885  0.71154  1.0000 -0.2604371618
N   N9        1.0  0.98979  0.12889  0.00656  1.0000 -0.2717796836
N   N10       1.0  0.01021  0.87111  0.50656  1.0000 -0.2717796836
N   N11       1.0  0.37111  0.48979  0.75656  1.0000 -0.2717796836
N   N12       1.0  0.62889  0.51021  0.25656  1.0000 -0.2717796836
N   N13       1.0  0.51021  0.62889  0.74344  1.0000 -0.2717796836
N   N14       1.0  0.48979  0.37111  0.24344  1.0000 -0.2717796836
N   N15       1.0  0.12889  0.98979  0.99344  1.0000 -0.2717796836
N   N16       1.0  0.87111  0.01021  0.49344  1.0000 -0.2717796836
N   N17       1.0  0.85022  0.06725  0.87059  1.0000 0.7054807831
N   N18       1.0  0.14978  0.93275  0.37059  1.0000 0.7054807831
N   N19       1.0  0.43275  0.35022  0.62059  1.0000 0.7054807831
N   N20       1.0  0.56725  0.64978  0.12059  1.0000 0.7054807831
N   N21       1.0  0.64978  0.56725  0.87941  1.0000 0.7054807831
N   N22       1.0  0.35022  0.43275  0.37941  1.0000 0.7054807831
N   N23       1.0  0.06725  0.85022  0.12941  1.0000 0.7054807831
N   N24       1.0  0.93275  0.14978  0.62941  1.0000 0.7054807831
N   N25       1.0  0.06965  0.23840  0.89925  1.0000 0.6840836693
N   N26       1.0  0.93035  0.76160  0.39925  1.0000 0.6840836693
N   N27       1.0  0.26160  0.56965  0.64925  1.0000 0.6840836693
N   N28       1.0  0.73840  0.43035  0.14925  1.0000 0.6840836693
N   N29       1.0  0.43035  0.73840  0.85075  1.0000 0.6840836693
N   N30       1.0  0.56965  0.26160  0.35075  1.0000 0.6840836693
N   N31       1.0  0.23840  0.06965  0.10075  1.0000 0.6840836693
N   N32       1.0  0.76160  0.93035  0.60075  1.0000 0.6840836693
N   N33       1.0  0.66710  0.30415  0.93346  1.0000 0.6988913405
N   N34       1.0  0.33290  0.69585  0.43346  1.0000 0.6988913405
N   N35       1.0  0.19585  0.16710  0.68346  1.0000 0.6988913405
N   N36       1.0  0.80415  0.83290  0.18346  1.0000 0.6988913405
N   N37       1.0  0.83290  0.80415  0.81654  1.0000 0.6988913405
N   N38       1.0  0.16710  0.19585  0.31654  1.0000 0.6988913405
N   N39       1.0  0.30415  0.66710  0.06654  1.0000 0.6988913405
N   N40       1.0  0.69585  0.33290  0.56654  1.0000 0.6988913405
N   N41       1.0  0.11624  0.35659  0.77149  1.0000 -0.2717796836
N   N42       1.0  0.88376  0.64341  0.27149  1.0000 -0.2717796836
N   N43       1.0  0.14341  0.61624  0.52149  1.0000 -0.2717796836
N   N44       1.0  0.85659  0.38376  0.02149  1.0000 -0.2717796836
N   N45       1.0  0.38376  0.85659  0.97851  1.0000 -0.2717796836
N   N46       1.0  0.61624  0.14341  0.47851  1.0000 -0.2717796836
N   N47       1.0  0.35659  0.11624  0.22851  1.0000 -0.2717796836
N   N48       1.0  0.64341  0.88376  0.72851  1.0000 -0.2717796836
O   O1        1.0  0.84021  0.26893  0.83825  1.0000 -0.5583748307
O   O2        1.0  0.15979  0.73107  0.33825  1.0000 -0.5583748307
O   O3        1.0  0.23107  0.34021  0.58825  1.0000 -0.5583748307
O   O4        1.0  0.76893  0.65979  0.08825  1.0000 -0.5583748307
O   O5        1.0  0.65979  0.76893  0.91175  1.0000 -0.5583748307
O   O6        1.0  0.34021  0.23107  0.41175  1.0000 -0.5583748307
O   O7        1.0  0.26893  0.84021  0.16175  1.0000 -0.5583748307
O   O8        1.0  0.73107  0.15979  0.66175  1.0000 -0.5583748307
O   O9        1.0  0.85053  0.15558  0.95908  1.0000 -0.5678282391
O   O10       1.0  0.14947  0.84442  0.45908  1.0000 -0.5678282391
O   O11       1.0  0.34442  0.35053  0.70908  1.0000 -0.5678282391
O   O12       1.0  0.65558  0.64947  0.20908  1.0000 -0.5678282391
O   O13       1.0  0.64947  0.65558  0.79092  1.0000 -0.5678282391
O   O14       1.0  0.35053  0.34442  0.29092  1.0000 -0.5678282391
O   O15       1.0  0.15558  0.85053  0.04092  1.0000 -0.5678282391
O   O16       1.0  0.84442  0.14947  0.54092  1.0000 -0.5678282391
O   O17       1.0  0.77962  0.10782  0.88203  1.0000 -0.4694998844
O   O18       1.0  0.22038  0.89218  0.38203  1.0000 -0.4694998844
O   O19       1.0  0.39218  0.27962  0.63203  1.0000 -0.4694998844
O   O20       1.0  0.60782  0.72038  0.13203  1.0000 -0.4610962329
O   O21       1.0  0.72038  0.60782  0.86797  1.0000 -0.4610962329
O   O22       1.0  0.27962  0.39218  0.36797  1.0000 -0.4694998844
O   O23       1.0  0.10782  0.77962  0.11797  1.0000 -0.4694998844
O   O24       1.0  0.89218  0.22038  0.61797  1.0000 -0.4694998844
O   O25       1.0  0.92579  0.10740  0.87469  1.0000 -0.4694998844
O   O26       1.0  0.07421  0.89260  0.37469  1.0000 -0.4694998844
O   O27       1.0  0.39260  0.42579  0.62469  1.0000 -0.4694998844
O   O28       1.0  0.60740  0.57421  0.12469  1.0000 -0.4694998844
O   O29       1.0  0.57421  0.60740  0.87531  1.0000 -0.4694998844
O   O30       1.0  0.42579  0.39260  0.37531  1.0000 -0.4694998844
O   O31       1.0  0.10740  0.92579  0.12531  1.0000 -0.4694998844
O   O32       1.0  0.89260  0.07421  0.62531  1.0000 -0.4694998844
O   O33       1.0  0.02647  0.20393  0.92534  1.0000 -0.4435628291
O   O34       1.0  0.97353  0.79607  0.42534  1.0000 -0.4435628291
O   O35       1.0  0.29607  0.52647  0.67534  1.0000 -0.4435628291
O   O36       1.0  0.70393  0.47353  0.17534  1.0000 -0.4435628291
O   O37       1.0  0.47353  0.70393  0.82466  1.0000 -0.4435628291
O   O38       1.0  0.52647  0.29607  0.32466  1.0000 -0.4435628291
O   O39       1.0  0.20393  0.02647  0.07466  1.0000 -0.4435628291
O   O40       1.0  0.79607  0.97353  0.57466  1.0000 -0.4435628291
O   O41       1.0  0.02276  0.28615  0.87650  1.0000 -0.4987509485
O   O42       1.0  0.97724  0.71385  0.37650  1.0000 -0.4987509485
O   O43       1.0  0.21385  0.52276  0.62650  1.0000 -0.4987509485
O   O44       1.0  0.78615  0.47724  0.12650  1.0000 -0.4987509485
O   O45       1.0  0.47724  0.78615  0.87350  1.0000 -0.4987509485
O   O46       1.0  0.52276  0.21385  0.37350  1.0000 -0.4987509485
O   O47       1.0  0.28615  0.02276  0.12350  1.0000 -0.4987509485
O   O48       1.0  0.71385  0.97724  0.62350  1.0000 -0.4987509485
O   O49       1.0  0.68047  0.26484  0.90285  1.0000 -0.475847916
O   O50       1.0  0.31953  0.73516  0.40285  1.0000 -0.475847916
O   O51       1.0  0.23516  0.18047  0.65285  1.0000 -0.475847916
O   O52       1.0  0.76484  0.81953  0.15285  1.0000 -0.475847916
O   O53       1.0  0.81953  0.76484  0.84715  1.0000 -0.475847916
O   O54       1.0  0.18047  0.23516  0.34715  1.0000 -0.475847916
O   O55       1.0  0.26484  0.68047  0.09715  1.0000 -0.475847916
O   O56       1.0  0.73516  0.31953  0.59715  1.0000 -0.475847916
O   O57       1.0  0.73683  0.33118  0.94971  1.0000 -0.4610962329
O   O58       1.0  0.26317  0.66882  0.44971  1.0000 -0.4610962329
O   O59       1.0  0.16882  0.23683  0.69971  1.0000 -0.4610962329
O   O60       1.0  0.83118  0.76317  0.19971  1.0000 -0.4610962329
O   O61       1.0  0.76317  0.83118  0.80029  1.0000 -0.4610962329
O   O62       1.0  0.23683  0.16882  0.30029  1.0000 -0.4610962329
O   O63       1.0  0.33118  0.73683  0.05029  1.0000 -0.4610962329
O   O64       1.0  0.66882  0.26317  0.55029  1.0000 -0.4610962329
O   O65       1.0  0.13635  0.43018  0.70423  1.0000 -0.5678282391
O   O66       1.0  0.86365  0.56982  0.20423  1.0000 -0.5678282391
O   O67       1.0  0.06982  0.63635  0.45423  1.0000 -0.5678282391
O   O68       1.0  0.93018  0.36365  0.95423  1.0000 -0.5678282391
O   O69       1.0  0.36365  0.93018  0.04577  1.0000 -0.5678282391
O   O70       1.0  0.63635  0.06982  0.54577  1.0000 -0.5678282391
O   O71       1.0  0.43018  0.13635  0.29577  1.0000 -0.5678282391
O   O72       1.0  0.56982  0.86365  0.79577  1.0000 -0.5678282391
O   O73       1.0  0.84515  0.99148  0.85604  1.0000 -0.3876358903
O   O74       1.0  0.15485  0.00852  0.35604  1.0000 -0.3876358903
O   O75       1.0  0.50852  0.34515  0.60604  1.0000 -0.3876358903
O   O76       1.0  0.49148  0.65485  0.10604  1.0000 -0.3876358903
O   O77       1.0  0.65485  0.49148  0.89396  1.0000 -0.3876358903
O   O78       1.0  0.34515  0.50852  0.39396  1.0000 -0.3876358903
O   O79       1.0  0.99148  0.84515  0.14396  1.0000 -0.3876358903
O   O80       1.0  0.00852  0.15485  0.64396  1.0000 -0.3876358903
O   O81       1.0  0.15120  0.22650  0.89515  1.0000 -0.3876358903
O   O82       1.0  0.84880  0.77350  0.39515  1.0000 -0.3876358903
O   O83       1.0  0.27350  0.65120  0.64515  1.0000 -0.3876358903
O   O84       1.0  0.72650  0.34880  0.14515  1.0000 -0.3876358903
O   O85       1.0  0.34880  0.72650  0.85485  1.0000 -0.3876358903
O   O86       1.0  0.65120  0.27350  0.35485  1.0000 -0.3876358903
O   O87       1.0  0.22650  0.15120  0.10485  1.0000 -0.3876358903
O   O88       1.0  0.77350  0.84880  0.60485  1.0000 -0.3876358903
O   O89       1.0  0.58980  0.31300  0.94576  1.0000 -0.3876358903
O   O90       1.0  0.41020  0.68700  0.44576  1.0000 -0.3876358903
O   O91       1.0  0.18700  0.08980  0.69576  1.0000 -0.3876358903
O   O92       1.0  0.81300  0.91020  0.19576  1.0000 -0.3876358903
O   O93       1.0  0.91020  0.81300  0.80424  1.0000 -0.3876358903
O   O94       1.0  0.08980  0.18700  0.30424  1.0000 -0.3876358903
O   O95       1.0  0.31300  0.58980  0.05424  1.0000 -0.3876358903
O   O96       1.0  0.68700  0.41020  0.55424  1.0000 -0.3876358903
