# DDEC6 charges by PACMAN v1.1 (https://github.com/mtap-research/PACMAN-charge/)
data_0000[Cu][nan]3[ASR]1
_chemical_formula_sum              "Cu4 H84 C116 N8 O20"
_cell_length_a       12.656
_cell_length_b       9.2408
_cell_length_c       25.544
_cell_angle_alpha    90
_cell_angle_beta     96.158
_cell_angle_gamma    90

_symmetry_space_group_name_H-M    "P 1"
_symmetry_Int_Tables_number       1

loop_
  _symmetry_equiv_pos_as_xyz
  'x, y, z'

loop_
  _atom_site_type_symbol
  _atom_site_label
  _atom_site_symmetry_multiplicity
  _atom_site_fract_x
  _atom_site_fract_y
  _atom_site_fract_z
  _atom_site_occupancy
  _atom_site_charge
Cu  Cu1       1.0  0.94845  0.62555  0.00305  1.0000 0.7614949774
Cu  Cu2       1.0  0.05155  0.12555  0.49695  1.0000 0.7614949774
Cu  Cu3       1.0  0.05155  0.37445  0.99695  1.0000 0.7614949774
Cu  Cu4       1.0  0.94845  0.87445  0.50305  1.0000 0.7614949774
H   H1        1.0  0.27830  0.08250  0.63330  1.0000 0.1296882806
H   H2        1.0  0.72170  0.58250  0.86670  1.0000 0.1296882806
H   H3        1.0  0.72170  0.91750  0.36670  1.0000 0.1296882806
H   H4        1.0  0.27830  0.41750  0.13330  1.0000 0.1296882806
H   H5        1.0  0.10430  0.73150  0.65240  1.0000 0.1215605307
H   H6        1.0  0.89570  0.23150  0.84760  1.0000 0.1215605307
H   H7        1.0  0.89570  0.26850  0.34760  1.0000 0.1215605307
H   H8        1.0  0.10430  0.76850  0.15240  1.0000 0.1215605307
H   H9        1.0  0.37660  0.03890  0.71200  1.0000 0.1215605307
H   H10       1.0  0.62340  0.53890  0.78800  1.0000 0.1215605307
H   H11       1.0  0.62340  0.96110  0.28800  1.0000 0.1215605307
H   H12       1.0  0.37660  0.46110  0.21200  1.0000 0.1215605307
H   H13       1.0  0.20000  0.68820  0.73140  1.0000 0.1215605307
H   H14       1.0  0.80000  0.18820  0.76860  1.0000 0.1215605307
H   H15       1.0  0.80000  0.31180  0.26860  1.0000 0.1215605307
H   H16       1.0  0.20000  0.81180  0.23140  1.0000 0.1215605307
H   H17       1.0  0.74740  0.94880  0.82440  1.0000 0.1114402068
H   H18       1.0  0.25260  0.44880  0.67560  1.0000 0.1114402068
H   H19       1.0  0.25260  0.05120  0.17560  1.0000 0.1114402068
H   H20       1.0  0.74740  0.55120  0.32440  1.0000 0.1114402068
H   H21       1.0  0.68760  0.85540  0.74180  1.0000 0.1114402068
H   H22       1.0  0.31240  0.35540  0.75820  1.0000 0.1114402068
H   H23       1.0  0.31240  0.14460  0.25820  1.0000 0.1114402068
H   H24       1.0  0.68760  0.64460  0.24180  1.0000 0.1114402068
H   H25       1.0  0.63040  0.97970  0.88560  1.0000 0.1114402068
H   H26       1.0  0.36960  0.47970  0.61440  1.0000 0.1114402068
H   H27       1.0  0.36960  0.02030  0.11440  1.0000 0.1114402068
H   H28       1.0  0.63040  0.52030  0.38560  1.0000 0.1114402068
H   H29       1.0  0.50530  0.81390  0.72080  1.0000 0.1296882806
H   H30       1.0  0.49470  0.31390  0.77920  1.0000 0.1296882806
H   H31       1.0  0.49470  0.18610  0.27920  1.0000 0.1296882806
H   H32       1.0  0.50530  0.68610  0.22080  1.0000 0.1296882806
H   H33       1.0  0.45380  0.92500  0.86480  1.0000 0.1296882806
H   H34       1.0  0.54620  0.42500  0.63520  1.0000 0.1296882806
H   H35       1.0  0.54620  0.07500  0.13520  1.0000 0.1296882806
H   H36       1.0  0.45380  0.57500  0.36480  1.0000 0.1296882806
H   H37       1.0  0.18210  0.92470  0.81390  1.0000 0.1296882806
H   H38       1.0  0.81790  0.42470  0.68610  1.0000 0.1296882806
H   H39       1.0  0.81790  0.07530  0.18610  1.0000 0.1296882806
H   H40       1.0  0.18210  0.57530  0.31390  1.0000 0.1296882806
H   H41       1.0  0.39600  0.60710  0.84040  1.0000 0.1296882806
H   H42       1.0  0.60400  0.10710  0.65960  1.0000 0.1296882806
H   H43       1.0  0.60400  0.39290  0.15960  1.0000 0.1296882806
H   H44       1.0  0.39600  0.89290  0.34040  1.0000 0.1296882806
H   H45       1.0  0.30260  0.51930  0.90530  1.0000 0.1215605307
H   H46       1.0  0.69740  0.01930  0.59470  1.0000 0.1215605307
H   H47       1.0  0.69740  0.48070  0.09470  1.0000 0.1215605307
H   H48       1.0  0.30260  0.98070  0.40530  1.0000 0.1215605307
H   H49       1.0  0.08810  0.83550  0.87890  1.0000 0.1296882806
H   H50       1.0  0.91190  0.33550  0.62110  1.0000 0.1296882806
H   H51       1.0  0.91190  0.16450  0.12110  1.0000 0.1296882806
H   H52       1.0  0.08810  0.66450  0.37890  1.0000 0.1296882806
H   H53       1.0  0.94290  0.91310  0.95080  1.0000 0.1114402068
H   H54       1.0  0.05710  0.41310  0.54920  1.0000 0.1114402068
H   H55       1.0  0.05710  0.08690  0.04920  1.0000 0.1114402068
H   H56       1.0  0.94290  0.58690  0.45080  1.0000 0.1114402068
H   H57       1.0  0.84940  0.11180  0.92870  1.0000 0.1296882806
H   H58       1.0  0.15060  0.61180  0.57130  1.0000 0.1296882806
H   H59       1.0  0.15060  0.88820  0.07130  1.0000 0.1296882806
H   H60       1.0  0.84940  0.38820  0.42870  1.0000 0.1296882806
H   H61       1.0  0.75930  0.77810  0.05060  1.0000 0.1034181025
H   H62       1.0  0.24070  0.27810  0.44940  1.0000 0.1034181025
H   H63       1.0  0.24070  0.22190  0.94940  1.0000 0.1034181025
H   H64       1.0  0.75930  0.72190  0.55060  1.0000 0.1034181025
H   H65       1.0  0.65660  0.00920  0.03610  1.0000 0.1408099514
H   H66       1.0  0.34340  0.50920  0.46390  1.0000 0.1408099514
H   H67       1.0  0.34340  0.99080  0.96390  1.0000 0.1408099514
H   H68       1.0  0.65660  0.49080  0.53610  1.0000 0.1408099514
H   H69       1.0  0.66710  0.23650  0.93410  1.0000 0.1034181025
H   H70       1.0  0.33290  0.73650  0.56590  1.0000 0.1034181025
H   H71       1.0  0.33290  0.76350  0.06590  1.0000 0.1034181025
H   H72       1.0  0.66710  0.26350  0.43410  1.0000 0.1034181025
H   H73       1.0  0.73800  0.30740  0.98140  1.0000 0.1114402068
H   H74       1.0  0.26200  0.80740  0.51860  1.0000 0.1114402068
H   H75       1.0  0.26200  0.69260  0.01860  1.0000 0.1114402068
H   H76       1.0  0.73800  0.19260  0.48140  1.0000 0.1114402068
H   H77       1.0  0.64710  0.49180  0.95500  1.0000 0.1215605307
H   H78       1.0  0.35290  0.99180  0.54500  1.0000 0.1215605307
H   H79       1.0  0.35290  0.50820  0.04500  1.0000 0.1215605307
H   H80       1.0  0.64710  0.00820  0.45500  1.0000 0.1215605307
H   H81       1.0  0.44630  0.29440  0.04010  1.0000 0.1296882806
H   H82       1.0  0.55370  0.79440  0.45990  1.0000 0.1296882806
H   H83       1.0  0.55370  0.70560  0.95990  1.0000 0.1296882806
H   H84       1.0  0.44630  0.20560  0.54010  1.0000 0.1296882806
C   C1        1.0  0.11850  0.93870  0.58280  1.0000 0.5421800446
C   C2        1.0  0.88150  0.43870  0.91720  1.0000 0.5421800446
C   C3        1.0  0.88150  0.06130  0.41720  1.0000 0.5421800446
C   C4        1.0  0.11850  0.56130  0.08280  1.0000 0.5421800446
C   C5        1.0  0.18270  0.91040  0.63360  1.0000 -0.0544901909
C   C6        1.0  0.81730  0.41040  0.86640  1.0000 -0.0544901909
C   C7        1.0  0.81730  0.08960  0.36640  1.0000 -0.0544901909
C   C8        1.0  0.18270  0.58960  0.13360  1.0000 -0.0544901909
C   C9        1.0  0.26320  0.00170  0.65290  1.0000 -0.0966334669
C   C10       1.0  0.73680  0.50170  0.84710  1.0000 -0.0966334669
C   C11       1.0  0.73680  0.99830  0.34710  1.0000 -0.0966334669
C   C12       1.0  0.26320  0.49830  0.15290  1.0000 -0.0966334669
C   C13       1.0  0.15960  0.79340  0.66430  1.0000 -0.0966334669
C   C14       1.0  0.84040  0.29340  0.83570  1.0000 -0.0966334669
C   C15       1.0  0.84040  0.20660  0.33570  1.0000 -0.0966334669
C   C16       1.0  0.15960  0.70660  0.16430  1.0000 -0.0966334669
C   C17       1.0  0.32160  0.97640  0.70010  1.0000 -0.1917335484
C   C18       1.0  0.67840  0.47640  0.79990  1.0000 -0.1917335484
C   C19       1.0  0.67840  0.02360  0.29990  1.0000 -0.1917335484
C   C20       1.0  0.32160  0.52360  0.20010  1.0000 -0.1917335484
C   C21       1.0  0.21670  0.76770  0.71160  1.0000 -0.1826496677
C   C22       1.0  0.78330  0.26770  0.78840  1.0000 -0.1826496677
C   C23       1.0  0.78330  0.23230  0.28840  1.0000 -0.1826496677
C   C24       1.0  0.21670  0.73230  0.21160  1.0000 -0.1826496677
C   C25       1.0  0.29920  0.85810  0.73050  1.0000 0.1894559916
C   C26       1.0  0.70080  0.35810  0.76950  1.0000 0.1894559916
C   C27       1.0  0.70080  0.14190  0.26950  1.0000 0.1894559916
C   C28       1.0  0.29920  0.64190  0.23050  1.0000 0.1894559916
C   C29       1.0  0.67590  0.92600  0.81610  1.0000 -0.1285904181
C   C30       1.0  0.32410  0.42600  0.68390  1.0000 -0.1285904181
C   C31       1.0  0.32410  0.07400  0.18390  1.0000 -0.1285904181
C   C32       1.0  0.67590  0.57400  0.31610  1.0000 -0.1285904181
C   C33       1.0  0.64020  0.87270  0.76650  1.0000 -0.0966334669
C   C34       1.0  0.35980  0.37270  0.73350  1.0000 -0.0966334669
C   C35       1.0  0.35980  0.12730  0.23350  1.0000 -0.0966334669
C   C36       1.0  0.64020  0.62730  0.26650  1.0000 -0.0966334669
C   C37       1.0  0.60660  0.94500  0.85220  1.0000 -0.0966334669
C   C38       1.0  0.39340  0.44500  0.64780  1.0000 -0.0966334669
C   C39       1.0  0.39340  0.05500  0.14780  1.0000 -0.0966334669
C   C40       1.0  0.60660  0.55500  0.35220  1.0000 -0.0966334669
C   C41       1.0  0.53090  0.84540  0.75430  1.0000 -0.1917335484
C   C42       1.0  0.46910  0.34540  0.74570  1.0000 -0.1917335484
C   C43       1.0  0.46910  0.15460  0.24570  1.0000 -0.1917335484
C   C44       1.0  0.53090  0.65460  0.25430  1.0000 -0.1917335484
C   C45       1.0  0.50060  0.91300  0.83950  1.0000 -0.1989833285
C   C46       1.0  0.49940  0.41300  0.66050  1.0000 -0.1989833285
C   C47       1.0  0.49940  0.08700  0.16050  1.0000 -0.1989833285
C   C48       1.0  0.50060  0.58700  0.33950  1.0000 -0.1989833285
C   C49       1.0  0.46280  0.86460  0.79110  1.0000 0.1698843669
C   C50       1.0  0.53720  0.36460  0.70890  1.0000 0.1698843669
C   C51       1.0  0.53720  0.13540  0.20890  1.0000 0.1698843669
C   C52       1.0  0.46280  0.63540  0.29110  1.0000 0.1698843669
C   C53       1.0  0.29790  0.77720  0.82080  1.0000 0.1619616877
C   C54       1.0  0.70210  0.27720  0.67920  1.0000 0.1619616877
C   C55       1.0  0.70210  0.22280  0.17920  1.0000 0.1619616877
C   C56       1.0  0.29790  0.72280  0.32080  1.0000 0.1619616877
C   C57       1.0  0.20650  0.84280  0.83260  1.0000 -0.1826496677
C   C58       1.0  0.79350  0.34280  0.66740  1.0000 -0.1826496677
C   C59       1.0  0.79350  0.15720  0.16740  1.0000 -0.1826496677
C   C60       1.0  0.20650  0.65720  0.33260  1.0000 -0.1826496677
C   C61       1.0  0.33440  0.65350  0.84830  1.0000 -0.1917335484
C   C62       1.0  0.66560  0.15350  0.65170  1.0000 -0.1917335484
C   C63       1.0  0.66560  0.34650  0.15170  1.0000 -0.1917335484
C   C64       1.0  0.33440  0.84650  0.34830  1.0000 -0.1917335484
C   C65       1.0  0.27860  0.60180  0.88680  1.0000 -0.0911849942
C   C66       1.0  0.72140  0.10180  0.61320  1.0000 -0.0911849942
C   C67       1.0  0.72140  0.39820  0.11320  1.0000 -0.0911849942
C   C68       1.0  0.27860  0.89820  0.38680  1.0000 -0.0911849942
C   C69       1.0  0.15030  0.78990  0.87150  1.0000 -0.0911849942
C   C70       1.0  0.84970  0.28990  0.62850  1.0000 -0.0911849942
C   C71       1.0  0.84970  0.21010  0.12850  1.0000 -0.0911849942
C   C72       1.0  0.15030  0.71010  0.37150  1.0000 -0.0911849942
C   C73       1.0  0.18620  0.66960  0.89920  1.0000 -0.0430532229
C   C74       1.0  0.81380  0.16960  0.60080  1.0000 -0.0430532229
C   C75       1.0  0.81380  0.33040  0.10080  1.0000 -0.0430532229
C   C76       1.0  0.18620  0.83040  0.39920  1.0000 -0.0430532229
C   C77       1.0  0.12240  0.60760  0.93930  1.0000 0.5421800446
C   C78       1.0  0.87760  0.10760  0.56070  1.0000 0.5421800446
C   C79       1.0  0.87760  0.39240  0.06070  1.0000 0.5421800446
C   C80       1.0  0.12240  0.89240  0.43930  1.0000 0.5421800446
C   C81       1.0  0.88230  0.92940  0.96760  1.0000 0.018819747
C   C82       1.0  0.11770  0.42940  0.53240  1.0000 0.018819747
C   C83       1.0  0.11770  0.07060  0.03240  1.0000 0.018819747
C   C84       1.0  0.88230  0.57060  0.46760  1.0000 0.018819747
C   C85       1.0  0.83080  0.05030  0.95510  1.0000 -0.163456807
C   C86       1.0  0.16920  0.55030  0.54490  1.0000 -0.163456807
C   C87       1.0  0.16920  0.94970  0.04490  1.0000 -0.163456807
C   C88       1.0  0.83080  0.44970  0.45510  1.0000 -0.163456807
C   C89       1.0  0.77870  0.84730  0.02700  1.0000 0.1114402068
C   C90       1.0  0.22130  0.34730  0.47300  1.0000 0.1114402068
C   C91       1.0  0.22130  0.15270  0.97300  1.0000 0.1114402068
C   C92       1.0  0.77870  0.65270  0.52700  1.0000 0.1114402068
C   C93       1.0  0.71510  0.98750  0.01840  1.0000 -0.2108722013
C   C94       1.0  0.28490  0.48750  0.48160  1.0000 -0.2108722013
C   C95       1.0  0.28490  0.01250  0.98160  1.0000 -0.2108722013
C   C96       1.0  0.71510  0.51250  0.51840  1.0000 -0.2108722013
C   C97       1.0  0.75200  0.07760  0.98230  1.0000 0.0867972057
C   C98       1.0  0.24800  0.57760  0.51770  1.0000 0.0867972057
C   C99       1.0  0.24800  0.92240  0.01770  1.0000 0.0867972057
C   C100      1.0  0.75200  0.42240  0.48230  1.0000 0.0867972057
C   C101      1.0  0.69000  0.22790  0.97150  1.0000 -0.0145556499
C   C102      1.0  0.31000  0.72790  0.52850  1.0000 -0.0145556499
C   C103      1.0  0.31000  0.77210  0.02850  1.0000 -0.0145556499
C   C104      1.0  0.69000  0.27210  0.47150  1.0000 -0.0145556499
C   C105      1.0  0.55630  0.37300  0.99730  1.0000 0.1894559916
C   C106      1.0  0.44370  0.87300  0.50270  1.0000 0.1894559916
C   C107      1.0  0.44370  0.62700  0.00270  1.0000 0.1894559916
C   C108      1.0  0.55630  0.12700  0.49730  1.0000 0.1894559916
C   C109      1.0  0.58760  0.49450  0.97340  1.0000 -0.2108722013
C   C110      1.0  0.41240  0.99450  0.52660  1.0000 -0.2108722013
C   C111      1.0  0.41240  0.50550  0.02660  1.0000 -0.2108722013
C   C112      1.0  0.58760  0.00550  0.47340  1.0000 -0.2108722013
C   C113      1.0  0.46860  0.37740  0.02380  1.0000 -0.1917335484
C   C114      1.0  0.53140  0.87740  0.47620  1.0000 -0.1917335484
C   C115      1.0  0.53140  0.62260  0.97620  1.0000 -0.1917335484
C   C116      1.0  0.46860  0.12260  0.52380  1.0000 -0.1917335484
N   N1        1.0  0.35460  0.83100  0.77980  1.0000 -0.1826496677
N   N2        1.0  0.64540  0.33100  0.72020  1.0000 -0.1826496677
N   N3        1.0  0.64540  0.16900  0.22020  1.0000 -0.1826496677
N   N4        1.0  0.35460  0.66900  0.27980  1.0000 -0.1826496677
N   N5        1.0  0.85810  0.82620  0.00160  1.0000 -0.2367391345
N   N6        1.0  0.14190  0.32620  0.49840  1.0000 -0.2367391345
N   N7        1.0  0.14190  0.17380  0.99840  1.0000 -0.2367391345
N   N8        1.0  0.85810  0.67380  0.50160  1.0000 -0.2367391345
O   O1        1.0  0.13800  0.05520  0.55924  1.0000 -0.5078602949
O   O2        1.0  0.86200  0.55520  0.94076  1.0000 -0.5078602949
O   O3        1.0  0.86200  0.94480  0.44076  1.0000 -0.5078602949
O   O4        1.0  0.13800  0.44480  0.05924  1.0000 -0.5078602949
O   O5        1.0  0.04900  0.84820  0.56628  1.0000 -0.5078602949
O   O6        1.0  0.95100  0.34820  0.93372  1.0000 -0.5078602949
O   O7        1.0  0.95100  0.15180  0.43372  1.0000 -0.5078602949
O   O8        1.0  0.04900  0.65180  0.06628  1.0000 -0.5078602949
O   O9        1.0  0.14150  0.47810  0.95285  1.0000 -0.500636274
O   O10       1.0  0.85850  0.97810  0.54715  1.0000 -0.500636274
O   O11       1.0  0.85850  0.52190  0.04715  1.0000 -0.500636274
O   O12       1.0  0.14150  0.02190  0.45285  1.0000 -0.500636274
O   O13       1.0  0.05440  0.68650  0.95669  1.0000 -0.5078602949
O   O14       1.0  0.94560  0.18650  0.54331  1.0000 -0.5078602949
O   O15       1.0  0.94560  0.31350  0.04331  1.0000 -0.5078602949
O   O16       1.0  0.05440  0.81350  0.45669  1.0000 -0.5078602949
O   O17       1.0  0.60580  0.23770  0.99820  1.0000 -0.1542089861
O   O18       1.0  0.39420  0.73770  0.50180  1.0000 -0.1542089861
O   O19       1.0  0.39420  0.76230  0.00180  1.0000 -0.1542089861
O   O20       1.0  0.60580  0.26230  0.49820  1.0000 -0.1542089861
