# DDEC6 charges by PACMAN v1.1 (https://github.com/mtap-research/PACMAN-charge/)
data_0000[Gd][nan]3[ASR]1
_chemical_formula_sum              "Gd12 H176 C320 O64"
_cell_length_a       30.1366
_cell_length_b       30.1366
_cell_length_c       32.3846
_cell_angle_alpha    90
_cell_angle_beta     90
_cell_angle_gamma    147.197

_symmetry_space_group_name_H-M    "P 1"
_symmetry_Int_Tables_number       1

loop_
  _symmetry_equiv_pos_as_xyz
  'x, y, z'

loop_
  _atom_site_type_symbol
  _atom_site_label
  _atom_site_symmetry_multiplicity
  _atom_site_fract_x
  _atom_site_fract_y
  _atom_site_fract_z
  _atom_site_occupancy
  _atom_site_charge
Gd  Gd1       1.0  0.65048  0.34952  0.50000  1.0000 1.995973877
Gd  Gd2       1.0  0.34952  0.65048  0.50000  1.0000 1.995973877
Gd  Gd3       1.0  0.84952  0.15048  0.00000  1.0000 1.995973877
Gd  Gd4       1.0  0.15048  0.84952  0.00000  1.0000 1.995973877
Gd  Gd5       1.0  0.38254  0.15406  0.48058  1.0000 1.995973877
Gd  Gd6       1.0  0.61746  0.84594  0.48058  1.0000 1.995973877
Gd  Gd7       1.0  0.84594  0.61746  0.51942  1.0000 1.995973877
Gd  Gd8       1.0  0.15406  0.38254  0.51942  1.0000 1.995973877
Gd  Gd9       1.0  0.11746  0.34594  0.01942  1.0000 1.995973877
Gd  Gd10      1.0  0.88254  0.65406  0.01942  1.0000 1.995973877
Gd  Gd11      1.0  0.65406  0.88254  0.98058  1.0000 1.995973877
Gd  Gd12      1.0  0.34594  0.11746  0.98058  1.0000 1.995973877
H   H1        1.0  0.49530  0.45690  0.32320  1.0000 0.1032089074
H   H2        1.0  0.50470  0.54310  0.32320  1.0000 0.1032089074
H   H3        1.0  0.54310  0.50470  0.67680  1.0000 0.1032089074
H   H4        1.0  0.45690  0.49530  0.67680  1.0000 0.1032089074
H   H5        1.0  0.00470  0.04310  0.17680  1.0000 0.1032089074
H   H6        1.0  0.99530  0.95690  0.17680  1.0000 0.1032089074
H   H7        1.0  0.95690  0.99530  0.82320  1.0000 0.1032089074
H   H8        1.0  0.04310  0.00470  0.82320  1.0000 0.1032089074
H   H9        1.0  0.64130  0.49210  0.26790  1.0000 0.1032089074
H   H10       1.0  0.35870  0.50790  0.26790  1.0000 0.1032089074
H   H11       1.0  0.50790  0.35870  0.73210  1.0000 0.1032089074
H   H12       1.0  0.49210  0.64130  0.73210  1.0000 0.1032089074
H   H13       1.0  0.85870  0.00790  0.23210  1.0000 0.1032089074
H   H14       1.0  0.14130  0.99210  0.23210  1.0000 0.1032089074
H   H15       1.0  0.99210  0.14130  0.76790  1.0000 0.1032089074
H   H16       1.0  0.00790  0.85870  0.76790  1.0000 0.1032089074
H   H17       1.0  0.56750  0.53990  0.20660  1.0000 0.1092866572
H   H18       1.0  0.43250  0.46010  0.20660  1.0000 0.1092866572
H   H19       1.0  0.46010  0.43250  0.79340  1.0000 0.1092866572
H   H20       1.0  0.53990  0.56750  0.79340  1.0000 0.1032089074
H   H21       1.0  0.93250  0.96010  0.29340  1.0000 0.1092866572
H   H22       1.0  0.06750  0.03990  0.29340  1.0000 0.1032089074
H   H23       1.0  0.03990  0.06750  0.70660  1.0000 0.1092866572
H   H24       1.0  0.96010  0.93250  0.70660  1.0000 0.1092866572
H   H25       1.0  0.44630  0.34910  0.35400  1.0000 0.1092866572
H   H26       1.0  0.55370  0.65090  0.35400  1.0000 0.1092866572
H   H27       1.0  0.65090  0.55370  0.64600  1.0000 0.1092866572
H   H28       1.0  0.34910  0.44630  0.64600  1.0000 0.1092866572
H   H29       1.0  0.05370  0.15090  0.14600  1.0000 0.1092866572
H   H30       1.0  0.94630  0.84910  0.14600  1.0000 0.1092866572
H   H31       1.0  0.84910  0.94630  0.85400  1.0000 0.1092866572
H   H32       1.0  0.15090  0.05370  0.85400  1.0000 0.1092866572
H   H33       1.0  0.44390  0.30150  0.41150  1.0000 0.1188930251
H   H34       1.0  0.55610  0.69850  0.41150  1.0000 0.1188930251
H   H35       1.0  0.69850  0.55610  0.58850  1.0000 0.1188930251
H   H36       1.0  0.30150  0.44390  0.58850  1.0000 0.1188930251
H   H37       1.0  0.05610  0.19850  0.08850  1.0000 0.1188930251
H   H38       1.0  0.94390  0.80150  0.08850  1.0000 0.1188930251
H   H39       1.0  0.80150  0.94390  0.91150  1.0000 0.1188930251
H   H40       1.0  0.19850  0.05610  0.91150  1.0000 0.1188930251
H   H41       1.0  0.67980  0.47160  0.39530  1.0000 0.1188930251
H   H42       1.0  0.32020  0.52840  0.39530  1.0000 0.1188930251
H   H43       1.0  0.52840  0.32020  0.60470  1.0000 0.1188930251
H   H44       1.0  0.47160  0.67980  0.60470  1.0000 0.1188930251
H   H45       1.0  0.82020  0.02840  0.10470  1.0000 0.1188930251
H   H46       1.0  0.17980  0.97160  0.10470  1.0000 0.1188930251
H   H47       1.0  0.97160  0.17980  0.89530  1.0000 0.1188930251
H   H48       1.0  0.02840  0.82020  0.89530  1.0000 0.1188930251
H   H49       1.0  0.68290  0.51710  0.33650  1.0000 0.1092866572
H   H50       1.0  0.31710  0.48290  0.33650  1.0000 0.1092866572
H   H51       1.0  0.48290  0.31710  0.66350  1.0000 0.1092866572
H   H52       1.0  0.51710  0.68290  0.66350  1.0000 0.1092866572
H   H53       1.0  0.81710  0.98290  0.16350  1.0000 0.1092866572
H   H54       1.0  0.18290  0.01710  0.16350  1.0000 0.1092866572
H   H55       1.0  0.01710  0.18290  0.83650  1.0000 0.1092866572
H   H56       1.0  0.98290  0.81710  0.83650  1.0000 0.1092866572
H   H57       1.0  0.65780  0.47900  0.20540  1.0000 0.1092866572
H   H58       1.0  0.34220  0.52100  0.20540  1.0000 0.1092866572
H   H59       1.0  0.52100  0.34220  0.79460  1.0000 0.1092866572
H   H60       1.0  0.47900  0.65780  0.79460  1.0000 0.1092866572
H   H61       1.0  0.84220  0.02100  0.29460  1.0000 0.1092866572
H   H62       1.0  0.15780  0.97900  0.29460  1.0000 0.1092866572
H   H63       1.0  0.97900  0.15780  0.70540  1.0000 0.1092866572
H   H64       1.0  0.02100  0.84220  0.70540  1.0000 0.1092866572
H   H65       1.0  0.73110  0.51710  0.14760  1.0000 0.1258923502
H   H66       1.0  0.26890  0.48290  0.14760  1.0000 0.1258923502
H   H67       1.0  0.48290  0.26890  0.85240  1.0000 0.1258923502
H   H68       1.0  0.51710  0.73110  0.85240  1.0000 0.1258923502
H   H69       1.0  0.76890  0.98290  0.35240  1.0000 0.1258923502
H   H70       1.0  0.23110  0.01710  0.35240  1.0000 0.1258923502
H   H71       1.0  0.01710  0.23110  0.64760  1.0000 0.1258923502
H   H72       1.0  0.98290  0.76890  0.64760  1.0000 0.1258923502
H   H73       1.0  0.74060  0.64560  0.10980  1.0000 0.1258923502
H   H74       1.0  0.25940  0.35440  0.10980  1.0000 0.1258923502
H   H75       1.0  0.35440  0.25940  0.89020  1.0000 0.1258923502
H   H76       1.0  0.64560  0.74060  0.89020  1.0000 0.1258923502
H   H77       1.0  0.75940  0.85440  0.39020  1.0000 0.1258923502
H   H78       1.0  0.24060  0.14560  0.39020  1.0000 0.1258923502
H   H79       1.0  0.14560  0.24060  0.60980  1.0000 0.1258923502
H   H80       1.0  0.85440  0.75940  0.60980  1.0000 0.1258923502
H   H81       1.0  0.66990  0.61010  0.16530  1.0000 0.1092866572
H   H82       1.0  0.33010  0.38990  0.16530  1.0000 0.1188930251
H   H83       1.0  0.38990  0.33010  0.83470  1.0000 0.1188930251
H   H84       1.0  0.61010  0.66990  0.83470  1.0000 0.1188930251
H   H85       1.0  0.83010  0.88990  0.33470  1.0000 0.1188930251
H   H86       1.0  0.16990  0.11010  0.33470  1.0000 0.1188930251
H   H87       1.0  0.11010  0.16990  0.66530  1.0000 0.1092866572
H   H88       1.0  0.88990  0.83010  0.66530  1.0000 0.1092866572
H   H89       1.0  0.95050  0.48710  0.32240  1.0000 0.1092866572
H   H90       1.0  0.04950  0.51290  0.32240  1.0000 0.1032089074
H   H91       1.0  0.51290  0.04950  0.67760  1.0000 0.1092866572
H   H92       1.0  0.48710  0.95050  0.67760  1.0000 0.1092866572
H   H93       1.0  0.54950  0.01290  0.17760  1.0000 0.1092866572
H   H94       1.0  0.45050  0.98710  0.17760  1.0000 0.1092866572
H   H95       1.0  0.98710  0.45050  0.82240  1.0000 0.1092866572
H   H96       1.0  0.01290  0.54950  0.82240  1.0000 0.1092866572
H   H97       1.0  0.93250  0.58690  0.26090  1.0000 0.1032089074
H   H98       1.0  0.06750  0.41310  0.26090  1.0000 0.1032089074
H   H99       1.0  0.41310  0.06750  0.73910  1.0000 0.1032089074
H   H100      1.0  0.58690  0.93250  0.73910  1.0000 0.1032089074
H   H101      1.0  0.56750  0.91310  0.23910  1.0000 0.1032089074
H   H102      1.0  0.43250  0.08690  0.23910  1.0000 0.1032089074
H   H103      1.0  0.08690  0.43250  0.76090  1.0000 0.1032089074
H   H104      1.0  0.91310  0.56750  0.76090  1.0000 0.1032089074
H   H105      1.0  0.02420  0.55720  0.20480  1.0000 0.1032089074
H   H106      1.0  0.97580  0.44280  0.20480  1.0000 0.1032089074
H   H107      1.0  0.44280  0.97580  0.79520  1.0000 0.1032089074
H   H108      1.0  0.55720  0.02420  0.79520  1.0000 0.1032089074
H   H109      1.0  0.47580  0.94280  0.29520  1.0000 0.1032089074
H   H110      1.0  0.52420  0.05720  0.29520  1.0000 0.1032089074
H   H111      1.0  0.05720  0.52420  0.70480  1.0000 0.1032089074
H   H112      1.0  0.94280  0.47580  0.70480  1.0000 0.1032089074
H   H113      1.0  0.96490  0.63890  0.32900  1.0000 0.1092866572
H   H114      1.0  0.03510  0.36110  0.32900  1.0000 0.1092866572
H   H115      1.0  0.36110  0.03510  0.67100  1.0000 0.1092866572
H   H116      1.0  0.63890  0.96490  0.67100  1.0000 0.1092866572
H   H117      1.0  0.53510  0.86110  0.17100  1.0000 0.1092866572
H   H118      1.0  0.46490  0.13890  0.17100  1.0000 0.1092866572
H   H119      1.0  0.13890  0.46490  0.82900  1.0000 0.1092866572
H   H120      1.0  0.86110  0.53510  0.82900  1.0000 0.1092866572
H   H121      1.0  0.91670  0.63350  0.38650  1.0000 0.1188930251
H   H122      1.0  0.08330  0.36650  0.38650  1.0000 0.1188930251
H   H123      1.0  0.36650  0.08330  0.61350  1.0000 0.1188930251
H   H124      1.0  0.63350  0.91670  0.61350  1.0000 0.1188930251
H   H125      1.0  0.58330  0.86650  0.11350  1.0000 0.1188930251
H   H126      1.0  0.41670  0.13350  0.11350  1.0000 0.1188930251
H   H127      1.0  0.13350  0.41670  0.88650  1.0000 0.1188930251
H   H128      1.0  0.86650  0.58330  0.88650  1.0000 0.1188930251
H   H129      1.0  0.78260  0.41540  0.41340  1.0000 0.1258923502
H   H130      1.0  0.21740  0.58460  0.41340  1.0000 0.1258923502
H   H131      1.0  0.58460  0.21740  0.58660  1.0000 0.1258923502
H   H132      1.0  0.41540  0.78260  0.58660  1.0000 0.1258923502
H   H133      1.0  0.71740  0.08460  0.08660  1.0000 0.1258923502
H   H134      1.0  0.28260  0.91540  0.08660  1.0000 0.1258923502
H   H135      1.0  0.91540  0.28260  0.91340  1.0000 0.1258923502
H   H136      1.0  0.08460  0.71740  0.91340  1.0000 0.1258923502
H   H137      1.0  0.83220  0.42080  0.35600  1.0000 0.1092866572
H   H138      1.0  0.16780  0.57920  0.35600  1.0000 0.1092866572
H   H139      1.0  0.57920  0.16780  0.64400  1.0000 0.1092866572
H   H140      1.0  0.42080  0.83220  0.64400  1.0000 0.1092866572
H   H141      1.0  0.66780  0.07920  0.14400  1.0000 0.1092866572
H   H142      1.0  0.33220  0.92080  0.14400  1.0000 0.1092866572
H   H143      1.0  0.92080  0.33220  0.85600  1.0000 0.1092866572
H   H144      1.0  0.07920  0.66780  0.85600  1.0000 0.1092866572
H   H145      1.0  0.10150  0.67890  0.17350  1.0000 0.1032089074
H   H146      1.0  0.89850  0.32110  0.17350  1.0000 0.1032089074
H   H147      1.0  0.32110  0.89850  0.82650  1.0000 0.1032089074
H   H148      1.0  0.67890  0.10150  0.82650  1.0000 0.1032089074
H   H149      1.0  0.39850  0.82110  0.32650  1.0000 0.1032089074
H   H150      1.0  0.60150  0.17890  0.32650  1.0000 0.1032089074
H   H151      1.0  0.17890  0.60150  0.67350  1.0000 0.1032089074
H   H152      1.0  0.82110  0.39850  0.67350  1.0000 0.1032089074
H   H153      1.0  0.12220  0.73680  0.11340  1.0000 0.1188930251
H   H154      1.0  0.87780  0.26320  0.11340  1.0000 0.1188930251
H   H155      1.0  0.26320  0.87780  0.88660  1.0000 0.1188930251
H   H156      1.0  0.73680  0.12220  0.88660  1.0000 0.1188930251
H   H157      1.0  0.37780  0.76320  0.38660  1.0000 0.1188930251
H   H158      1.0  0.62220  0.23680  0.38660  1.0000 0.1188930251
H   H159      1.0  0.23680  0.62220  0.61340  1.0000 0.1188930251
H   H160      1.0  0.76320  0.37780  0.61340  1.0000 0.1188930251
H   H161      1.0  0.90400  0.61080  0.12770  1.0000 0.1258923502
H   H162      1.0  0.09600  0.38920  0.12770  1.0000 0.1258923502
H   H163      1.0  0.38920  0.09600  0.87230  1.0000 0.1258923502
H   H164      1.0  0.61080  0.90400  0.87230  1.0000 0.1258923502
H   H165      1.0  0.59600  0.88920  0.37230  1.0000 0.1258923502
H   H166      1.0  0.40400  0.11080  0.37230  1.0000 0.1258923502
H   H167      1.0  0.11080  0.40400  0.62770  1.0000 0.1258923502
H   H168      1.0  0.88920  0.59600  0.62770  1.0000 0.1258923502
H   H169      1.0  0.88600  0.55780  0.18990  1.0000 0.1092866572
H   H170      1.0  0.11400  0.44220  0.18990  1.0000 0.1092866572
H   H171      1.0  0.44220  0.11400  0.81010  1.0000 0.1092866572
H   H172      1.0  0.55780  0.88600  0.81010  1.0000 0.1092866572
H   H173      1.0  0.61400  0.94220  0.31010  1.0000 0.1092866572
H   H174      1.0  0.38600  0.05780  0.31010  1.0000 0.1092866572
H   H175      1.0  0.05780  0.38600  0.68990  1.0000 0.1092866572
H   H176      1.0  0.94220  0.61400  0.68990  1.0000 0.1092866572
C   C1        1.0  0.52299  0.49821  0.26359  1.0000 0.0716189412
C   C2        1.0  0.47701  0.50179  0.26359  1.0000 0.0716189412
C   C3        1.0  0.50179  0.47701  0.73641  1.0000 0.0716189412
C   C4        1.0  0.49821  0.52299  0.73641  1.0000 0.0716189412
C   C5        1.0  0.97701  0.00179  0.23641  1.0000 0.0716189412
C   C6        1.0  0.02299  0.99821  0.23641  1.0000 0.0716189412
C   C7        1.0  0.99821  0.02299  0.76359  1.0000 0.0716189412
C   C8        1.0  0.00179  0.97701  0.76359  1.0000 0.0716189412
C   C9        1.0  0.52384  0.47196  0.29978  1.0000 -0.208377917
C   C10       1.0  0.47616  0.52804  0.29978  1.0000 -0.208377917
C   C11       1.0  0.52804  0.47616  0.70022  1.0000 -0.208377917
C   C12       1.0  0.47196  0.52384  0.70022  1.0000 -0.208377917
C   C13       1.0  0.97616  0.02804  0.20022  1.0000 -0.208377917
C   C14       1.0  0.02384  0.97196  0.20022  1.0000 -0.208377917
C   C15       1.0  0.97196  0.02384  0.79978  1.0000 -0.208377917
C   C16       1.0  0.02804  0.97616  0.79978  1.0000 -0.208377917
C   C17       1.0  0.56676  0.46864  0.30021  1.0000 0.0716189412
C   C18       1.0  0.43324  0.53136  0.30021  1.0000 0.0716189412
C   C19       1.0  0.53136  0.43324  0.69979  1.0000 0.0716189412
C   C20       1.0  0.46864  0.56676  0.69979  1.0000 0.0716189412
C   C21       1.0  0.93324  0.03136  0.19979  1.0000 0.0716189412
C   C22       1.0  0.06676  0.96864  0.19979  1.0000 0.0716189412
C   C23       1.0  0.96864  0.06676  0.80021  1.0000 0.0716189412
C   C24       1.0  0.03136  0.93324  0.80021  1.0000 0.0716189412
C   C25       1.0  0.61077  0.49243  0.26682  1.0000 -0.208377917
C   C26       1.0  0.38923  0.50757  0.26682  1.0000 -0.208377917
C   C27       1.0  0.50757  0.38923  0.73318  1.0000 -0.208377917
C   C28       1.0  0.49243  0.61077  0.73318  1.0000 -0.208377917
C   C29       1.0  0.88923  0.00757  0.23318  1.0000 -0.208377917
C   C30       1.0  0.11077  0.99243  0.23318  1.0000 -0.208377917
C   C31       1.0  0.99243  0.11077  0.76682  1.0000 -0.208377917
C   C32       1.0  0.00757  0.88923  0.76682  1.0000 -0.208377917
C   C33       1.0  0.60990  0.51790  0.22970  1.0000 0.0923770608
C   C34       1.0  0.39010  0.48210  0.22970  1.0000 0.0923770608
C   C35       1.0  0.48210  0.39010  0.77030  1.0000 0.0923770608
C   C36       1.0  0.51790  0.60990  0.77030  1.0000 0.0923770608
C   C37       1.0  0.89010  0.98210  0.27030  1.0000 0.0923770608
C   C38       1.0  0.10990  0.01790  0.27030  1.0000 0.0923770608
C   C39       1.0  0.01790  0.10990  0.72970  1.0000 0.0923770608
C   C40       1.0  0.98210  0.89010  0.72970  1.0000 0.0923770608
C   C41       1.0  0.56663  0.52137  0.22997  1.0000 -0.2047481418
C   C42       1.0  0.43337  0.47863  0.22997  1.0000 -0.2047481418
C   C43       1.0  0.47863  0.43337  0.77003  1.0000 -0.2047481418
C   C44       1.0  0.52137  0.56663  0.77003  1.0000 -0.2047481418
C   C45       1.0  0.93337  0.97863  0.27003  1.0000 -0.2047481418
C   C46       1.0  0.06663  0.02137  0.27003  1.0000 -0.2047481418
C   C47       1.0  0.02137  0.06663  0.72997  1.0000 -0.2047481418
C   C48       1.0  0.97863  0.93337  0.72997  1.0000 -0.208377917
C   C49       1.0  0.56424  0.43816  0.33821  1.0000 0.0716189412
C   C50       1.0  0.43576  0.56184  0.33821  1.0000 0.0716189412
C   C51       1.0  0.56184  0.43576  0.66179  1.0000 0.0716189412
C   C52       1.0  0.43816  0.56424  0.66179  1.0000 0.0716189412
C   C53       1.0  0.93576  0.06184  0.16179  1.0000 0.0716189412
C   C54       1.0  0.06424  0.93816  0.16179  1.0000 0.0716189412
C   C55       1.0  0.93816  0.06424  0.83821  1.0000 0.0716189412
C   C56       1.0  0.06184  0.93576  0.83821  1.0000 0.0716189412
C   C57       1.0  0.49360  0.37380  0.36170  1.0000 -0.1596590379
C   C58       1.0  0.50640  0.62620  0.36170  1.0000 -0.1596590379
C   C59       1.0  0.62620  0.50640  0.63830  1.0000 -0.1596590379
C   C60       1.0  0.37380  0.49360  0.63830  1.0000 -0.1596590379
C   C61       1.0  0.00640  0.12620  0.13830  1.0000 -0.1596590379
C   C62       1.0  0.99360  0.87380  0.13830  1.0000 -0.1596590379
C   C63       1.0  0.87380  0.99360  0.86170  1.0000 -0.1596590379
C   C64       1.0  0.12620  0.00640  0.86170  1.0000 -0.1596590379
C   C65       1.0  0.49224  0.34556  0.39650  1.0000 -0.1003691309
C   C66       1.0  0.50776  0.65444  0.39650  1.0000 -0.1003691309
C   C67       1.0  0.65444  0.50776  0.60350  1.0000 -0.1003691309
C   C68       1.0  0.34556  0.49224  0.60350  1.0000 -0.1003691309
C   C69       1.0  0.00776  0.15444  0.10350  1.0000 -0.1003691309
C   C70       1.0  0.99224  0.84556  0.10350  1.0000 -0.1003691309
C   C71       1.0  0.84556  0.99224  0.89650  1.0000 -0.1003691309
C   C72       1.0  0.15444  0.00776  0.89650  1.0000 -0.1003691309
C   C73       1.0  0.56143  0.38237  0.40872  1.0000 -0.0233507895
C   C74       1.0  0.43857  0.61763  0.40872  1.0000 -0.0233507895
C   C75       1.0  0.61763  0.43857  0.59128  1.0000 -0.0312348722
C   C76       1.0  0.38237  0.56143  0.59128  1.0000 -0.0312348722
C   C77       1.0  0.93857  0.11763  0.09128  1.0000 -0.0233507895
C   C78       1.0  0.06143  0.88237  0.09128  1.0000 -0.0233507895
C   C79       1.0  0.88237  0.06143  0.90872  1.0000 -0.0233507895
C   C80       1.0  0.11763  0.93857  0.90872  1.0000 -0.0312348722
C   C81       1.0  0.63275  0.44665  0.38660  1.0000 -0.1003691309
C   C82       1.0  0.36725  0.55335  0.38660  1.0000 -0.1003691309
C   C83       1.0  0.55335  0.36725  0.61340  1.0000 -0.1003691309
C   C84       1.0  0.44665  0.63275  0.61340  1.0000 -0.1003691309
C   C85       1.0  0.86725  0.05335  0.11340  1.0000 -0.1003691309
C   C86       1.0  0.13275  0.94665  0.11340  1.0000 -0.1003691309
C   C87       1.0  0.94665  0.13275  0.88660  1.0000 -0.1003691309
C   C88       1.0  0.05335  0.86725  0.88660  1.0000 -0.1003691309
C   C89       1.0  0.63459  0.47421  0.35154  1.0000 -0.1596590379
C   C90       1.0  0.36541  0.52579  0.35154  1.0000 -0.1596590379
C   C91       1.0  0.52579  0.36541  0.64846  1.0000 -0.1596590379
C   C92       1.0  0.47421  0.63459  0.64846  1.0000 -0.1596590379
C   C93       1.0  0.86541  0.02579  0.14846  1.0000 -0.1596590379
C   C94       1.0  0.13459  0.97421  0.14846  1.0000 -0.1596590379
C   C95       1.0  0.97421  0.13459  0.85154  1.0000 -0.1596590379
C   C96       1.0  0.02579  0.86541  0.85154  1.0000 -0.1596590379
C   C97       1.0  0.56091  0.35009  0.44620  1.0000 0.637008243
C   C98       1.0  0.43909  0.64991  0.44620  1.0000 0.637008243
C   C99       1.0  0.64991  0.43909  0.55380  1.0000 0.637008243
C   C100      1.0  0.35009  0.56091  0.55380  1.0000 0.637008243
C   C101      1.0  0.93909  0.14991  0.05380  1.0000 0.637008243
C   C102      1.0  0.06091  0.85009  0.05380  1.0000 0.637008243
C   C103      1.0  0.85009  0.06091  0.94620  1.0000 0.637008243
C   C104      1.0  0.14991  0.93909  0.94620  1.0000 0.637008243
C   C105      1.0  0.65780  0.54280  0.19284  1.0000 0.0544039279
C   C106      1.0  0.34220  0.45720  0.19284  1.0000 0.0544039279
C   C107      1.0  0.45720  0.34220  0.80716  1.0000 0.0544039279
C   C108      1.0  0.54280  0.65780  0.80716  1.0000 0.0544039279
C   C109      1.0  0.84220  0.95720  0.30716  1.0000 0.0544039279
C   C110      1.0  0.15780  0.04280  0.30716  1.0000 0.0544039279
C   C111      1.0  0.04280  0.15780  0.69284  1.0000 0.0544039279
C   C112      1.0  0.95720  0.84220  0.69284  1.0000 0.0544039279
C   C113      1.0  0.67545  0.51475  0.18630  1.0000 -0.1861753121
C   C114      1.0  0.32455  0.48525  0.18630  1.0000 -0.1861753121
C   C115      1.0  0.48525  0.32455  0.81370  1.0000 -0.1846523762
C   C116      1.0  0.51475  0.67545  0.81370  1.0000 -0.1861753121
C   C117      1.0  0.82455  0.98525  0.31370  1.0000 -0.1861753121
C   C118      1.0  0.17545  0.01475  0.31370  1.0000 -0.1861753121
C   C119      1.0  0.01475  0.17545  0.68630  1.0000 -0.1846523762
C   C120      1.0  0.98525  0.82455  0.68630  1.0000 -0.1861753121
C   C121      1.0  0.72008  0.53792  0.15120  1.0000 -0.1070360292
C   C122      1.0  0.27992  0.46208  0.15120  1.0000 -0.1070360292
C   C123      1.0  0.46208  0.27992  0.84880  1.0000 -0.1070360292
C   C124      1.0  0.53792  0.72008  0.84880  1.0000 -0.1070360292
C   C125      1.0  0.77992  0.96208  0.34880  1.0000 -0.1070360292
C   C126      1.0  0.22008  0.03792  0.34880  1.0000 -0.1070360292
C   C127      1.0  0.03792  0.22008  0.65120  1.0000 -0.1070360292
C   C128      1.0  0.96208  0.77992  0.65120  1.0000 -0.1070360292
C   C129      1.0  0.74543  0.58737  0.12415  1.0000 -0.0233507895
C   C130      1.0  0.25457  0.41263  0.12415  1.0000 -0.0233507895
C   C131      1.0  0.41263  0.25457  0.87585  1.0000 -0.0233507895
C   C132      1.0  0.58737  0.74543  0.87585  1.0000 -0.0233507895
C   C133      1.0  0.75457  0.91263  0.37585  1.0000 -0.0233507895
C   C134      1.0  0.24543  0.08737  0.37585  1.0000 -0.0233507895
C   C135      1.0  0.08737  0.24543  0.62415  1.0000 -0.0233507895
C   C136      1.0  0.91263  0.75457  0.62415  1.0000 -0.0233507895
C   C137      1.0  0.72503  0.61197  0.12970  1.0000 -0.119804281
C   C138      1.0  0.27497  0.38803  0.12970  1.0000 -0.119804281
C   C139      1.0  0.38803  0.27497  0.87030  1.0000 -0.119804281
C   C140      1.0  0.61197  0.72503  0.87030  1.0000 -0.119804281
C   C141      1.0  0.77497  0.88803  0.37030  1.0000 -0.119804281
C   C142      1.0  0.22503  0.11197  0.37030  1.0000 -0.119804281
C   C143      1.0  0.11197  0.22503  0.62970  1.0000 -0.119804281
C   C144      1.0  0.88803  0.77497  0.62970  1.0000 -0.119804281
C   C145      1.0  0.68228  0.59052  0.16320  1.0000 -0.1735971675
C   C146      1.0  0.31772  0.40948  0.16320  1.0000 -0.1735971675
C   C147      1.0  0.40948  0.31772  0.83680  1.0000 -0.1735971675
C   C148      1.0  0.59052  0.68228  0.83680  1.0000 -0.1735971675
C   C149      1.0  0.81772  0.90948  0.33680  1.0000 -0.1735971675
C   C150      1.0  0.18228  0.09052  0.33680  1.0000 -0.1735971675
C   C151      1.0  0.09052  0.18228  0.66320  1.0000 -0.1735971675
C   C152      1.0  0.90948  0.81772  0.66320  1.0000 -0.1735971675
C   C153      1.0  0.79331  0.61229  0.08630  1.0000 0.5572531789
C   C154      1.0  0.20669  0.38771  0.08630  1.0000 0.5572531789
C   C155      1.0  0.38771  0.20669  0.91370  1.0000 0.5572531789
C   C156      1.0  0.61229  0.79331  0.91370  1.0000 0.5572531789
C   C157      1.0  0.70669  0.88771  0.41370  1.0000 0.5572531789
C   C158      1.0  0.29331  0.11229  0.41370  1.0000 0.5572531789
C   C159      1.0  0.11229  0.29331  0.58630  1.0000 0.5572531789
C   C160      1.0  0.88771  0.70669  0.58630  1.0000 0.5572531789
C   C161      1.0  0.98812  0.51428  0.26348  1.0000 0.0756452232
C   C162      1.0  0.01188  0.48572  0.26348  1.0000 0.0756452232
C   C163      1.0  0.48572  0.01188  0.73652  1.0000 0.0756452232
C   C164      1.0  0.51428  0.98812  0.73652  1.0000 0.0756452232
C   C165      1.0  0.51188  0.98572  0.23652  1.0000 0.0756452232
C   C166      1.0  0.48812  0.01428  0.23652  1.0000 0.0756452232
C   C167      1.0  0.01428  0.48812  0.76348  1.0000 0.0756452232
C   C168      1.0  0.98572  0.51188  0.76348  1.0000 0.0756452232
C   C169      1.0  0.95685  0.50875  0.29822  1.0000 -0.208377917
C   C170      1.0  0.04315  0.49125  0.29822  1.0000 -0.208377917
C   C171      1.0  0.49125  0.04315  0.70178  1.0000 -0.208377917
C   C172      1.0  0.50875  0.95685  0.70178  1.0000 -0.208377917
C   C173      1.0  0.54315  0.99125  0.20178  1.0000 -0.208377917
C   C174      1.0  0.45685  0.00875  0.20178  1.0000 -0.208377917
C   C175      1.0  0.00875  0.45685  0.79822  1.0000 -0.208377917
C   C176      1.0  0.99125  0.54315  0.79822  1.0000 -0.208377917
C   C177      1.0  0.93473  0.53487  0.29796  1.0000 0.0716189412
C   C178      1.0  0.06527  0.46513  0.29796  1.0000 0.0716189412
C   C179      1.0  0.46513  0.06527  0.70204  1.0000 0.0756452232
C   C180      1.0  0.53487  0.93473  0.70204  1.0000 0.0716189412
C   C181      1.0  0.56527  0.96513  0.20204  1.0000 0.0716189412
C   C182      1.0  0.43473  0.03487  0.20204  1.0000 0.0716189412
C   C183      1.0  0.03487  0.43473  0.79796  1.0000 0.0716189412
C   C184      1.0  0.96513  0.56527  0.79796  1.0000 0.0756452232
C   C185      1.0  0.94635  0.56865  0.26162  1.0000 -0.208377917
C   C186      1.0  0.05365  0.43135  0.26162  1.0000 -0.2047481418
C   C187      1.0  0.43135  0.05365  0.73838  1.0000 -0.2047481418
C   C188      1.0  0.56865  0.94635  0.73838  1.0000 -0.2047481418
C   C189      1.0  0.55365  0.93135  0.23838  1.0000 -0.2047481418
C   C190      1.0  0.44635  0.06865  0.23838  1.0000 -0.2047481418
C   C191      1.0  0.06865  0.44635  0.76162  1.0000 -0.2047481418
C   C192      1.0  0.93135  0.55365  0.76162  1.0000 -0.2047481418
C   C193      1.0  0.97800  0.57540  0.22652  1.0000 0.0716189412
C   C194      1.0  0.02200  0.42460  0.22652  1.0000 0.0716189412
C   C195      1.0  0.42460  0.02200  0.77348  1.0000 0.0716189412
C   C196      1.0  0.57540  0.97800  0.77348  1.0000 0.0716189412
C   C197      1.0  0.52200  0.92460  0.27348  1.0000 0.0716189412
C   C198      1.0  0.47800  0.07540  0.27348  1.0000 0.0716189412
C   C199      1.0  0.07540  0.47800  0.72652  1.0000 0.0716189412
C   C200      1.0  0.92460  0.52200  0.72652  1.0000 0.0716189412
C   C201      1.0  0.00042  0.55018  0.22794  1.0000 -0.208377917
C   C202      1.0  0.99958  0.44982  0.22794  1.0000 -0.208377917
C   C203      1.0  0.44982  0.99958  0.77206  1.0000 -0.208377917
C   C204      1.0  0.55018  0.00042  0.77206  1.0000 -0.208377917
C   C205      1.0  0.49958  0.94982  0.27206  1.0000 -0.208377917
C   C206      1.0  0.50042  0.05018  0.27206  1.0000 -0.208377917
C   C207      1.0  0.05018  0.50042  0.72794  1.0000 -0.208377917
C   C208      1.0  0.94982  0.49958  0.72794  1.0000 -0.208377917
C   C209      1.0  0.90221  0.52919  0.33579  1.0000 0.0636092683
C   C210      1.0  0.09779  0.47081  0.33579  1.0000 0.0636092683
C   C211      1.0  0.47081  0.09779  0.66421  1.0000 0.0636092683
C   C212      1.0  0.52919  0.90221  0.66421  1.0000 0.0636092683
C   C213      1.0  0.59779  0.97081  0.16421  1.0000 0.0636092683
C   C214      1.0  0.40221  0.02919  0.16421  1.0000 0.0636092683
C   C215      1.0  0.02919  0.40221  0.83579  1.0000 0.0636092683
C   C216      1.0  0.97081  0.59779  0.83579  1.0000 0.0636092683
C   C217      1.0  0.92779  0.59321  0.34610  1.0000 -0.1596590379
C   C218      1.0  0.07221  0.40679  0.34610  1.0000 -0.1596590379
C   C219      1.0  0.40679  0.07221  0.65390  1.0000 -0.1596590379
C   C220      1.0  0.59321  0.92779  0.65390  1.0000 -0.1596590379
C   C221      1.0  0.57221  0.90679  0.15390  1.0000 -0.1596590379
C   C222      1.0  0.42779  0.09321  0.15390  1.0000 -0.1596590379
C   C223      1.0  0.09321  0.42779  0.84610  1.0000 -0.1596590379
C   C224      1.0  0.90679  0.57221  0.84610  1.0000 -0.1596590379
C   C225      1.0  0.89992  0.59068  0.38040  1.0000 -0.1003691309
C   C226      1.0  0.10008  0.40932  0.38040  1.0000 -0.1003691309
C   C227      1.0  0.40932  0.10008  0.61960  1.0000 -0.1003691309
C   C228      1.0  0.59068  0.89992  0.61960  1.0000 -0.1003691309
C   C229      1.0  0.60008  0.90932  0.11960  1.0000 -0.1003691309
C   C230      1.0  0.39992  0.09068  0.11960  1.0000 -0.1003691309
C   C231      1.0  0.09068  0.39992  0.88040  1.0000 -0.1003691309
C   C232      1.0  0.90932  0.60008  0.88040  1.0000 -0.1003691309
C   C233      1.0  0.84573  0.52287  0.40660  1.0000 -0.0312348722
C   C234      1.0  0.15427  0.47713  0.40660  1.0000 -0.0312348722
C   C235      1.0  0.47713  0.15427  0.59340  1.0000 -0.0312348722
C   C236      1.0  0.52287  0.84573  0.59340  1.0000 -0.0312348722
C   C237      1.0  0.65427  0.97713  0.09340  1.0000 -0.0312348722
C   C238      1.0  0.34573  0.02287  0.09340  1.0000 -0.0312348722
C   C239      1.0  0.02287  0.34573  0.90660  1.0000 -0.0312348722
C   C240      1.0  0.97713  0.65427  0.90660  1.0000 -0.0312348722
C   C241      1.0  0.82063  0.46157  0.39650  1.0000 -0.1070360292
C   C242      1.0  0.17937  0.53843  0.39650  1.0000 -0.1070360292
C   C243      1.0  0.53843  0.17937  0.60350  1.0000 -0.1070360292
C   C244      1.0  0.46157  0.82063  0.60350  1.0000 -0.1070360292
C   C245      1.0  0.67937  0.03843  0.10350  1.0000 -0.1070360292
C   C246      1.0  0.32063  0.96157  0.10350  1.0000 -0.1070360292
C   C247      1.0  0.96157  0.32063  0.89650  1.0000 -0.1070360292
C   C248      1.0  0.03843  0.67937  0.89650  1.0000 -0.1070360292
C   C249      1.0  0.84927  0.46393  0.36165  1.0000 -0.1596590379
C   C250      1.0  0.15073  0.53607  0.36165  1.0000 -0.1596590379
C   C251      1.0  0.53607  0.15073  0.63835  1.0000 -0.1596590379
C   C252      1.0  0.46393  0.84927  0.63835  1.0000 -0.1596590379
C   C253      1.0  0.65073  0.03607  0.13835  1.0000 -0.1596590379
C   C254      1.0  0.34927  0.96393  0.13835  1.0000 -0.1596590379
C   C255      1.0  0.96393  0.34927  0.86165  1.0000 -0.1596590379
C   C256      1.0  0.03607  0.65073  0.86165  1.0000 -0.1596590379
C   C257      1.0  0.81800  0.52180  0.44710  1.0000 0.6307823926
C   C258      1.0  0.18200  0.47820  0.44710  1.0000 0.6307823926
C   C259      1.0  0.47820  0.18200  0.55290  1.0000 0.6307823926
C   C260      1.0  0.52180  0.81800  0.55290  1.0000 0.6307823926
C   C261      1.0  0.68200  0.97820  0.05290  1.0000 0.6307823926
C   C262      1.0  0.31800  0.02180  0.05290  1.0000 0.6307823926
C   C263      1.0  0.02180  0.31800  0.94710  1.0000 0.6307823926
C   C264      1.0  0.97820  0.68200  0.94710  1.0000 0.6307823926
C   C265      1.0  0.99119  0.61241  0.18739  1.0000 0.0636092683
C   C266      1.0  0.00881  0.38759  0.18739  1.0000 0.0636092683
C   C267      1.0  0.38759  0.00881  0.81261  1.0000 0.0636092683
C   C268      1.0  0.61241  0.99119  0.81261  1.0000 0.0636092683
C   C269      1.0  0.50881  0.88759  0.31261  1.0000 0.0636092683
C   C270      1.0  0.49119  0.11241  0.31261  1.0000 0.0636092683
C   C271      1.0  0.11241  0.49119  0.68739  1.0000 0.0636092683
C   C272      1.0  0.88759  0.50881  0.68739  1.0000 0.0636092683
C   C273      1.0  0.06201  0.66579  0.16456  1.0000 -0.1596590379
C   C274      1.0  0.93799  0.33421  0.16456  1.0000 -0.1596590379
C   C275      1.0  0.33421  0.93799  0.83544  1.0000 -0.1596590379
C   C276      1.0  0.66579  0.06201  0.83544  1.0000 -0.1596590379
C   C277      1.0  0.43799  0.83421  0.33544  1.0000 -0.1596590379
C   C278      1.0  0.56201  0.16579  0.33544  1.0000 -0.1596590379
C   C279      1.0  0.16579  0.56201  0.66456  1.0000 -0.1596590379
C   C280      1.0  0.83421  0.43799  0.66456  1.0000 -0.1596590379
C   C281      1.0  0.07396  0.69964  0.12834  1.0000 -0.1003691309
C   C282      1.0  0.92604  0.30036  0.12834  1.0000 -0.1003691309
C   C283      1.0  0.30036  0.92604  0.87166  1.0000 -0.1003691309
C   C284      1.0  0.69964  0.07396  0.87166  1.0000 -0.1003691309
C   C285      1.0  0.42604  0.80036  0.37166  1.0000 -0.1003691309
C   C286      1.0  0.57396  0.19964  0.37166  1.0000 -0.1003691309
C   C287      1.0  0.19964  0.57396  0.62834  1.0000 -0.1003691309
C   C288      1.0  0.80036  0.42604  0.62834  1.0000 -0.1003691309
C   C289      1.0  0.01400  0.67820  0.11435  1.0000 -0.0365016696
C   C290      1.0  0.98600  0.32180  0.11435  1.0000 -0.0365016696
C   C291      1.0  0.32180  0.98600  0.88565  1.0000 -0.0365016696
C   C292      1.0  0.67820  0.01400  0.88565  1.0000 -0.0365016696
C   C293      1.0  0.48600  0.82180  0.38565  1.0000 -0.0365016696
C   C294      1.0  0.51400  0.17820  0.38565  1.0000 -0.0365016696
C   C295      1.0  0.17820  0.51400  0.61435  1.0000 -0.0365016696
C   C296      1.0  0.82180  0.48600  0.61435  1.0000 -0.0365016696
C   C297      1.0  0.94441  0.62539  0.13698  1.0000 -0.1003691309
C   C298      1.0  0.05559  0.37461  0.13698  1.0000 -0.1003691309
C   C299      1.0  0.37461  0.05559  0.86302  1.0000 -0.1003691309
C   C300      1.0  0.62539  0.94441  0.86302  1.0000 -0.1003691309
C   C301      1.0  0.55559  0.87461  0.36302  1.0000 -0.1003691309
C   C302      1.0  0.44441  0.12539  0.36302  1.0000 -0.1003691309
C   C303      1.0  0.12539  0.44441  0.63698  1.0000 -0.1003691309
C   C304      1.0  0.87461  0.55559  0.63698  1.0000 -0.1003691309
C   C305      1.0  0.93293  0.59267  0.17429  1.0000 -0.1596590379
C   C306      1.0  0.06707  0.40733  0.17429  1.0000 -0.1596590379
C   C307      1.0  0.40733  0.06707  0.82571  1.0000 -0.1596590379
C   C308      1.0  0.59267  0.93293  0.82571  1.0000 -0.1596590379
C   C309      1.0  0.56707  0.90733  0.32571  1.0000 -0.1596590379
C   C310      1.0  0.43293  0.09267  0.32571  1.0000 -0.1596590379
C   C311      1.0  0.09267  0.43293  0.67429  1.0000 -0.1596590379
C   C312      1.0  0.90733  0.56707  0.67429  1.0000 -0.1596590379
C   C313      1.0  0.02711  0.71249  0.07280  1.0000 0.637008243
C   C314      1.0  0.97289  0.28751  0.07280  1.0000 0.637008243
C   C315      1.0  0.28751  0.97289  0.92720  1.0000 0.637008243
C   C316      1.0  0.71249  0.02711  0.92720  1.0000 0.637008243
C   C317      1.0  0.47289  0.78751  0.42720  1.0000 0.637008243
C   C318      1.0  0.52711  0.21249  0.42720  1.0000 0.637008243
C   C319      1.0  0.21249  0.52711  0.57280  1.0000 0.637008243
C   C320      1.0  0.78751  0.47289  0.57280  1.0000 0.637008243
O   O1        1.0  0.62419  0.38421  0.45492  1.0000 -0.6308583573
O   O2        1.0  0.37581  0.61579  0.45492  1.0000 -0.6308583573
O   O3        1.0  0.61579  0.37581  0.54508  1.0000 -0.6308583573
O   O4        1.0  0.38421  0.62419  0.54508  1.0000 -0.6308583573
O   O5        1.0  0.87581  0.11579  0.04508  1.0000 -0.6308583573
O   O6        1.0  0.12419  0.88421  0.04508  1.0000 -0.6308583573
O   O7        1.0  0.88421  0.12419  0.95492  1.0000 -0.6308583573
O   O8        1.0  0.11579  0.87581  0.95492  1.0000 -0.6308583573
O   O9        1.0  0.49350  0.29070  0.46427  1.0000 -0.6964961544
O   O10       1.0  0.50650  0.70930  0.46427  1.0000 -0.6964961544
O   O11       1.0  0.70930  0.50650  0.53573  1.0000 -0.6964961544
O   O12       1.0  0.29070  0.49350  0.53573  1.0000 -0.6964961544
O   O13       1.0  0.00650  0.20930  0.03573  1.0000 -0.6964961544
O   O14       1.0  0.99350  0.79070  0.03573  1.0000 -0.6964961544
O   O15       1.0  0.79070  0.99350  0.96427  1.0000 -0.6964961544
O   O16       1.0  0.20930  0.00650  0.96427  1.0000 -0.6964961544
O   O17       1.0  0.80851  0.58429  0.08364  1.0000 -0.6205787205
O   O18       1.0  0.19149  0.41571  0.08364  1.0000 -0.6205787205
O   O19       1.0  0.41571  0.19149  0.91636  1.0000 -0.6205787205
O   O20       1.0  0.58429  0.80851  0.91636  1.0000 -0.6205787205
O   O21       1.0  0.69149  0.91571  0.41636  1.0000 -0.6205787205
O   O22       1.0  0.30851  0.08429  0.41636  1.0000 -0.6205787205
O   O23       1.0  0.08429  0.30851  0.58364  1.0000 -0.6205787205
O   O24       1.0  0.91571  0.69149  0.58364  1.0000 -0.6205787205
O   O25       1.0  0.81198  0.65242  0.05871  1.0000 -0.5635277868
O   O26       1.0  0.18802  0.34758  0.05871  1.0000 -0.5635277868
O   O27       1.0  0.34758  0.18802  0.94129  1.0000 -0.565943567
O   O28       1.0  0.65242  0.81198  0.94129  1.0000 -0.565943567
O   O29       1.0  0.68802  0.84758  0.44129  1.0000 -0.5635277868
O   O30       1.0  0.31198  0.15242  0.44129  1.0000 -0.5635277868
O   O31       1.0  0.15242  0.31198  0.55871  1.0000 -0.565943567
O   O32       1.0  0.84758  0.68802  0.55871  1.0000 -0.5635277868
O   O33       1.0  0.76985  0.45955  0.46863  1.0000 -0.6924703599
O   O34       1.0  0.23015  0.54045  0.46863  1.0000 -0.6924703599
O   O35       1.0  0.54045  0.23015  0.53137  1.0000 -0.6924703599
O   O36       1.0  0.45955  0.76985  0.53137  1.0000 -0.6924703599
O   O37       1.0  0.73015  0.04045  0.03137  1.0000 -0.6924703599
O   O38       1.0  0.26985  0.95955  0.03137  1.0000 -0.6924703599
O   O39       1.0  0.95955  0.26985  0.96863  1.0000 -0.6924703599
O   O40       1.0  0.04045  0.73015  0.96863  1.0000 -0.6924703599
O   O41       1.0  0.84205  0.57795  0.45540  1.0000 -0.6205787205
O   O42       1.0  0.15795  0.42205  0.45540  1.0000 -0.6205787205
O   O43       1.0  0.42205  0.15795  0.54460  1.0000 -0.6205787205
O   O44       1.0  0.57795  0.84205  0.54460  1.0000 -0.6205787205
O   O45       1.0  0.65795  0.92205  0.04460  1.0000 -0.6205787205
O   O46       1.0  0.34205  0.07795  0.04460  1.0000 -0.6205787205
O   O47       1.0  0.07795  0.34205  0.95540  1.0000 -0.6205787205
O   O48       1.0  0.92205  0.65795  0.95540  1.0000 -0.6205787205
O   O49       1.0  0.96720  0.68120  0.05910  1.0000 -0.6601425365
O   O50       1.0  0.03280  0.31880  0.05910  1.0000 -0.6601425365
O   O51       1.0  0.31880  0.03280  0.94090  1.0000 -0.6601425365
O   O52       1.0  0.68120  0.96720  0.94090  1.0000 -0.6601425365
O   O53       1.0  0.53280  0.81880  0.44090  1.0000 -0.6601425365
O   O54       1.0  0.46720  0.18120  0.44090  1.0000 -0.6601425365
O   O55       1.0  0.18120  0.46720  0.55910  1.0000 -0.6601425365
O   O56       1.0  0.81880  0.53280  0.55910  1.0000 -0.6601425365
O   O57       1.0  0.09514  0.76806  0.05702  1.0000 -0.6473131061
O   O58       1.0  0.90486  0.23194  0.05702  1.0000 -0.6473131061
O   O59       1.0  0.23194  0.90486  0.94298  1.0000 -0.6473131061
O   O60       1.0  0.76806  0.09514  0.94298  1.0000 -0.6473131061
O   O61       1.0  0.40486  0.73194  0.44298  1.0000 -0.6473131061
O   O62       1.0  0.59514  0.26806  0.44298  1.0000 -0.6473131061
O   O63       1.0  0.26806  0.59514  0.55702  1.0000 -0.6473131061
O   O64       1.0  0.73194  0.40486  0.55702  1.0000 -0.6473131061
