# DDEC6 charges by PACMAN v1.1 (https://github.com/mtap-research/PACMAN-charge/)
data_0000[Cd][nan]3[ASR]10
_chemical_formula_sum              "Cd8 H120 C148 N32 O36"
_cell_length_a       12.705
_cell_length_b       24.2253
_cell_length_c       15.0542
_cell_angle_alpha    90
_cell_angle_beta     92.802
_cell_angle_gamma    90

_symmetry_space_group_name_H-M    "P 1"
_symmetry_Int_Tables_number       1

loop_
  _symmetry_equiv_pos_as_xyz
  'x, y, z'

loop_
  _atom_site_type_symbol
  _atom_site_label
  _atom_site_symmetry_multiplicity
  _atom_site_fract_x
  _atom_site_fract_y
  _atom_site_fract_z
  _atom_site_occupancy
  _atom_site_charge
Cd  Cd1       1.0  0.03730  0.09532  0.94574  1.0000 0.8746557486
Cd  Cd2       1.0  0.96270  0.59532  0.05426  1.0000 0.8746557486
Cd  Cd3       1.0  0.04232  0.09023  0.67351  1.0000 0.9292829287
Cd  Cd4       1.0  0.95768  0.59023  0.32649  1.0000 0.9292829287
Cd  Cd5       1.0  0.50280  0.10083  0.21875  1.0000 0.8822866332
Cd  Cd6       1.0  0.49720  0.60083  0.78125  1.0000 0.8822866332
Cd  Cd7       1.0  0.48854  0.09426  0.49110  1.0000 0.9292829287
Cd  Cd8       1.0  0.51146  0.59426  0.50890  1.0000 0.9292829287
H   H1        1.0  0.03150  0.46690  0.10190  1.0000 0.1096708081
H   H2        1.0  0.96850  0.96690  0.89810  1.0000 0.1096708081
H   H3        1.0  0.30380  0.11820  0.74640  1.0000 0.1390104057
H   H4        1.0  0.69620  0.61820  0.25360  1.0000 0.1390104057
H   H5        1.0  0.86330  0.16470  0.43650  1.0000 0.1197969685
H   H6        1.0  0.13670  0.66470  0.56350  1.0000 0.1197969685
H   H7        1.0  0.77860  0.60940  0.52760  1.0000 0.1310588608
H   H8        1.0  0.22140  0.10940  0.47240  1.0000 0.1310588608
H   H9        1.0  0.11660  0.31390  0.65800  1.0000 0.1310588608
H   H10       1.0  0.88340  0.81390  0.34200  1.0000 0.1310588608
H   H11       1.0  0.69300  0.62080  0.00610  1.0000 0.1390104057
H   H12       1.0  0.30700  0.12080  0.99390  1.0000 0.1390104057
H   H13       1.0  0.39950  0.31320  0.12410  1.0000 0.1310588608
H   H14       1.0  0.60050  0.81320  0.87590  1.0000 0.1310588608
H   H15       1.0  0.03800  0.06980  0.28120  1.0000 0.1310588608
H   H16       1.0  0.96200  0.56980  0.71880  1.0000 0.1310588608
H   H17       1.0  0.88700  0.81500  0.08200  1.0000 0.1310588608
H   H18       1.0  0.11300  0.31500  0.91800  1.0000 0.1310588608
H   H19       1.0  0.45850  0.46400  0.56590  1.0000 0.1096708081
H   H20       1.0  0.54150  0.96400  0.43410  1.0000 0.1096708081
H   H21       1.0  0.79410  0.23190  0.72320  1.0000 0.1096708081
H   H22       1.0  0.20590  0.73190  0.27680  1.0000 0.1096708081
H   H23       1.0  0.87790  0.68950  0.57630  1.0000 0.1310588608
H   H24       1.0  0.12210  0.18950  0.42370  1.0000 0.1310588608
H   H25       1.0  0.97340  0.95890  0.63520  1.0000 0.1197969685
H   H26       1.0  0.02660  0.45890  0.36480  1.0000 0.1197969685
H   H27       1.0  0.24150  0.56980  0.49220  1.0000 0.1390104057
H   H28       1.0  0.75850  0.06980  0.50780  1.0000 0.1390104057
H   H29       1.0  0.55010  0.97190  0.16730  1.0000 0.1197969685
H   H30       1.0  0.44990  0.47190  0.83270  1.0000 0.1197969685
H   H31       1.0  0.14000  0.40490  0.61700  1.0000 0.1390104057
H   H32       1.0  0.86000  0.90490  0.38300  1.0000 0.1390104057
H   H33       1.0  0.75270  0.22740  0.43890  1.0000 0.1096708081
H   H34       1.0  0.24730  0.72740  0.56110  1.0000 0.1096708081
H   H35       1.0  0.60970  0.80540  0.63400  1.0000 0.1310588608
H   H36       1.0  0.39030  0.30540  0.36600  1.0000 0.1310588608
H   H37       1.0  0.91050  0.78150  0.58020  1.0000 0.1390104057
H   H38       1.0  0.08950  0.28150  0.41980  1.0000 0.1390104057
H   H39       1.0  0.68100  0.16840  0.72750  1.0000 0.1310588608
H   H40       1.0  0.31900  0.66840  0.27250  1.0000 0.1310588608
H   H41       1.0  0.86240  0.31240  0.78760  1.0000 0.1310588608
H   H42       1.0  0.13760  0.81240  0.21240  1.0000 0.1310588608
H   H43       1.0  0.95070  0.27840  0.83930  1.0000 0.1197969685
H   H44       1.0  0.04930  0.77840  0.16070  1.0000 0.1197969685
H   H45       1.0  0.95010  0.28280  0.73540  1.0000 0.1197969685
H   H46       1.0  0.04990  0.78280  0.26460  1.0000 0.1197969685
H   H47       1.0  0.85330  0.98460  0.22760  1.0000 0.1390104057
H   H48       1.0  0.14670  0.48460  0.77240  1.0000 0.1390104057
H   H49       1.0  0.69440  0.97920  0.73040  1.0000 0.1310588608
H   H50       1.0  0.30560  0.47920  0.26960  1.0000 0.1310588608
H   H51       1.0  0.85660  0.19040  0.17260  1.0000 0.1506577868
H   H52       1.0  0.14340  0.69040  0.82740  1.0000 0.1506577868
H   H53       1.0  0.58650  0.78800  0.12550  1.0000 0.1390104057
H   H54       1.0  0.41350  0.28800  0.87450  1.0000 0.1390104057
H   H55       1.0  0.49070  0.08320  0.88140  1.0000 0.1197969685
H   H56       1.0  0.50930  0.58320  0.11860  1.0000 0.1310588608
H   H57       1.0  0.43420  0.23380  0.18720  1.0000 0.1197969685
H   H58       1.0  0.56580  0.73380  0.81280  1.0000 0.1197969685
H   H59       1.0  0.41800  0.28360  0.61920  1.0000 0.1390104057
H   H60       1.0  0.58200  0.78360  0.38080  1.0000 0.1390104057
H   H61       1.0  0.64500  0.89640  0.66160  1.0000 0.1390104057
H   H62       1.0  0.35500  0.39640  0.33840  1.0000 0.1390104057
H   H63       1.0  0.15600  0.48380  0.53690  1.0000 0.1310588608
H   H64       1.0  0.84400  0.98380  0.46310  1.0000 0.1310588608
H   H65       1.0  0.09550  0.28820  0.16610  1.0000 0.1390104057
H   H66       1.0  0.90450  0.78820  0.83390  1.0000 0.1390104057
H   H67       1.0  0.69480  0.19390  0.99060  1.0000 0.1506577868
H   H68       1.0  0.30520  0.69390  0.00940  1.0000 0.1506577868
H   H69       1.0  0.39230  0.20790  0.72830  1.0000 0.1310588608
H   H70       1.0  0.60770  0.70790  0.27170  1.0000 0.1310588608
H   H71       1.0  0.57680  0.72520  0.55330  1.0000 0.1096708081
H   H72       1.0  0.42320  0.22520  0.44670  1.0000 0.1096708081
H   H73       1.0  0.13020  0.19810  0.17340  1.0000 0.1310588608
H   H74       1.0  0.86980  0.69810  0.82660  1.0000 0.1310588608
H   H75       1.0  0.21720  0.57370  0.00650  1.0000 0.1310588608
H   H76       1.0  0.78280  0.07370  0.99350  1.0000 0.1310588608
H   H77       1.0  0.56680  0.87870  0.16810  1.0000 0.1310588608
H   H78       1.0  0.43320  0.37870  0.83190  1.0000 0.1310588608
H   H79       1.0  0.87250  0.90630  0.12710  1.0000 0.1310588608
H   H80       1.0  0.12750  0.40630  0.87290  1.0000 0.1310588608
H   H81       1.0  0.69250  0.31070  0.37900  1.0000 0.1310588608
H   H82       1.0  0.30750  0.81070  0.62100  1.0000 0.1310588608
H   H83       1.0  0.60370  0.27980  0.32270  1.0000 0.1310588608
H   H84       1.0  0.39630  0.77980  0.67730  1.0000 0.1197969685
H   H85       1.0  0.60070  0.28140  0.42660  1.0000 0.1197969685
H   H86       1.0  0.39930  0.78140  0.57340  1.0000 0.1197969685
H   H87       1.0  0.22960  0.11390  0.21580  1.0000 0.1390104057
H   H88       1.0  0.77040  0.61390  0.78420  1.0000 0.1390104057
H   H89       1.0  0.36150  0.40250  0.07750  1.0000 0.1310588608
H   H90       1.0  0.63850  0.90250  0.92250  1.0000 0.1310588608
H   H91       1.0  0.90700  0.72150  0.10310  1.0000 0.1197969685
H   H92       1.0  0.09300  0.22150  0.89690  1.0000 0.1197969685
H   H93       1.0  0.06040  0.37850  0.12380  1.0000 0.1310588608
H   H94       1.0  0.93960  0.87850  0.87620  1.0000 0.1310588608
H   H95       1.0  0.31640  0.48810  0.02330  1.0000 0.1310588608
H   H96       1.0  0.68360  0.98810  0.97670  1.0000 0.1310588608
H   H97       1.0  0.44010  0.37610  0.58400  1.0000 0.1310588608
H   H98       1.0  0.55990  0.87610  0.41600  1.0000 0.1390104057
H   H99       1.0  0.94800  0.86950  0.62020  1.0000 0.1390104057
H   H100      1.0  0.05200  0.36950  0.37980  1.0000 0.1390104057
H   H101      1.0  0.27990  0.96480  0.85350  1.0000 0.15833996
H   H102      1.0  0.72010  0.46480  0.14650  1.0000 0.15833996
H   H103      1.0  0.20420  0.96400  0.76800  1.0000 0.1390104057
H   H104      1.0  0.79580  0.46400  0.23200  1.0000 0.1390104057
H   H105      1.0  0.29110  0.00980  0.77970  1.0000 0.1678885211
H   H106      1.0  0.70890  0.50980  0.22030  1.0000 0.1678885211
H   H107      1.0  0.76870  0.07010  0.26100  1.0000 0.1310588608
H   H108      1.0  0.23130  0.57010  0.73900  1.0000 0.1310588608
H   H109      1.0  0.10200  0.21690  0.62390  1.0000 0.1197969685
H   H110      1.0  0.89800  0.71690  0.37610  1.0000 0.1197969685
H   H111      1.0  0.25870  0.96770  0.30760  1.0000 0.15833996
H   H112      1.0  0.74130  0.46770  0.69240  1.0000 0.15833996
H   H113      1.0  0.33410  0.96760  0.39320  1.0000 0.1390104057
H   H114      1.0  0.66590  0.46760  0.60680  1.0000 0.1390104057
H   H115      1.0  0.24610  0.01280  0.38100  1.0000 0.1678885211
H   H116      1.0  0.75390  0.51280  0.61900  1.0000 0.1678885211
H   H117      1.0  0.78920  0.06680  0.73920  1.0000 0.1310588608
H   H118      1.0  0.21080  0.56680  0.26080  1.0000 0.1310588608
H   H119      1.0  0.60600  0.70810  0.02650  1.0000 0.1310588608
H   H120      1.0  0.39400  0.20810  0.97350  1.0000 0.1310588608
C   C1        1.0  0.37140  0.02740  0.30500  1.0000 0.6679026735
C   C2        1.0  0.62860  0.52740  0.69500  1.0000 0.6679026735
C   C3        1.0  0.16630  0.02350  0.85560  1.0000 0.6643988144
C   C4        1.0  0.83370  0.52350  0.14440  1.0000 0.6643988144
C   C5        1.0  0.69730  0.18850  0.85800  1.0000 0.2373780747
C   C6        1.0  0.30270  0.68850  0.14200  1.0000 0.2373780747
C   C7        1.0  0.00230  0.08390  0.45450  1.0000 0.5430760435
C   C8        1.0  0.99770  0.58390  0.54550  1.0000 0.5430760435
C   C9        1.0  0.09220  0.48300  0.08160  1.0000 0.1197969685
C   C10       1.0  0.90780  0.98300  0.91840  1.0000 0.1197969685
C   C11       1.0  0.52980  0.09630  0.70880  1.0000 0.5516235483
C   C12       1.0  0.47020  0.59630  0.29120  1.0000 0.5516235483
C   C13       1.0  0.27370  0.14950  0.72000  1.0000 -0.003714474
C   C14       1.0  0.72630  0.64950  0.28000  1.0000 -0.003714474
C   C15       1.0  0.88570  0.15530  0.38060  1.0000 -0.2591220412
C   C16       1.0  0.11430  0.65530  0.61940  1.0000 -0.2591220412
C   C17       1.0  0.26510  0.28950  0.64460  1.0000 0.1506577868
C   C18       1.0  0.73490  0.78950  0.35540  1.0000 0.1506577868
C   C19       1.0  0.74910  0.64370  0.53930  1.0000 -0.0109159967
C   C20       1.0  0.25090  0.14370  0.46070  1.0000 -0.0109159967
C   C21       1.0  0.18270  0.32580  0.64230  1.0000 -0.1803175687
C   C22       1.0  0.81730  0.82580  0.35770  1.0000 -0.1803175687
C   C23       1.0  0.72540  0.65260  0.02870  1.0000 -0.0109159967
C   C24       1.0  0.27460  0.15260  0.97130  1.0000 -0.0109159967
C   C25       1.0  0.33060  0.32620  0.12300  1.0000 -0.1803175687
C   C26       1.0  0.66940  0.82620  0.87700  1.0000 -0.1803175687
C   C27       1.0  0.95360  0.12940  0.21480  1.0000 -0.0109159967
C   C28       1.0  0.04640  0.62940  0.78520  1.0000 -0.0109159967
C   C29       1.0  0.54760  0.12300  0.04030  1.0000 0.5228654992
C   C30       1.0  0.45240  0.62300  0.95970  1.0000 0.5228654992
C   C31       1.0  0.84680  0.18340  0.30690  1.0000 0.2373780747
C   C32       1.0  0.15320  0.68340  0.69310  1.0000 0.2373780747
C   C33       1.0  0.99140  0.09890  0.28840  1.0000 -0.1702095601
C   C34       1.0  0.00860  0.59890  0.71160  1.0000 -0.1702095601
C   C35       1.0  0.80060  0.89330  0.64750  1.0000 0.1390104057
C   C36       1.0  0.19940  0.39330  0.35250  1.0000 0.1390104057
C   C37       1.0  0.82300  0.82810  0.10090  1.0000 -0.1702095601
C   C38       1.0  0.17700  0.32810  0.89910  1.0000 -0.1702095601
C   C39       1.0  0.39300  0.48020  0.55370  1.0000 0.1197969685
C   C40       1.0  0.60700  0.98020  0.44630  1.0000 0.1197969685
C   C41       1.0  0.83940  0.22950  0.77760  1.0000 0.0609930855
C   C42       1.0  0.16060  0.72950  0.22240  1.0000 0.0609930855
C   C43       1.0  0.80520  0.68760  0.56590  1.0000 -0.1069180726
C   C44       1.0  0.19480  0.18760  0.43410  1.0000 -0.1069180726
C   C45       1.0  0.91560  0.97550  0.65960  1.0000 0.0777763267
C   C46       1.0  0.08440  0.47550  0.34040  1.0000 0.0777763267
C   C47       1.0  0.27550  0.53810  0.51330  1.0000 -0.0109159967
C   C48       1.0  0.72450  0.03810  0.48670  1.0000 -0.0109159967
C   C49       1.0  0.63380  0.17670  0.38270  1.0000 0.5430760435
C   C50       1.0  0.36620  0.67670  0.61730  1.0000 0.5430760435
C   C51       1.0  0.61560  0.98560  0.18680  1.0000 0.0987182137
C   C52       1.0  0.38440  0.48560  0.81320  1.0000 0.0987182137
C   C53       1.0  0.20510  0.40020  0.09850  1.0000 0.1506577868
C   C54       1.0  0.79490  0.90020  0.90150  1.0000 0.1506577868
C   C55       1.0  0.19660  0.38060  0.61680  1.0000 -0.1803175687
C   C56       1.0  0.80340  0.88060  0.38320  1.0000 -0.1803175687
C   C57       1.0  0.58540  0.13790  0.94890  1.0000 -0.003714474
C   C58       1.0  0.41460  0.63790  0.05110  1.0000 -0.003714474
C   C59       1.0  0.70920  0.22730  0.38330  1.0000 0.0700626214
C   C60       1.0  0.29080  0.72730  0.61670  1.0000 0.0700626214
C   C61       1.0  0.67750  0.81900  0.62830  1.0000 -0.1702095601
C   C62       1.0  0.32250  0.31900  0.37170  1.0000 -0.1702095601
C   C63       1.0  0.98990  0.11450  0.12270  1.0000 0.5297849428
C   C64       1.0  0.01010  0.61450  0.87730  1.0000 0.5297849428
C   C65       1.0  0.85690  0.80460  0.59800  1.0000 -0.1468293044
C   C66       1.0  0.14310  0.30460  0.40200  1.0000 -0.1468293044
C   C67       1.0  0.29100  0.39890  0.59190  1.0000 0.1310588608
C   C68       1.0  0.70900  0.89890  0.40810  1.0000 0.1310588608
C   C69       1.0  0.71750  0.90140  0.15660  1.0000 0.15833996
C   C70       1.0  0.28250  0.40140  0.84340  1.0000 0.15833996
C   C71       1.0  0.65580  0.16070  0.78310  1.0000 -0.2422333557
C   C72       1.0  0.34420  0.66070  0.21690  1.0000 -0.2422333557
C   C73       1.0  0.90670  0.28040  0.78570  1.0000 -0.4243835706
C   C74       1.0  0.09330  0.78040  0.21430  1.0000 -0.4243835706
C   C75       1.0  0.78180  0.99220  0.21920  1.0000 -0.1069180726
C   C76       1.0  0.21820  0.49220  0.78080  1.0000 -0.1069180726
C   C77       1.0  0.76170  0.98570  0.71110  1.0000 -0.0845905069
C   C78       1.0  0.23830  0.48570  0.28890  1.0000 -0.0845905069
C   C79       1.0  0.88170  0.17090  0.22240  1.0000 -0.223617931
C   C80       1.0  0.11830  0.67090  0.77760  1.0000 -0.2259239751
C   C81       1.0  0.64390  0.81190  0.12630  1.0000 -0.1622353244
C   C82       1.0  0.35610  0.31190  0.87370  1.0000 -0.1622353244
C   C83       1.0  0.95880  0.11240  0.37240  1.0000 -0.0109159967
C   C84       1.0  0.04120  0.61240  0.62760  1.0000 -0.0109159967
C   C85       1.0  0.57740  0.12190  0.79140  1.0000 -0.0173087373
C   C86       1.0  0.42260  0.62190  0.20860  1.0000 -0.0173087373
C   C87       1.0  0.54240  0.10980  0.87480  1.0000 -0.1622353244
C   C88       1.0  0.45760  0.60980  0.12520  1.0000 -0.1622353244
C   C89       1.0  0.37120  0.21440  0.18980  1.0000 0.0897731957
C   C90       1.0  0.62880  0.71440  0.81020  1.0000 0.0897731957
C   C91       1.0  0.36120  0.30780  0.62020  1.0000 -0.1803175687
C   C92       1.0  0.63880  0.80780  0.37980  1.0000 -0.1803175687
C   C93       1.0  0.69960  0.87290  0.64780  1.0000 -0.1702095601
C   C94       1.0  0.30040  0.37290  0.35220  1.0000 -0.1702095601
C   C95       1.0  0.22820  0.49050  0.53780  1.0000 -0.0910952139
C   C96       1.0  0.77180  0.99050  0.46220  1.0000 -0.0910952139
C   C97       1.0  0.14960  0.31110  0.14880  1.0000 -0.1702095601
C   C98       1.0  0.85040  0.81110  0.85120  1.0000 -0.1702095601
C   C99       1.0  0.66450  0.17650  0.94060  1.0000 -0.223617931
C   C100      1.0  0.33550  0.67650  0.05940  1.0000 -0.223617931
C   C101      1.0  0.32320  0.19940  0.71010  1.0000 -0.0991327239
C   C102      1.0  0.67680  0.69940  0.28990  1.0000 -0.0991327239
C   C103      1.0  0.64030  0.70600  0.55290  1.0000 0.1096708081
C   C104      1.0  0.35970  0.20600  0.44710  1.0000 0.1096708081
C   C105      1.0  0.73920  0.79350  0.10150  1.0000 0.1390104057
C   C106      1.0  0.26080  0.29350  0.89850  1.0000 0.1390104057
C   C107      1.0  0.20290  0.19500  0.18190  1.0000 -0.1069180726
C   C108      1.0  0.79710  0.69500  0.81810  1.0000 -0.1069180726
C   C109      1.0  0.19160  0.54100  0.02940  1.0000 0.0080504332
C   C110      1.0  0.80840  0.04100  0.97060  1.0000 0.0080504332
C   C111      1.0  0.63250  0.86600  0.15270  1.0000 -0.1803175687
C   C112      1.0  0.36750  0.36600  0.84730  1.0000 -0.1803175687
C   C113      1.0  0.81480  0.88270  0.12790  1.0000 -0.1803175687
C   C114      1.0  0.18520  0.38270  0.87210  1.0000 -0.1803175687
C   C115      1.0  0.64580  0.27950  0.37740  1.0000 -0.4303780842
C   C116      1.0  0.35420  0.77950  0.62260  1.0000 -0.4303780842
C   C117      1.0  0.25840  0.14840  0.20520  1.0000 -0.0109159967
C   C118      1.0  0.74160  0.64840  0.79480  1.0000 -0.0109159967
C   C119      1.0  0.30790  0.37990  0.09660  1.0000 -0.1803175687
C   C120      1.0  0.69210  0.87990  0.90340  1.0000 -0.1803175687
C   C121      1.0  0.25010  0.29210  0.14770  1.0000 0.1390104057
C   C122      1.0  0.74990  0.79210  0.85230  1.0000 0.1390104057
C   C123      1.0  0.84280  0.70730  0.08150  1.0000 0.0987182137
C   C124      1.0  0.15720  0.20730  0.91850  1.0000 0.0987182137
C   C125      1.0  0.75640  0.78490  0.60000  1.0000 0.1390104057
C   C126      1.0  0.24360  0.28490  0.40000  1.0000 0.1390104057
C   C127      1.0  0.12930  0.36560  0.12350  1.0000 -0.190942404
C   C128      1.0  0.87070  0.86560  0.87650  1.0000 -0.190942404
C   C129      1.0  0.24720  0.49380  0.03870  1.0000 -0.1269370514
C   C130      1.0  0.75280  0.99380  0.96130  1.0000 -0.1269370514
C   C131      1.0  0.37350  0.36330  0.59670  1.0000 -0.190942404
C   C132      1.0  0.62650  0.86330  0.40330  1.0000 -0.190942404
C   C133      1.0  0.87890  0.85700  0.62140  1.0000 -0.1803175687
C   C134      1.0  0.12110  0.35700  0.37860  1.0000 -0.1803175687
C   C135      1.0  0.24210  0.98730  0.81010  1.0000 -0.5713318337
C   C136      1.0  0.75790  0.48730  0.18990  1.0000 -0.5713318337
C   C137      1.0  0.73460  0.03890  0.23790  1.0000 -0.0109159967
C   C138      1.0  0.26540  0.53890  0.76210  1.0000 -0.0109159967
C   C139      1.0  0.16310  0.20370  0.65320  1.0000 0.0777763267
C   C140      1.0  0.83690  0.70370  0.34680  1.0000 0.0777763267
C   C141      1.0  0.29570  0.99050  0.35090  1.0000 -0.5796320486
C   C142      1.0  0.70430  0.49050  0.64910  1.0000 -0.5796320486
C   C143      1.0  0.81540  0.03400  0.71720  1.0000 -0.0259095991
C   C144      1.0  0.18460  0.53400  0.28280  1.0000 -0.0259095991
C   C145      1.0  0.67680  0.70060  0.03950  1.0000 -0.0991327239
C   C146      1.0  0.32320  0.20060  0.96050  1.0000 -0.1069180726
C   C147      1.0  0.90790  0.17800  0.77410  1.0000 0.5430760435
C   C148      1.0  0.09210  0.67800  0.22590  1.0000 0.5430760435
N   N1        1.0  0.91460  0.02730  0.68580  1.0000 -0.2779470879
N   N2        1.0  0.08540  0.52730  0.31420  1.0000 -0.2779470879
N   N3        1.0  0.36500  0.16120  0.21030  1.0000 -0.2889776278
N   N4        1.0  0.63500  0.66120  0.78970  1.0000 -0.2889776278
N   N5        1.0  0.82920  0.65640  0.05510  1.0000 -0.2726571608
N   N6        1.0  0.17080  0.15640  0.94490  1.0000 -0.2726571608
N   N7        1.0  0.38160  0.53090  0.52510  1.0000 -0.2779470879
N   N8        1.0  0.61840  0.03090  0.47490  1.0000 -0.2779470879
N   N9        1.0  0.64640  0.65420  0.53120  1.0000 -0.2726571608
N   N10       1.0  0.35360  0.15420  0.46880  1.0000 -0.2726571608
N   N11       1.0  0.09630  0.53410  0.05710  1.0000 -0.2542444217
N   N12       1.0  0.90370  0.03410  0.94290  1.0000 -0.2542444217
N   N13       1.0  0.63090  0.03520  0.21910  1.0000 -0.2591220412
N   N14       1.0  0.36910  0.53520  0.78090  1.0000 -0.2591220412
N   N15       1.0  0.17470  0.15350  0.68490  1.0000 -0.2726571608
N   N16       1.0  0.82530  0.65350  0.31510  1.0000 -0.2726571608
N   N17       1.0  0.75200  0.73710  0.07380  1.0000 -0.0109159967
N   N18       1.0  0.24800  0.23710  0.92620  1.0000 -0.0109159967
N   N19       1.0  0.18190  0.45550  0.07540  1.0000 -0.0109159967
N   N20       1.0  0.81810  0.95550  0.92460  1.0000 -0.0109159967
N   N21       1.0  0.82390  0.94900  0.67200  1.0000 0.0017813671
N   N22       1.0  0.17610  0.44900  0.32800  1.0000 0.0017813671
N   N23       1.0  0.27620  0.23670  0.17320  1.0000 -0.003714474
N   N24       1.0  0.72380  0.73670  0.82680  1.0000 -0.003714474
N   N25       1.0  0.70560  0.95680  0.18520  1.0000 -0.0109159967
N   N26       1.0  0.29440  0.45680  0.81480  1.0000 -0.0109159967
N   N27       1.0  0.25230  0.23420  0.66890  1.0000 0.0017813671
N   N28       1.0  0.74770  0.73420  0.33110  1.0000 0.0017813671
N   N29       1.0  0.73420  0.72960  0.57500  1.0000 -0.003714474
N   N30       1.0  0.26580  0.22960  0.42500  1.0000 -0.003714474
N   N31       1.0  0.30490  0.45480  0.56350  1.0000 0.0080504332
N   N32       1.0  0.69510  0.95480  0.43650  1.0000 0.0080504332
O   O1        1.0  0.92710  0.16300  0.69730  1.0000 -0.5473380832
O   O2        1.0  0.07290  0.66300  0.30270  1.0000 -0.5473380832
O   O3        1.0  0.59990  0.16530  0.45710  1.0000 -0.5473380832
O   O4        1.0  0.40010  0.66530  0.54290  1.0000 -0.5473380832
O   O5        1.0  0.37670  0.02600  0.22100  1.0000 -0.5596504657
O   O6        1.0  0.62330  0.52600  0.77900  1.0000 -0.5596504657
O   O7        1.0  0.16320  0.02160  0.93930  1.0000 -0.5367691763
O   O8        1.0  0.83680  0.52160  0.06070  1.0000 -0.5367691763
O   O9        1.0  0.95790  0.14460  0.05740  1.0000 -0.5596504657
O   O10       1.0  0.04210  0.64460  0.94260  1.0000 -0.5596504657
O   O11       1.0  0.99130  0.10780  0.52650  1.0000 -0.5713318337
O   O12       1.0  0.00870  0.60780  0.47350  1.0000 -0.5713318337
O   O13       1.0  0.57840  0.15400  0.10430  1.0000 -0.5596504657
O   O14       1.0  0.42160  0.65400  0.89570  1.0000 -0.5596504657
O   O15       1.0  0.42660  0.06020  0.35160  1.0000 -0.601884499
O   O16       1.0  0.57340  0.56020  0.64840  1.0000 -0.601884499
O   O17       1.0  0.49100  0.08240  0.05070  1.0000 -0.5367691763
O   O18       1.0  0.50900  0.58240  0.94930  1.0000 -0.5367691763
O   O19       1.0  0.77460  0.22900  0.85390  1.0000 -0.190942404
O   O20       1.0  0.22540  0.72900  0.14610  1.0000 -0.190942404
O   O21       1.0  0.47220  0.05430  0.71790  1.0000 -0.601884499
O   O22       1.0  0.52780  0.55430  0.28210  1.0000 -0.601884499
O   O23       1.0  0.10920  0.05650  0.81060  1.0000 -0.6094070423
O   O24       1.0  0.89080  0.55650  0.18940  1.0000 -0.6094070423
O   O25       1.0  0.04880  0.03860  0.44540  1.0000 -0.601884499
O   O26       1.0  0.95120  0.53860  0.55460  1.0000 -0.601884499
O   O27       1.0  0.04810  0.07400  0.11250  1.0000 -0.5367691763
O   O28       1.0  0.95190  0.57400  0.88750  1.0000 -0.5367691763
O   O29       1.0  0.77530  0.22701  0.31090  1.0000 -0.190942404
O   O30       1.0  0.22470  0.72701  0.68910  1.0000 -0.190942404
O   O31       1.0  0.54550  0.11840  0.63490  1.0000 -0.5796320486
O   O32       1.0  0.45450  0.61840  0.36510  1.0000 -0.5796320486
O   O33       1.0  0.61260  0.15480  0.31040  1.0000 -0.5218531835
O   O34       1.0  0.38740  0.65480  0.68960  1.0000 -0.5218531835
O   O35       1.0  0.93840  0.15710  0.84600  1.0000 -0.5473380832
O   O36       1.0  0.06160  0.65710  0.15400  1.0000 -0.5473380832
