# DDEC6 charges by PACMAN v1.1 (https://github.com/mtap-research/PACMAN-charge/)
data_0000[ZnCd][nan]3[ASR]1
_chemical_formula_sum              "Zn6 Cd3 H90 C162 O36"
_cell_length_a       25.6049
_cell_length_b       25.6049
_cell_length_c       12.7296
_cell_angle_alpha    90
_cell_angle_beta     90
_cell_angle_gamma    120

_symmetry_space_group_name_H-M    "P 1"
_symmetry_Int_Tables_number       1

loop_
  _symmetry_equiv_pos_as_xyz
  'x, y, z'

loop_
  _atom_site_type_symbol
  _atom_site_label
  _atom_site_symmetry_multiplicity
  _atom_site_fract_x
  _atom_site_fract_y
  _atom_site_fract_z
  _atom_site_occupancy
  _atom_site_charge
Zn  Zn1       1.0  0.89040  0.27883  0.36277  1.0000 0.9471878953
Zn  Zn2       1.0  0.38843  0.10960  0.02944  1.0000 0.9471878953
Zn  Zn3       1.0  0.72117  0.61157  0.69611  1.0000 0.9471878953
Zn  Zn4       1.0  0.61157  0.72117  0.30389  1.0000 0.9471878953
Zn  Zn5       1.0  0.27883  0.89040  0.63723  1.0000 0.9471878953
Zn  Zn6       1.0  0.10960  0.38843  0.97056  1.0000 0.9471878953
Cd  Cd1       1.0  0.00000  0.31367  0.16667  1.0000 1.084608788
Cd  Cd2       1.0  0.31367  0.00000  0.83333  1.0000 1.084608788
Cd  Cd3       1.0  0.68633  0.68633  0.50000  1.0000 1.084608788
H   H1        1.0  0.24448  0.37421  0.11363  1.0000 0.1208619596
H   H2        1.0  0.11480  0.23912  0.28302  1.0000 0.1208619596
H   H3        1.0  0.95133  0.43274  0.03876  1.0000 0.1263579077
H   H4        1.0  0.87512  0.43635  0.31162  1.0000 0.1208619596
H   H5        1.0  0.31735  0.36317  0.20141  1.0000 0.1120075184
H   H6        1.0  0.18900  0.22606  0.37185  1.0000 0.1120075184
H   H7        1.0  0.95785  0.52343  0.98703  1.0000 0.1120075184
H   H8        1.0  0.87775  0.52314  0.25964  1.0000 0.1120075184
H   H9        1.0  0.37110  0.37614  0.34630  1.0000 0.1011503509
H   H10       1.0  0.25716  0.19516  0.37562  1.0000 0.1120075184
H   H11       1.0  0.84285  0.57274  0.16064  1.0000 0.1120075184
H   H12       1.0  0.26904  0.11376  0.35530  1.0000 0.1208619596
H   H13       1.0  0.38816  0.19250  0.59260  1.0000 0.1120075184
H   H14       1.0  0.25491  0.02186  0.40871  1.0000 0.1208619596
H   H15       1.0  0.36610  0.09817  0.65229  1.0000 0.1208619596
H   H16       1.0  0.12973  0.75552  0.78030  1.0000 0.1208619596
H   H17       1.0  0.12432  0.88520  0.94969  1.0000 0.1208619596
H   H18       1.0  0.48141  0.04867  0.70543  1.0000 0.1263579077
H   H19       1.0  0.56123  0.12488  0.97829  1.0000 0.1208619596
H   H20       1.0  0.04582  0.68265  0.86808  1.0000 0.1120075184
H   H21       1.0  0.03706  0.81100  0.03852  1.0000 0.1120075184
H   H22       1.0  0.56558  0.04215  0.65370  1.0000 0.1120075184
H   H23       1.0  0.64539  0.12225  0.92631  1.0000 0.1120075184
H   H24       1.0  0.00504  0.62890  0.01297  1.0000 0.1011503509
H   H25       1.0  0.93800  0.74284  0.04229  1.0000 0.1120075184
H   H26       1.0  0.72989  0.15715  0.82731  1.0000 0.1120075184
H   H27       1.0  0.84472  0.73096  0.02197  1.0000 0.1208619596
H   H28       1.0  0.80434  0.61184  0.25927  1.0000 0.1120075184
H   H29       1.0  0.76695  0.74509  0.07538  1.0000 0.1208619596
H   H30       1.0  0.73207  0.63390  0.31896  1.0000 0.1208619596
H   H31       1.0  0.62579  0.87027  0.44697  1.0000 0.1208619596
H   H32       1.0  0.76088  0.87568  0.61636  1.0000 0.1208619596
H   H33       1.0  0.56726  0.51859  0.37210  1.0000 0.1263579077
H   H34       1.0  0.56365  0.43877  0.64496  1.0000 0.1208619596
H   H35       1.0  0.63683  0.95418  0.53475  1.0000 0.1120075184
H   H36       1.0  0.77394  0.96294  0.70519  1.0000 0.1120075184
H   H37       1.0  0.47657  0.43442  0.32037  1.0000 0.1120075184
H   H38       1.0  0.47686  0.35461  0.59298  1.0000 0.1120075184
H   H39       1.0  0.62386  0.99496  0.67964  1.0000 0.1011503509
H   H40       1.0  0.80484  0.06200  0.70896  1.0000 0.1120075184
H   H41       1.0  0.42726  0.27011  0.49398  1.0000 0.1120075184
H   H42       1.0  0.88624  0.15528  0.68864  1.0000 0.1208619596
H   H43       1.0  0.80750  0.19566  0.92594  1.0000 0.1120075184
H   H44       1.0  0.97814  0.23305  0.74205  1.0000 0.1208619596
H   H45       1.0  0.90183  0.26793  0.98563  1.0000 0.1208619596
H   H46       1.0  0.87027  0.62579  0.55303  1.0000 0.1208619596
H   H47       1.0  0.87568  0.76088  0.38364  1.0000 0.1208619596
H   H48       1.0  0.51859  0.56726  0.62790  1.0000 0.1263579077
H   H49       1.0  0.43877  0.56365  0.35504  1.0000 0.1208619596
H   H50       1.0  0.95418  0.63683  0.46525  1.0000 0.1120075184
H   H51       1.0  0.96294  0.77394  0.29481  1.0000 0.1120075184
H   H52       1.0  0.43442  0.47657  0.67963  1.0000 0.1120075184
H   H53       1.0  0.35461  0.47686  0.40702  1.0000 0.1120075184
H   H54       1.0  0.99496  0.62386  0.32036  1.0000 0.1011503509
H   H55       1.0  0.06200  0.80484  0.29104  1.0000 0.1120075184
H   H56       1.0  0.27011  0.42726  0.50602  1.0000 0.1120075184
H   H57       1.0  0.15528  0.88624  0.31136  1.0000 0.1208619596
H   H58       1.0  0.19566  0.80750  0.07406  1.0000 0.1120075184
H   H59       1.0  0.23305  0.97814  0.25795  1.0000 0.1208619596
H   H60       1.0  0.26793  0.90183  0.01437  1.0000 0.1208619596
H   H61       1.0  0.37421  0.24448  0.88637  1.0000 0.1208619596
H   H62       1.0  0.23912  0.11480  0.71698  1.0000 0.1208619596
H   H63       1.0  0.43274  0.95133  0.96124  1.0000 0.1263579077
H   H64       1.0  0.43635  0.87512  0.68838  1.0000 0.1208619596
H   H65       1.0  0.36317  0.31735  0.79859  1.0000 0.1120075184
H   H66       1.0  0.22606  0.18900  0.62815  1.0000 0.1120075184
H   H67       1.0  0.52343  0.95785  0.01297  1.0000 0.1120075184
H   H68       1.0  0.52314  0.87775  0.74036  1.0000 0.1120075184
H   H69       1.0  0.37614  0.37110  0.65370  1.0000 0.1011503509
H   H70       1.0  0.19516  0.25716  0.62438  1.0000 0.1120075184
H   H71       1.0  0.57274  0.84285  0.83936  1.0000 0.1120075184
H   H72       1.0  0.11376  0.26904  0.64470  1.0000 0.1208619596
H   H73       1.0  0.19250  0.38816  0.40740  1.0000 0.1120075184
H   H74       1.0  0.02186  0.25491  0.59129  1.0000 0.1208619596
H   H75       1.0  0.09817  0.36610  0.34771  1.0000 0.1208619596
H   H76       1.0  0.75552  0.12973  0.21970  1.0000 0.1208619596
H   H77       1.0  0.88520  0.12432  0.05031  1.0000 0.1208619596
H   H78       1.0  0.04867  0.48141  0.29457  1.0000 0.1263579077
H   H79       1.0  0.12488  0.56123  0.02171  1.0000 0.1208619596
H   H80       1.0  0.68265  0.04582  0.13192  1.0000 0.1120075184
H   H81       1.0  0.81100  0.03706  0.96148  1.0000 0.1120075184
H   H82       1.0  0.04215  0.56558  0.34630  1.0000 0.1120075184
H   H83       1.0  0.12225  0.64539  0.07369  1.0000 0.1120075184
H   H84       1.0  0.62890  0.00504  0.98703  1.0000 0.1011503509
H   H85       1.0  0.74284  0.93800  0.95771  1.0000 0.1120075184
H   H86       1.0  0.15715  0.72989  0.17269  1.0000 0.1120075184
H   H87       1.0  0.73096  0.84472  0.97803  1.0000 0.1208619596
H   H88       1.0  0.61184  0.80434  0.74073  1.0000 0.1120075184
H   H89       1.0  0.74509  0.76695  0.92462  1.0000 0.1208619596
H   H90       1.0  0.63390  0.73207  0.68104  1.0000 0.1208619596
C   C1        1.0  0.12540  0.31750  0.14023  1.0000 0.5986121641
C   C2        1.0  0.91130  0.36690  0.21253  1.0000 0.5890420523
C   C3        1.0  0.17140  0.30710  0.19243  1.0000 -0.0461369843
C   C4        1.0  0.91220  0.42440  0.17753  1.0000 -0.0271342178
C   C5        1.0  0.23300  0.34430  0.16667  1.0000 -0.0980901225
C   C6        1.0  0.15620  0.26450  0.26603  1.0000 -0.0909293339
C   C7        1.0  0.93650  0.45160  0.08473  1.0000 -0.0980901225
C   C8        1.0  0.89130  0.45330  0.24483  1.0000 -0.0980901225
C   C9        1.0  0.27600  0.33730  0.21783  1.0000 -0.1564570321
C   C10       1.0  0.20050  0.25630  0.31943  1.0000 -0.1678944308
C   C11       1.0  0.94090  0.50580  0.05313  1.0000 -0.1498509276
C   C12       1.0  0.89410  0.50520  0.21493  1.0000 -0.1498509276
C   C13       1.0  0.26000  0.29300  0.29363  1.0000 0.0796875243
C   C14       1.0  0.92000  0.53280  0.12083  1.0000 0.0687707635
C   C15       1.0  0.30790  0.28690  0.34983  1.0000 0.0884175269
C   C16       1.0  0.92240  0.59020  0.09213  1.0000 0.0884175269
C   C17       1.0  0.36340  0.33760  0.36953  1.0000 -0.2180358112
C   C18       1.0  0.29610  0.22950  0.38423  1.0000 -0.2145931774
C   C19       1.0  0.87700  0.60200  0.12283  1.0000 -0.2180358112
C   C20       1.0  0.34120  0.22400  0.42963  1.0000 0.0884175269
C   C21       1.0  0.33040  0.16300  0.46643  1.0000 0.0796875243
C   C22       1.0  0.29050  0.11150  0.41433  1.0000 -0.1424129881
C   C23       1.0  0.35980  0.15730  0.55573  1.0000 -0.1498509276
C   C24       1.0  0.28160  0.05700  0.44713  1.0000 -0.0909293339
C   C25       1.0  0.34800  0.10190  0.58973  1.0000 -0.0909293339
C   C26       1.0  0.30960  0.05150  0.53243  1.0000 -0.0271342178
C   C27       1.0  0.29670  0.99100  0.57103  1.0000 0.5712475724
C   C28       1.0  0.19210  0.87460  0.80690  1.0000 0.5986121641
C   C29       1.0  0.45560  0.08870  0.87920  1.0000 0.5890420523
C   C30       1.0  0.13570  0.82860  0.85910  1.0000 -0.0461369843
C   C31       1.0  0.51220  0.08780  0.84420  1.0000 -0.0271342178
C   C32       1.0  0.11130  0.76700  0.83333  1.0000 -0.0980901225
C   C33       1.0  0.10830  0.84380  0.93270  1.0000 -0.0909293339
C   C34       1.0  0.51510  0.06350  0.75140  1.0000 -0.0980901225
C   C35       1.0  0.56200  0.10870  0.91150  1.0000 -0.0980901225
C   C36       1.0  0.06130  0.72400  0.88450  1.0000 -0.1564570321
C   C37       1.0  0.05580  0.79950  0.98610  1.0000 -0.1678944308
C   C38       1.0  0.56490  0.05910  0.71980  1.0000 -0.1498509276
C   C39       1.0  0.61110  0.10590  0.88160  1.0000 -0.1498509276
C   C40       1.0  0.03300  0.74000  0.96030  1.0000 0.0796875243
C   C41       1.0  0.61280  0.08000  0.78750  1.0000 0.0687707635
C   C42       1.0  0.97900  0.69210  0.01650  1.0000 0.0884175269
C   C43       1.0  0.66780  0.07760  0.75880  1.0000 0.0884175269
C   C44       1.0  0.97420  0.63660  0.03620  1.0000 -0.2180358112
C   C45       1.0  0.93340  0.70390  0.05090  1.0000 -0.2145931774
C   C46       1.0  0.72500  0.12300  0.78950  1.0000 -0.2180358112
C   C47       1.0  0.88280  0.65880  0.09630  1.0000 0.0884175269
C   C48       1.0  0.83260  0.66960  0.13310  1.0000 0.0796875243
C   C49       1.0  0.82100  0.70950  0.08100  1.0000 -0.1424129881
C   C50       1.0  0.79750  0.64020  0.22240  1.0000 -0.1498509276
C   C51       1.0  0.77540  0.71840  0.11380  1.0000 -0.0909293339
C   C52       1.0  0.75390  0.65200  0.25640  1.0000 -0.0909293339
C   C53       1.0  0.74190  0.69040  0.19910  1.0000 -0.0271342178
C   C54       1.0  0.69430  0.70330  0.23770  1.0000 0.5712475724
C   C55       1.0  0.68250  0.80790  0.47357  1.0000 0.5986121641
C   C56       1.0  0.63310  0.54440  0.54587  1.0000 0.5890420523
C   C57       1.0  0.69290  0.86430  0.52577  1.0000 -0.0461369843
C   C58       1.0  0.57560  0.48780  0.51087  1.0000 -0.0271342178
C   C59       1.0  0.65570  0.88870  0.50000  1.0000 -0.0980901225
C   C60       1.0  0.73550  0.89170  0.59937  1.0000 -0.0909293339
C   C61       1.0  0.54840  0.48490  0.41807  1.0000 -0.0980901225
C   C62       1.0  0.54670  0.43800  0.57817  1.0000 -0.0980901225
C   C63       1.0  0.66270  0.93870  0.55117  1.0000 -0.1564570321
C   C64       1.0  0.74370  0.94420  0.65277  1.0000 -0.1678944308
C   C65       1.0  0.49420  0.43510  0.38647  1.0000 -0.1498509276
C   C66       1.0  0.49480  0.38890  0.54827  1.0000 -0.1498509276
C   C67       1.0  0.70700  0.96700  0.62697  1.0000 0.0796875243
C   C68       1.0  0.46720  0.38720  0.45417  1.0000 0.0687707635
C   C69       1.0  0.71310  0.02100  0.68317  1.0000 0.0884175269
C   C70       1.0  0.40980  0.33220  0.42547  1.0000 0.0884175269
C   C71       1.0  0.66240  0.02580  0.70287  1.0000 -0.2180358112
C   C72       1.0  0.77050  0.06660  0.71757  1.0000 -0.2145931774
C   C73       1.0  0.39800  0.27500  0.45617  1.0000 -0.2180358112
C   C74       1.0  0.77600  0.11720  0.76297  1.0000 0.0884175269
C   C75       1.0  0.83700  0.16740  0.79977  1.0000 0.0796875243
C   C76       1.0  0.88850  0.17900  0.74767  1.0000 -0.1424129881
C   C77       1.0  0.84270  0.20250  0.88907  1.0000 -0.1498509276
C   C78       1.0  0.94300  0.22460  0.78047  1.0000 -0.0909293339
C   C79       1.0  0.89810  0.24610  0.92307  1.0000 -0.0909293339
C   C80       1.0  0.94850  0.25810  0.86577  1.0000 -0.0271342178
C   C81       1.0  0.00900  0.30570  0.90437  1.0000 0.5712475724
C   C82       1.0  0.80790  0.68250  0.52643  1.0000 0.5986121641
C   C83       1.0  0.54440  0.63310  0.45413  1.0000 0.5890420523
C   C84       1.0  0.86430  0.69290  0.47423  1.0000 -0.0461369843
C   C85       1.0  0.48780  0.57560  0.48913  1.0000 -0.0271342178
C   C86       1.0  0.88870  0.65570  0.50000  1.0000 -0.0980901225
C   C87       1.0  0.89170  0.73550  0.40063  1.0000 -0.0909293339
C   C88       1.0  0.48490  0.54840  0.58193  1.0000 -0.0980901225
C   C89       1.0  0.43800  0.54670  0.42183  1.0000 -0.0980901225
C   C90       1.0  0.93870  0.66270  0.44883  1.0000 -0.1564570321
C   C91       1.0  0.94420  0.74370  0.34723  1.0000 -0.1678944308
C   C92       1.0  0.43510  0.49420  0.61353  1.0000 -0.1498509276
C   C93       1.0  0.38890  0.49480  0.45173  1.0000 -0.1498509276
C   C94       1.0  0.96700  0.70700  0.37303  1.0000 0.0796875243
C   C95       1.0  0.38720  0.46720  0.54583  1.0000 0.0687707635
C   C96       1.0  0.02100  0.71310  0.31683  1.0000 0.0884175269
C   C97       1.0  0.33220  0.40980  0.57453  1.0000 0.0884175269
C   C98       1.0  0.02580  0.66240  0.29713  1.0000 -0.2180358112
C   C99       1.0  0.06660  0.77050  0.28243  1.0000 -0.2145931774
C   C100      1.0  0.27500  0.39800  0.54383  1.0000 -0.2180358112
C   C101      1.0  0.11720  0.77600  0.23703  1.0000 0.0884175269
C   C102      1.0  0.16740  0.83700  0.20023  1.0000 0.0796875243
C   C103      1.0  0.17900  0.88850  0.25233  1.0000 -0.1424129881
C   C104      1.0  0.20250  0.84270  0.11093  1.0000 -0.1498509276
C   C105      1.0  0.22460  0.94300  0.21953  1.0000 -0.0909293339
C   C106      1.0  0.24610  0.89810  0.07693  1.0000 -0.0909293339
C   C107      1.0  0.25810  0.94850  0.13423  1.0000 -0.0271342178
C   C108      1.0  0.30570  0.00900  0.09563  1.0000 0.5712475724
C   C109      1.0  0.31750  0.12540  0.85977  1.0000 0.5986121641
C   C110      1.0  0.36690  0.91130  0.78747  1.0000 0.5890420523
C   C111      1.0  0.30710  0.17140  0.80757  1.0000 -0.0461369843
C   C112      1.0  0.42440  0.91220  0.82247  1.0000 -0.0271342178
C   C113      1.0  0.34430  0.23300  0.83333  1.0000 -0.0980901225
C   C114      1.0  0.26450  0.15620  0.73397  1.0000 -0.0909293339
C   C115      1.0  0.45160  0.93650  0.91527  1.0000 -0.0980901225
C   C116      1.0  0.45330  0.89130  0.75517  1.0000 -0.0980901225
C   C117      1.0  0.33730  0.27600  0.78217  1.0000 -0.1564570321
C   C118      1.0  0.25630  0.20050  0.68057  1.0000 -0.1678944308
C   C119      1.0  0.50580  0.94090  0.94687  1.0000 -0.1498509276
C   C120      1.0  0.50520  0.89410  0.78507  1.0000 -0.1498509276
C   C121      1.0  0.29300  0.26000  0.70637  1.0000 0.0796875243
C   C122      1.0  0.53280  0.92000  0.87917  1.0000 0.0687707635
C   C123      1.0  0.28690  0.30790  0.65017  1.0000 0.0884175269
C   C124      1.0  0.59020  0.92240  0.90787  1.0000 0.0884175269
C   C125      1.0  0.33760  0.36340  0.63047  1.0000 -0.2180358112
C   C126      1.0  0.22950  0.29610  0.61577  1.0000 -0.2145931774
C   C127      1.0  0.60200  0.87700  0.87717  1.0000 -0.2180358112
C   C128      1.0  0.22400  0.34120  0.57037  1.0000 0.0884175269
C   C129      1.0  0.16300  0.33040  0.53357  1.0000 0.0796875243
C   C130      1.0  0.11150  0.29050  0.58567  1.0000 -0.1424129881
C   C131      1.0  0.15730  0.35980  0.44427  1.0000 -0.1498509276
C   C132      1.0  0.05700  0.28160  0.55287  1.0000 -0.0909293339
C   C133      1.0  0.10190  0.34800  0.41027  1.0000 -0.0909293339
C   C134      1.0  0.05150  0.30960  0.46757  1.0000 -0.0271342178
C   C135      1.0  0.99100  0.29670  0.42897  1.0000 0.5712475724
C   C136      1.0  0.87460  0.19210  0.19310  1.0000 0.5986121641
C   C137      1.0  0.08870  0.45560  0.12080  1.0000 0.5890420523
C   C138      1.0  0.82860  0.13570  0.14090  1.0000 -0.0461369843
C   C139      1.0  0.08780  0.51220  0.15580  1.0000 -0.0271342178
C   C140      1.0  0.76700  0.11130  0.16667  1.0000 -0.0980901225
C   C141      1.0  0.84380  0.10830  0.06730  1.0000 -0.0909293339
C   C142      1.0  0.06350  0.51510  0.24860  1.0000 -0.0980901225
C   C143      1.0  0.10870  0.56200  0.08850  1.0000 -0.0980901225
C   C144      1.0  0.72400  0.06130  0.11550  1.0000 -0.1564570321
C   C145      1.0  0.79950  0.05580  0.01390  1.0000 -0.1678944308
C   C146      1.0  0.05910  0.56490  0.28020  1.0000 -0.1498509276
C   C147      1.0  0.10590  0.61110  0.11840  1.0000 -0.1498509276
C   C148      1.0  0.74000  0.03300  0.03970  1.0000 0.0796875243
C   C149      1.0  0.08000  0.61280  0.21250  1.0000 0.0687707635
C   C150      1.0  0.69210  0.97900  0.98350  1.0000 0.0884175269
C   C151      1.0  0.07760  0.66780  0.24120  1.0000 0.0884175269
C   C152      1.0  0.63660  0.97420  0.96380  1.0000 -0.2180358112
C   C153      1.0  0.70390  0.93340  0.94910  1.0000 -0.2145931774
C   C154      1.0  0.12300  0.72500  0.21050  1.0000 -0.2180358112
C   C155      1.0  0.65880  0.88280  0.90370  1.0000 0.0884175269
C   C156      1.0  0.66960  0.83260  0.86690  1.0000 0.0796875243
C   C157      1.0  0.70950  0.82100  0.91900  1.0000 -0.1424129881
C   C158      1.0  0.64020  0.79750  0.77760  1.0000 -0.1498509276
C   C159      1.0  0.71840  0.77540  0.88620  1.0000 -0.0909293339
C   C160      1.0  0.65200  0.75390  0.74360  1.0000 -0.0909293339
C   C161      1.0  0.69040  0.74190  0.80090  1.0000 -0.0271342178
C   C162      1.0  0.70330  0.69430  0.76230  1.0000 0.5712475724
O   O1        1.0  0.07320  0.29060  0.17413  1.0000 -0.5394241267
O   O2        1.0  0.98600  0.31690  0.34473  1.0000 -0.5228998118
O   O3        1.0  0.93180  0.34520  0.15263  1.0000 -0.5394241267
O   O4        1.0  0.14360  0.35200  0.06023  1.0000 -0.5747611576
O   O5        1.0  0.88860  0.34770  0.30233  1.0000 -0.553313201
O   O6        1.0  0.26720  0.94250  0.52063  1.0000 -0.51425687
O   O7        1.0  0.21740  0.92680  0.84080  1.0000 -0.5394241267
O   O8        1.0  0.33090  0.01400  0.01140  1.0000 -0.5228998118
O   O9        1.0  0.41340  0.06820  0.81930  1.0000 -0.5394241267
O   O10       1.0  0.20840  0.85640  0.72690  1.0000 -0.5747611576
O   O11       1.0  0.45910  0.11140  0.96900  1.0000 -0.553313201
O   O12       1.0  0.67530  0.73280  0.18730  1.0000 -0.51425687
O   O13       1.0  0.70940  0.78260  0.50747  1.0000 -0.5394241267
O   O14       1.0  0.68310  0.66910  0.67807  1.0000 -0.5228998118
O   O15       1.0  0.65480  0.58660  0.48597  1.0000 -0.5394241267
O   O16       1.0  0.64800  0.79160  0.39357  1.0000 -0.5747611576
O   O17       1.0  0.65230  0.54090  0.63567  1.0000 -0.553313201
O   O18       1.0  0.05750  0.32470  0.85397  1.0000 -0.51425687
O   O19       1.0  0.78260  0.70940  0.49253  1.0000 -0.5394241267
O   O20       1.0  0.66910  0.68310  0.32193  1.0000 -0.5228998118
O   O21       1.0  0.58660  0.65480  0.51403  1.0000 -0.5394241267
O   O22       1.0  0.79160  0.64800  0.60643  1.0000 -0.5747611576
O   O23       1.0  0.54090  0.65230  0.36433  1.0000 -0.553313201
O   O24       1.0  0.32470  0.05750  0.14603  1.0000 -0.51425687
O   O25       1.0  0.29060  0.07320  0.82587  1.0000 -0.5394241267
O   O26       1.0  0.31690  0.98600  0.65527  1.0000 -0.5228998118
O   O27       1.0  0.34520  0.93180  0.84737  1.0000 -0.5394241267
O   O28       1.0  0.35200  0.14360  0.93977  1.0000 -0.5747611576
O   O29       1.0  0.34770  0.88860  0.69767  1.0000 -0.553313201
O   O30       1.0  0.94250  0.26720  0.47937  1.0000 -0.51425687
O   O31       1.0  0.92680  0.21740  0.15920  1.0000 -0.5394241267
O   O32       1.0  0.01400  0.33090  0.98860  1.0000 -0.5228998118
O   O33       1.0  0.06820  0.41340  0.18070  1.0000 -0.5394241267
O   O34       1.0  0.85640  0.20840  0.27310  1.0000 -0.5747611576
O   O35       1.0  0.11140  0.45910  0.03100  1.0000 -0.553313201
O   O36       1.0  0.73280  0.67530  0.81270  1.0000 -0.51425687
