# DDEC6 charges by PACMAN v1.1 (https://github.com/mtap-research/PACMAN-charge/)
data_0000[Cd][nan]3[ASR]1
_chemical_formula_sum              "Cd16 H160 C232 N16 O64"
_cell_length_a       21.9718
_cell_length_b       17.3189
_cell_length_c       17.71
_cell_angle_alpha    90
_cell_angle_beta     90
_cell_angle_gamma    90

_symmetry_space_group_name_H-M    "P 1"
_symmetry_Int_Tables_number       1

loop_
  _symmetry_equiv_pos_as_xyz
  'x, y, z'

loop_
  _atom_site_type_symbol
  _atom_site_label
  _atom_site_symmetry_multiplicity
  _atom_site_fract_x
  _atom_site_fract_y
  _atom_site_fract_z
  _atom_site_occupancy
  _atom_site_charge
Cd  Cd1       1.0  0.36845  0.53595  0.07002  1.0000 0.9028129558
Cd  Cd2       1.0  0.63155  0.46405  0.92998  1.0000 0.9028129558
Cd  Cd3       1.0  0.13155  0.96405  0.57002  1.0000 0.9028129558
Cd  Cd4       1.0  0.86845  0.03595  0.42998  1.0000 0.9028129558
Cd  Cd5       1.0  0.63155  0.53595  0.42998  1.0000 0.9028129558
Cd  Cd6       1.0  0.36845  0.46405  0.57002  1.0000 0.9028129558
Cd  Cd7       1.0  0.86845  0.96405  0.92998  1.0000 0.9028129558
Cd  Cd8       1.0  0.13155  0.03595  0.07002  1.0000 0.9028129558
Cd  Cd9       1.0  0.24015  0.59144  0.96590  1.0000 0.954058064
Cd  Cd10      1.0  0.75985  0.40856  0.03410  1.0000 0.954058064
Cd  Cd11      1.0  0.25985  0.90856  0.46590  1.0000 0.954058064
Cd  Cd12      1.0  0.74015  0.09144  0.53410  1.0000 0.954058064
Cd  Cd13      1.0  0.75985  0.59144  0.53410  1.0000 0.954058064
Cd  Cd14      1.0  0.24015  0.40856  0.46590  1.0000 0.954058064
Cd  Cd15      1.0  0.74015  0.90856  0.03410  1.0000 0.954058064
Cd  Cd16      1.0  0.25985  0.09144  0.96590  1.0000 0.954058064
H   H1        1.0  0.20299  0.31404  0.02166  1.0000 0.1284179183
H   H2        1.0  0.79701  0.68596  0.97834  1.0000 0.1284179183
H   H3        1.0  0.29701  0.18596  0.52166  1.0000 0.1284179183
H   H4        1.0  0.70299  0.81404  0.47834  1.0000 0.1284179183
H   H5        1.0  0.79701  0.31404  0.47834  1.0000 0.1284179183
H   H6        1.0  0.20299  0.68596  0.52166  1.0000 0.1284179183
H   H7        1.0  0.70299  0.18596  0.97834  1.0000 0.1284179183
H   H8        1.0  0.29701  0.81404  0.02166  1.0000 0.1284179183
H   H9        1.0  0.23750  0.46182  0.21342  1.0000 0.1178807784
H   H10       1.0  0.76250  0.53818  0.78658  1.0000 0.1178807784
H   H11       1.0  0.26250  0.03818  0.71342  1.0000 0.1178807784
H   H12       1.0  0.73750  0.96182  0.28658  1.0000 0.1178807784
H   H13       1.0  0.76250  0.46182  0.28658  1.0000 0.1178807784
H   H14       1.0  0.23750  0.53818  0.71342  1.0000 0.1178807784
H   H15       1.0  0.73750  0.03818  0.78658  1.0000 0.1178807784
H   H16       1.0  0.26250  0.96182  0.21342  1.0000 0.1178807784
H   H17       1.0  0.23579  0.03421  0.33224  1.0000 0.1178807784
H   H18       1.0  0.76421  0.96579  0.66776  1.0000 0.1178807784
H   H19       1.0  0.26421  0.46579  0.83224  1.0000 0.1178807784
H   H20       1.0  0.73579  0.53421  0.16776  1.0000 0.1178807784
H   H21       1.0  0.76421  0.03421  0.16776  1.0000 0.1178807784
H   H22       1.0  0.23579  0.96579  0.83224  1.0000 0.1178807784
H   H23       1.0  0.73579  0.46579  0.66776  1.0000 0.1178807784
H   H24       1.0  0.26421  0.53421  0.33224  1.0000 0.1178807784
H   H25       1.0  0.25871  0.13368  0.23439  1.0000 0.0991796745
H   H26       1.0  0.74129  0.86632  0.76561  1.0000 0.0991796745
H   H27       1.0  0.24129  0.36632  0.73439  1.0000 0.0991796745
H   H28       1.0  0.75871  0.63368  0.26561  1.0000 0.0991796745
H   H29       1.0  0.74129  0.13368  0.26561  1.0000 0.0991796745
H   H30       1.0  0.25871  0.86632  0.73439  1.0000 0.0991796745
H   H31       1.0  0.75871  0.36632  0.76561  1.0000 0.0991796745
H   H32       1.0  0.24129  0.63368  0.23439  1.0000 0.0991796745
H   H33       1.0  0.10373  0.26810  0.30701  1.0000 0.1111156573
H   H34       1.0  0.89627  0.73190  0.69299  1.0000 0.1111156573
H   H35       1.0  0.39627  0.23190  0.80701  1.0000 0.1111156573
H   H36       1.0  0.60373  0.76810  0.19299  1.0000 0.1111156573
H   H37       1.0  0.89627  0.26810  0.19299  1.0000 0.1111156573
H   H38       1.0  0.10373  0.73190  0.80701  1.0000 0.1111156573
H   H39       1.0  0.60373  0.23190  0.69299  1.0000 0.1111156573
H   H40       1.0  0.39627  0.76810  0.30701  1.0000 0.1111156573
H   H41       1.0  0.07820  0.16595  0.40200  1.0000 0.0991796745
H   H42       1.0  0.92180  0.83405  0.59800  1.0000 0.0991796745
H   H43       1.0  0.42180  0.33405  0.90200  1.0000 0.0991796745
H   H44       1.0  0.57820  0.66595  0.09800  1.0000 0.0991796745
H   H45       1.0  0.92180  0.16595  0.09800  1.0000 0.0991796745
H   H46       1.0  0.07820  0.83405  0.90200  1.0000 0.0991796745
H   H47       1.0  0.57820  0.33405  0.59800  1.0000 0.0991796745
H   H48       1.0  0.42180  0.66595  0.40200  1.0000 0.0991796745
H   H49       1.0  0.35976  0.36078  0.11503  1.0000 0.0906975208
H   H50       1.0  0.64024  0.63922  0.88497  1.0000 0.0906975208
H   H51       1.0  0.14024  0.13922  0.61503  1.0000 0.0906975208
H   H52       1.0  0.85976  0.86078  0.38497  1.0000 0.0906975208
H   H53       1.0  0.64024  0.36078  0.38497  1.0000 0.0906975208
H   H54       1.0  0.35976  0.63922  0.61503  1.0000 0.0906975208
H   H55       1.0  0.85976  0.13922  0.88497  1.0000 0.0906975208
H   H56       1.0  0.14024  0.86078  0.11503  1.0000 0.0906975208
H   H57       1.0  0.36185  0.27709  0.23026  1.0000 0.1111156573
H   H58       1.0  0.63815  0.72291  0.76974  1.0000 0.1111156573
H   H59       1.0  0.13815  0.22291  0.73026  1.0000 0.1111156573
H   H60       1.0  0.86185  0.77709  0.26974  1.0000 0.1111156573
H   H61       1.0  0.63815  0.27709  0.26974  1.0000 0.1111156573
H   H62       1.0  0.36185  0.72291  0.73026  1.0000 0.1111156573
H   H63       1.0  0.86185  0.22291  0.76974  1.0000 0.1111156573
H   H64       1.0  0.13815  0.77709  0.23026  1.0000 0.1111156573
H   H65       1.0  0.44708  0.46741  0.34917  1.0000 0.1178807784
H   H66       1.0  0.55292  0.53259  0.65083  1.0000 0.1178807784
H   H67       1.0  0.05292  0.03259  0.84917  1.0000 0.1178807784
H   H68       1.0  0.94708  0.96741  0.15083  1.0000 0.1178807784
H   H69       1.0  0.55292  0.46741  0.15083  1.0000 0.1178807784
H   H70       1.0  0.44708  0.53259  0.84917  1.0000 0.1178807784
H   H71       1.0  0.94708  0.03259  0.65083  1.0000 0.1178807784
H   H72       1.0  0.05292  0.96741  0.34917  1.0000 0.1178807784
H   H73       1.0  0.43525  0.54620  0.23231  1.0000 0.0906975208
H   H74       1.0  0.56475  0.45380  0.76769  1.0000 0.0906975208
H   H75       1.0  0.06475  0.95380  0.73231  1.0000 0.0906975208
H   H76       1.0  0.93525  0.04620  0.26769  1.0000 0.0906975208
H   H77       1.0  0.56475  0.54620  0.26769  1.0000 0.0906975208
H   H78       1.0  0.43525  0.45380  0.73231  1.0000 0.0906975208
H   H79       1.0  0.93525  0.95380  0.76769  1.0000 0.0906975208
H   H80       1.0  0.06475  0.04620  0.23231  1.0000 0.0906975208
H   H81       1.0  0.37877  0.35526  0.41422  1.0000 0.1284179183
H   H82       1.0  0.62123  0.64474  0.58578  1.0000 0.1284179183
H   H83       1.0  0.12123  0.14474  0.91422  1.0000 0.1284179183
H   H84       1.0  0.87877  0.85526  0.08578  1.0000 0.1284179183
H   H85       1.0  0.62123  0.35526  0.08578  1.0000 0.1284179183
H   H86       1.0  0.37877  0.64474  0.91422  1.0000 0.1284179183
H   H87       1.0  0.87877  0.14474  0.58578  1.0000 0.1284179183
H   H88       1.0  0.12123  0.85526  0.41422  1.0000 0.1284179183
H   H89       1.0  0.37484  0.26718  0.36439  1.0000 0.1111156573
H   H90       1.0  0.62516  0.73282  0.63561  1.0000 0.1111156573
H   H91       1.0  0.12516  0.23282  0.86439  1.0000 0.1111156573
H   H92       1.0  0.87484  0.76718  0.13561  1.0000 0.1111156573
H   H93       1.0  0.62516  0.26718  0.13561  1.0000 0.1111156573
H   H94       1.0  0.37484  0.73282  0.86439  1.0000 0.1111156573
H   H95       1.0  0.87484  0.23282  0.63561  1.0000 0.1111156573
H   H96       1.0  0.12516  0.76718  0.36439  1.0000 0.1111156573
H   H97       1.0  0.45921  0.28302  0.46508  1.0000 0.0906975208
H   H98       1.0  0.54079  0.71698  0.53492  1.0000 0.0906975208
H   H99       1.0  0.04079  0.21698  0.96508  1.0000 0.0906975208
H   H100      1.0  0.95921  0.78302  0.03492  1.0000 0.0906975208
H   H101      1.0  0.54079  0.28302  0.03492  1.0000 0.0906975208
H   H102      1.0  0.45921  0.71698  0.96508  1.0000 0.0906975208
H   H103      1.0  0.95921  0.21698  0.53492  1.0000 0.0906975208
H   H104      1.0  0.04079  0.78302  0.46508  1.0000 0.0906975208
H   H105      1.0  0.49518  0.35130  0.40514  1.0000 0.0825597327
H   H106      1.0  0.50482  0.64870  0.59486  1.0000 0.0825597327
H   H107      1.0  0.00482  0.14870  0.90514  1.0000 0.0825597327
H   H108      1.0  0.99518  0.85130  0.09486  1.0000 0.0825597327
H   H109      1.0  0.50482  0.35130  0.09486  1.0000 0.0825597327
H   H110      1.0  0.49518  0.64870  0.90514  1.0000 0.0825597327
H   H111      1.0  0.99518  0.14870  0.59486  1.0000 0.0825597327
H   H112      1.0  0.00482  0.85130  0.40514  1.0000 0.0825597327
H   H113      1.0  0.50538  0.25117  0.30321  1.0000 0.0825597327
H   H114      1.0  0.49462  0.74883  0.69679  1.0000 0.0825597327
H   H115      1.0  0.99462  0.24883  0.80321  1.0000 0.0825597327
H   H116      1.0  0.00538  0.75117  0.19679  1.0000 0.0825597327
H   H117      1.0  0.49462  0.25117  0.19679  1.0000 0.0825597327
H   H118      1.0  0.50538  0.74883  0.80321  1.0000 0.0825597327
H   H119      1.0  0.00538  0.24883  0.69679  1.0000 0.0825597327
H   H120      1.0  0.99462  0.75117  0.30321  1.0000 0.0825597327
H   H121      1.0  0.46694  0.18276  0.35999  1.0000 0.0991796745
H   H122      1.0  0.53306  0.81724  0.64001  1.0000 0.0991796745
H   H123      1.0  0.03306  0.31724  0.85999  1.0000 0.0991796745
H   H124      1.0  0.96694  0.68276  0.14001  1.0000 0.0991796745
H   H125      1.0  0.53306  0.18276  0.14001  1.0000 0.0991796745
H   H126      1.0  0.46694  0.81724  0.85999  1.0000 0.0991796745
H   H127      1.0  0.96694  0.31724  0.64001  1.0000 0.0991796745
H   H128      1.0  0.03306  0.68276  0.35999  1.0000 0.0991796745
H   H129      1.0  0.67074  0.07323  0.36960  1.0000 0.0906975208
H   H130      1.0  0.32926  0.92677  0.63040  1.0000 0.0906975208
H   H131      1.0  0.82926  0.42677  0.86960  1.0000 0.0906975208
H   H132      1.0  0.17074  0.57323  0.13040  1.0000 0.0906975208
H   H133      1.0  0.32926  0.07323  0.13040  1.0000 0.0906975208
H   H134      1.0  0.67074  0.92677  0.86960  1.0000 0.0906975208
H   H135      1.0  0.17074  0.42677  0.63040  1.0000 0.0906975208
H   H136      1.0  0.82926  0.57323  0.36960  1.0000 0.0906975208
H   H137      1.0  0.57516  0.11955  0.30888  1.0000 0.1178807784
H   H138      1.0  0.42484  0.88045  0.69112  1.0000 0.1178807784
H   H139      1.0  0.92484  0.38045  0.80888  1.0000 0.1178807784
H   H140      1.0  0.07516  0.61955  0.19112  1.0000 0.1178807784
H   H141      1.0  0.42484  0.11955  0.19112  1.0000 0.1178807784
H   H142      1.0  0.57516  0.88045  0.80888  1.0000 0.1178807784
H   H143      1.0  0.07516  0.38045  0.69112  1.0000 0.1178807784
H   H144      1.0  0.92484  0.61955  0.30888  1.0000 0.1178807784
H   H145      1.0  0.65308  0.23000  0.54638  1.0000 0.0906975208
H   H146      1.0  0.34692  0.77000  0.45362  1.0000 0.0906975208
H   H147      1.0  0.84692  0.27000  0.04638  1.0000 0.0906975208
H   H148      1.0  0.15308  0.73000  0.95362  1.0000 0.0906975208
H   H149      1.0  0.34692  0.23000  0.95362  1.0000 0.0906975208
H   H150      1.0  0.65308  0.77000  0.04638  1.0000 0.0906975208
H   H151      1.0  0.15308  0.27000  0.45362  1.0000 0.0906975208
H   H152      1.0  0.84692  0.73000  0.54638  1.0000 0.0906975208
H   H153      1.0  0.55749  0.28478  0.49274  1.0000 0.1178807784
H   H154      1.0  0.44251  0.71522  0.50726  1.0000 0.1178807784
H   H155      1.0  0.94251  0.21522  0.99274  1.0000 0.1178807784
H   H156      1.0  0.05749  0.78478  0.00726  1.0000 0.1178807784
H   H157      1.0  0.44251  0.28478  0.00726  1.0000 0.1178807784
H   H158      1.0  0.55749  0.71522  0.99274  1.0000 0.1178807784
H   H159      1.0  0.05749  0.21522  0.50726  1.0000 0.1178807784
H   H160      1.0  0.94251  0.78478  0.49274  1.0000 0.1178807784
C   C1        1.0  0.22217  0.39481  0.11215  1.0000 -0.0430366473
C   C2        1.0  0.77783  0.60519  0.88785  1.0000 -0.0430366473
C   C3        1.0  0.27783  0.10519  0.61215  1.0000 -0.0430366473
C   C4        1.0  0.72217  0.89481  0.38785  1.0000 -0.0430366473
C   C5        1.0  0.77783  0.39481  0.38785  1.0000 -0.0430366473
C   C6        1.0  0.22217  0.60519  0.61215  1.0000 -0.0430366473
C   C7        1.0  0.72217  0.10519  0.88785  1.0000 -0.0430366473
C   C8        1.0  0.27783  0.89481  0.11215  1.0000 -0.0430366473
C   C9        1.0  0.20612  0.32265  0.08285  1.0000 -0.0933655967
C   C10       1.0  0.79388  0.67735  0.91715  1.0000 -0.0933655967
C   C11       1.0  0.29388  0.17735  0.58285  1.0000 -0.0933655967
C   C12       1.0  0.70612  0.82265  0.41715  1.0000 -0.0933655967
C   C13       1.0  0.79388  0.32265  0.41715  1.0000 -0.0933655967
C   C14       1.0  0.20612  0.67735  0.58285  1.0000 -0.0933655967
C   C15       1.0  0.70612  0.17735  0.91715  1.0000 -0.0933655967
C   C16       1.0  0.29388  0.82265  0.08285  1.0000 -0.0933655967
C   C17       1.0  0.19237  0.26128  0.13163  1.0000 -0.0701039192
C   C18       1.0  0.80763  0.73872  0.86837  1.0000 -0.0701039192
C   C19       1.0  0.30763  0.23872  0.63163  1.0000 -0.0701039192
C   C20       1.0  0.69237  0.76128  0.36837  1.0000 -0.0701039192
C   C21       1.0  0.80763  0.26128  0.36837  1.0000 -0.0701039192
C   C22       1.0  0.19237  0.73872  0.63163  1.0000 -0.0701039192
C   C23       1.0  0.69237  0.23872  0.86837  1.0000 -0.0701039192
C   C24       1.0  0.30763  0.76128  0.13163  1.0000 -0.0701039192
C   C25       1.0  0.19718  0.27038  0.21100  1.0000 0.0401139985
C   C26       1.0  0.80282  0.72962  0.78900  1.0000 0.0401139985
C   C27       1.0  0.30282  0.22962  0.71100  1.0000 0.0401139985
C   C28       1.0  0.69718  0.77038  0.28900  1.0000 0.0401139985
C   C29       1.0  0.80282  0.27038  0.28900  1.0000 0.0401139985
C   C30       1.0  0.19718  0.72962  0.71100  1.0000 0.0401139985
C   C31       1.0  0.69718  0.22962  0.78900  1.0000 0.0401139985
C   C32       1.0  0.30282  0.77038  0.21100  1.0000 0.0401139985
C   C33       1.0  0.21383  0.34380  0.23967  1.0000 -0.0587178526
C   C34       1.0  0.78617  0.65620  0.76033  1.0000 -0.0587178526
C   C35       1.0  0.28617  0.15620  0.73967  1.0000 -0.0587178526
C   C36       1.0  0.71383  0.84380  0.26033  1.0000 -0.0587178526
C   C37       1.0  0.78617  0.34380  0.26033  1.0000 -0.0587178526
C   C38       1.0  0.21383  0.65620  0.73967  1.0000 -0.0587178526
C   C39       1.0  0.71383  0.15620  0.76033  1.0000 -0.0587178526
C   C40       1.0  0.28617  0.84380  0.23967  1.0000 -0.0587178526
C   C41       1.0  0.22553  0.40514  0.19034  1.0000 -0.1007907168
C   C42       1.0  0.77447  0.59486  0.80966  1.0000 -0.1007907168
C   C43       1.0  0.27447  0.09486  0.69034  1.0000 -0.1007907168
C   C44       1.0  0.72553  0.90514  0.30966  1.0000 -0.1007907168
C   C45       1.0  0.77447  0.40514  0.30966  1.0000 -0.1007907168
C   C46       1.0  0.22553  0.59486  0.69034  1.0000 -0.1007907168
C   C47       1.0  0.72553  0.09486  0.80966  1.0000 -0.1007907168
C   C48       1.0  0.27447  0.90514  0.19034  1.0000 -0.1007907168
C   C49       1.0  0.23246  0.46230  0.06129  1.0000 0.5568174402
C   C50       1.0  0.76754  0.53770  0.93871  1.0000 0.5568174402
C   C51       1.0  0.26754  0.03770  0.56129  1.0000 0.5568174402
C   C52       1.0  0.73246  0.96230  0.43871  1.0000 0.5568174402
C   C53       1.0  0.76754  0.46230  0.43871  1.0000 0.5568174402
C   C54       1.0  0.23246  0.53770  0.56129  1.0000 0.5568174402
C   C55       1.0  0.73246  0.03770  0.93871  1.0000 0.5568174402
C   C56       1.0  0.26754  0.96230  0.06129  1.0000 0.5568174402
C   C57       1.0  0.22041  0.36160  0.32253  1.0000 0.5568174402
C   C58       1.0  0.77959  0.63840  0.67747  1.0000 0.5568174402
C   C59       1.0  0.27959  0.13840  0.82253  1.0000 0.5568174402
C   C60       1.0  0.72041  0.86160  0.17747  1.0000 0.5568174402
C   C61       1.0  0.77959  0.36160  0.17747  1.0000 0.5568174402
C   C62       1.0  0.22041  0.63840  0.82253  1.0000 0.5568174402
C   C63       1.0  0.72041  0.13840  0.67747  1.0000 0.5568174402
C   C64       1.0  0.27959  0.86160  0.32253  1.0000 0.5568174402
C   C65       1.0  0.16903  0.18910  0.09440  1.0000 0.582666872
C   C66       1.0  0.83097  0.81090  0.90560  1.0000 0.582666872
C   C67       1.0  0.33097  0.31090  0.59440  1.0000 0.582666872
C   C68       1.0  0.66903  0.68910  0.40560  1.0000 0.582666872
C   C69       1.0  0.83097  0.18910  0.40560  1.0000 0.582666872
C   C70       1.0  0.16903  0.81090  0.59440  1.0000 0.582666872
C   C71       1.0  0.66903  0.31090  0.90560  1.0000 0.582666872
C   C72       1.0  0.33097  0.68910  0.09440  1.0000 0.582666872
C   C73       1.0  0.14169  0.03906  0.43506  1.0000 0.5657057146
C   C74       1.0  0.85831  0.96094  0.56494  1.0000 0.5657057146
C   C75       1.0  0.35831  0.46094  0.93506  1.0000 0.5657057146
C   C76       1.0  0.64169  0.53906  0.06494  1.0000 0.5657057146
C   C77       1.0  0.85831  0.03906  0.06494  1.0000 0.5657057146
C   C78       1.0  0.14169  0.96094  0.93506  1.0000 0.5657057146
C   C79       1.0  0.64169  0.46094  0.56494  1.0000 0.5657057146
C   C80       1.0  0.35831  0.53906  0.43506  1.0000 0.5657057146
C   C81       1.0  0.15534  0.09448  0.37334  1.0000 -0.0430366473
C   C82       1.0  0.84466  0.90552  0.62666  1.0000 -0.0430366473
C   C83       1.0  0.34466  0.40552  0.87334  1.0000 -0.0430366473
C   C84       1.0  0.65534  0.59448  0.12666  1.0000 -0.0430366473
C   C85       1.0  0.84466  0.09448  0.12666  1.0000 -0.0430366473
C   C86       1.0  0.15534  0.90552  0.87334  1.0000 -0.0430366473
C   C87       1.0  0.65534  0.40552  0.62666  1.0000 -0.0430366473
C   C88       1.0  0.34466  0.59448  0.37334  1.0000 -0.0430366473
C   C89       1.0  0.20604  0.08467  0.32555  1.0000 -0.0701039192
C   C90       1.0  0.79396  0.91533  0.67445  1.0000 -0.0701039192
C   C91       1.0  0.29396  0.41533  0.82555  1.0000 -0.0701039192
C   C92       1.0  0.70604  0.58467  0.17445  1.0000 -0.0701039192
C   C93       1.0  0.79396  0.08467  0.17445  1.0000 -0.0701039192
C   C94       1.0  0.20604  0.91533  0.82555  1.0000 -0.0701039192
C   C95       1.0  0.70604  0.41533  0.67445  1.0000 -0.0701039192
C   C96       1.0  0.29396  0.58467  0.32555  1.0000 -0.0701039192
C   C97       1.0  0.21908  0.14081  0.27135  1.0000 -0.1188551607
C   C98       1.0  0.78092  0.85919  0.72865  1.0000 -0.1188551607
C   C99       1.0  0.28092  0.35919  0.77135  1.0000 -0.1188551607
C   C100      1.0  0.71908  0.64081  0.22865  1.0000 -0.1188551607
C   C101      1.0  0.78092  0.14081  0.22865  1.0000 -0.1188551607
C   C102      1.0  0.21908  0.85919  0.77135  1.0000 -0.1188551607
C   C103      1.0  0.71908  0.35919  0.72865  1.0000 -0.1188551607
C   C104      1.0  0.28092  0.64081  0.27135  1.0000 -0.1188551607
C   C105      1.0  0.18269  0.20722  0.26467  1.0000 0.0991796745
C   C106      1.0  0.81731  0.79278  0.73533  1.0000 0.0991796745
C   C107      1.0  0.31731  0.29278  0.76467  1.0000 0.0991796745
C   C108      1.0  0.68269  0.70722  0.23533  1.0000 0.0991796745
C   C109      1.0  0.81731  0.20722  0.23533  1.0000 0.0991796745
C   C110      1.0  0.18269  0.79278  0.76467  1.0000 0.0991796745
C   C111      1.0  0.68269  0.29278  0.73533  1.0000 0.0991796745
C   C112      1.0  0.31731  0.70722  0.26467  1.0000 0.0991796745
C   C113      1.0  0.13178  0.21601  0.31189  1.0000 -0.1303967555
C   C114      1.0  0.86822  0.78399  0.68811  1.0000 -0.1303967555
C   C115      1.0  0.36822  0.28399  0.81189  1.0000 -0.1303967555
C   C116      1.0  0.63178  0.71601  0.18811  1.0000 -0.1303967555
C   C117      1.0  0.86822  0.21601  0.18811  1.0000 -0.1303967555
C   C118      1.0  0.13178  0.78399  0.81189  1.0000 -0.1303967555
C   C119      1.0  0.63178  0.28399  0.68811  1.0000 -0.1303967555
C   C120      1.0  0.36822  0.71601  0.31189  1.0000 -0.1303967555
C   C121      1.0  0.11789  0.15977  0.36514  1.0000 -0.1007907168
C   C122      1.0  0.88211  0.84023  0.63486  1.0000 -0.1007907168
C   C123      1.0  0.38211  0.34023  0.86514  1.0000 -0.1007907168
C   C124      1.0  0.61789  0.65977  0.13486  1.0000 -0.1007907168
C   C125      1.0  0.88211  0.15977  0.13486  1.0000 -0.1007907168
C   C126      1.0  0.11789  0.84023  0.86514  1.0000 -0.1007907168
C   C127      1.0  0.61789  0.34023  0.63486  1.0000 -0.1007907168
C   C128      1.0  0.38211  0.65977  0.36514  1.0000 -0.1007907168
C   C129      1.0  0.37799  0.38236  0.16840  1.0000 0.0991796745
C   C130      1.0  0.62201  0.61764  0.83160  1.0000 0.0906975208
C   C131      1.0  0.12201  0.11764  0.66840  1.0000 0.0991796745
C   C132      1.0  0.87799  0.88236  0.33160  1.0000 0.0906975208
C   C133      1.0  0.62201  0.38236  0.33160  1.0000 0.0906975208
C   C134      1.0  0.37799  0.61764  0.66840  1.0000 0.0906975208
C   C135      1.0  0.87799  0.11764  0.83160  1.0000 0.0906975208
C   C136      1.0  0.12201  0.88236  0.16840  1.0000 0.0906975208
C   C137      1.0  0.38035  0.33578  0.23254  1.0000 -0.1798604225
C   C138      1.0  0.61965  0.66422  0.76746  1.0000 -0.1798604225
C   C139      1.0  0.11965  0.16422  0.73254  1.0000 -0.1798604225
C   C140      1.0  0.88035  0.83578  0.26746  1.0000 -0.1798604225
C   C141      1.0  0.61965  0.33578  0.26746  1.0000 -0.1798604225
C   C142      1.0  0.38035  0.66422  0.73254  1.0000 -0.1798604225
C   C143      1.0  0.88035  0.16422  0.76746  1.0000 -0.1798604225
C   C144      1.0  0.11965  0.83578  0.23254  1.0000 -0.1798604225
C   C145      1.0  0.40456  0.36514  0.30004  1.0000 0.1886972765
C   C146      1.0  0.59544  0.63486  0.69996  1.0000 0.1886972765
C   C147      1.0  0.09544  0.13486  0.80004  1.0000 0.1886972765
C   C148      1.0  0.90456  0.86514  0.19996  1.0000 0.1886972765
C   C149      1.0  0.59544  0.36514  0.19996  1.0000 0.1886972765
C   C150      1.0  0.40456  0.63486  0.80004  1.0000 0.1886972765
C   C151      1.0  0.90456  0.13486  0.69996  1.0000 0.1886972765
C   C152      1.0  0.09544  0.86514  0.30004  1.0000 0.1886972765
C   C153      1.0  0.42698  0.44123  0.29862  1.0000 -0.1798604225
C   C154      1.0  0.57302  0.55877  0.70138  1.0000 -0.1798604225
C   C155      1.0  0.07302  0.05877  0.79862  1.0000 -0.1798604225
C   C156      1.0  0.92698  0.94123  0.20138  1.0000 -0.1798604225
C   C157      1.0  0.57302  0.44123  0.20138  1.0000 -0.1798604225
C   C158      1.0  0.42698  0.55877  0.79862  1.0000 -0.1798604225
C   C159      1.0  0.92698  0.05877  0.70138  1.0000 -0.1798604225
C   C160      1.0  0.07302  0.94123  0.29862  1.0000 -0.1798604225
C   C161      1.0  0.42138  0.48544  0.23331  1.0000 0.0906975208
C   C162      1.0  0.57862  0.51456  0.76669  1.0000 0.0906975208
C   C163      1.0  0.07862  0.01456  0.73331  1.0000 0.0906975208
C   C164      1.0  0.92138  0.98544  0.26669  1.0000 0.0906975208
C   C165      1.0  0.57862  0.48544  0.26669  1.0000 0.0906975208
C   C166      1.0  0.42138  0.51456  0.73331  1.0000 0.0906975208
C   C167      1.0  0.92138  0.01456  0.76669  1.0000 0.0906975208
C   C168      1.0  0.07862  0.98544  0.23331  1.0000 0.0906975208
C   C169      1.0  0.40315  0.31964  0.37215  1.0000 -0.2056179066
C   C170      1.0  0.59685  0.68036  0.62785  1.0000 -0.2056179066
C   C171      1.0  0.09685  0.18036  0.87215  1.0000 -0.2056179066
C   C172      1.0  0.90315  0.81964  0.12785  1.0000 -0.2056179066
C   C173      1.0  0.59685  0.31964  0.12785  1.0000 -0.2056179066
C   C174      1.0  0.40315  0.68036  0.87215  1.0000 -0.2056179066
C   C175      1.0  0.90315  0.18036  0.62785  1.0000 -0.2056179066
C   C176      1.0  0.09685  0.81964  0.37215  1.0000 -0.2056179066
C   C177      1.0  0.46578  0.29919  0.40509  1.0000 -0.1188551607
C   C178      1.0  0.53422  0.70081  0.59491  1.0000 -0.1188551607
C   C179      1.0  0.03422  0.20081  0.90509  1.0000 -0.1188551607
C   C180      1.0  0.96578  0.79919  0.09491  1.0000 -0.1188551607
C   C181      1.0  0.53422  0.29919  0.09491  1.0000 -0.1188551607
C   C182      1.0  0.46578  0.70081  0.90509  1.0000 -0.1188551607
C   C183      1.0  0.96578  0.20081  0.59491  1.0000 -0.1188551607
C   C184      1.0  0.03422  0.79919  0.40509  1.0000 -0.1188551607
C   C185      1.0  0.49762  0.23376  0.36284  1.0000 -0.1890194445
C   C186      1.0  0.50238  0.76624  0.63716  1.0000 -0.1890194445
C   C187      1.0  0.00238  0.26624  0.86284  1.0000 -0.1890194445
C   C188      1.0  0.99762  0.73376  0.13716  1.0000 -0.1890194445
C   C189      1.0  0.50238  0.23376  0.13716  1.0000 -0.1890194445
C   C190      1.0  0.49762  0.76624  0.86284  1.0000 -0.1890194445
C   C191      1.0  0.99762  0.26624  0.63716  1.0000 -0.1890194445
C   C192      1.0  0.00238  0.73376  0.36284  1.0000 -0.1890194445
C   C193      1.0  0.64367  0.11959  0.39504  1.0000 0.0991796745
C   C194      1.0  0.35633  0.88041  0.60496  1.0000 0.0991796745
C   C195      1.0  0.85633  0.38041  0.89504  1.0000 0.0991796745
C   C196      1.0  0.14367  0.61959  0.10496  1.0000 0.0991796745
C   C197      1.0  0.35633  0.11959  0.10496  1.0000 0.0991796745
C   C198      1.0  0.64367  0.88041  0.89504  1.0000 0.0991796745
C   C199      1.0  0.14367  0.38041  0.60496  1.0000 0.0991796745
C   C200      1.0  0.85633  0.61959  0.39504  1.0000 0.0991796745
C   C201      1.0  0.59045  0.14675  0.36157  1.0000 -0.1973133703
C   C202      1.0  0.40955  0.85325  0.63843  1.0000 -0.1973133703
C   C203      1.0  0.90955  0.35325  0.86157  1.0000 -0.1973133703
C   C204      1.0  0.09045  0.64675  0.13843  1.0000 -0.1973133703
C   C205      1.0  0.40955  0.14675  0.13843  1.0000 -0.1973133703
C   C206      1.0  0.59045  0.85325  0.86157  1.0000 -0.1973133703
C   C207      1.0  0.09045  0.35325  0.63843  1.0000 -0.1973133703
C   C208      1.0  0.90955  0.64675  0.36157  1.0000 -0.1973133703
C   C209      1.0  0.55690  0.20645  0.39620  1.0000 0.1626374106
C   C210      1.0  0.44310  0.79355  0.60380  1.0000 0.1626374106
C   C211      1.0  0.94310  0.29355  0.89620  1.0000 0.1626374106
C   C212      1.0  0.05690  0.70645  0.10380  1.0000 0.1626374106
C   C213      1.0  0.44310  0.20645  0.10380  1.0000 0.1626374106
C   C214      1.0  0.55690  0.79355  0.89620  1.0000 0.1626374106
C   C215      1.0  0.05690  0.29355  0.60380  1.0000 0.1626374106
C   C216      1.0  0.94310  0.70645  0.39620  1.0000 0.1626374106
C   C217      1.0  0.63406  0.20712  0.49371  1.0000 0.0991796745
C   C218      1.0  0.36594  0.79288  0.50629  1.0000 0.0991796745
C   C219      1.0  0.86594  0.29288  0.99371  1.0000 0.0991796745
C   C220      1.0  0.13406  0.70712  0.00629  1.0000 0.0991796745
C   C221      1.0  0.36594  0.20712  0.00629  1.0000 0.0991796745
C   C222      1.0  0.63406  0.79288  0.99371  1.0000 0.0991796745
C   C223      1.0  0.13406  0.29288  0.50629  1.0000 0.0991796745
C   C224      1.0  0.86594  0.70712  0.49371  1.0000 0.0991796745
C   C225      1.0  0.58045  0.23740  0.46336  1.0000 -0.1890194445
C   C226      1.0  0.41955  0.76260  0.53664  1.0000 -0.1890194445
C   C227      1.0  0.91955  0.26260  0.96336  1.0000 -0.1890194445
C   C228      1.0  0.08045  0.73740  0.03664  1.0000 -0.1890194445
C   C229      1.0  0.41955  0.23740  0.03664  1.0000 -0.1890194445
C   C230      1.0  0.58045  0.76260  0.96336  1.0000 -0.1890194445
C   C231      1.0  0.08045  0.26260  0.53664  1.0000 -0.1890194445
C   C232      1.0  0.91955  0.73740  0.46336  1.0000 -0.1890194445
N   N1        1.0  0.39729  0.45687  0.16842  1.0000 -0.2743755897
N   N2        1.0  0.60271  0.54313  0.83158  1.0000 -0.2743755897
N   N3        1.0  0.10271  0.04313  0.66842  1.0000 -0.2743755897
N   N4        1.0  0.89729  0.95687  0.33158  1.0000 -0.2743755897
N   N5        1.0  0.60271  0.45687  0.33158  1.0000 -0.2743755897
N   N6        1.0  0.39729  0.54313  0.66842  1.0000 -0.2743755897
N   N7        1.0  0.89729  0.04313  0.83158  1.0000 -0.2743755897
N   N8        1.0  0.10271  0.95687  0.16842  1.0000 -0.2743755897
N   N9        1.0  0.66518  0.14850  0.46114  1.0000 -0.2580486332
N   N10       1.0  0.33482  0.85150  0.53886  1.0000 -0.2580486332
N   N11       1.0  0.83482  0.35150  0.96114  1.0000 -0.2580486332
N   N12       1.0  0.16518  0.64850  0.03886  1.0000 -0.2580486332
N   N13       1.0  0.33482  0.14850  0.03886  1.0000 -0.2580486332
N   N14       1.0  0.66518  0.85150  0.96114  1.0000 -0.2580486332
N   N15       1.0  0.16518  0.35150  0.53886  1.0000 -0.2580486332
N   N16       1.0  0.83482  0.64850  0.46114  1.0000 -0.2580486332
O   O1        1.0  0.26435  0.51964  0.08833  1.0000 -0.6072593947
O   O2        1.0  0.73565  0.48036  0.91167  1.0000 -0.6072593947
O   O3        1.0  0.23565  0.98036  0.58833  1.0000 -0.6072593947
O   O4        1.0  0.76435  0.01964  0.41167  1.0000 -0.6072593947
O   O5        1.0  0.73565  0.51964  0.41167  1.0000 -0.6072593947
O   O6        1.0  0.26435  0.48036  0.58833  1.0000 -0.6072593947
O   O7        1.0  0.76435  0.98036  0.91167  1.0000 -0.6072593947
O   O8        1.0  0.23565  0.01964  0.08833  1.0000 -0.6072593947
O   O9        1.0  0.20837  0.46350  0.99636  1.0000 -0.5064589401
O   O10       1.0  0.79163  0.53650  0.00364  1.0000 -0.5064589401
O   O11       1.0  0.29163  0.03650  0.49636  1.0000 -0.5064589401
O   O12       1.0  0.70837  0.96350  0.50364  1.0000 -0.5064589401
O   O13       1.0  0.79163  0.46350  0.50364  1.0000 -0.5064589401
O   O14       1.0  0.20837  0.53650  0.49636  1.0000 -0.5064589401
O   O15       1.0  0.70837  0.03650  0.00364  1.0000 -0.5064589401
O   O16       1.0  0.29163  0.96350  0.99636  1.0000 -0.5064589401
O   O17       1.0  0.19819  0.42613  0.34548  1.0000 -0.5592812915
O   O18       1.0  0.80181  0.57387  0.65452  1.0000 -0.5592812915
O   O19       1.0  0.30181  0.07387  0.84548  1.0000 -0.5592812915
O   O20       1.0  0.69819  0.92613  0.15452  1.0000 -0.5592812915
O   O21       1.0  0.80181  0.42613  0.15452  1.0000 -0.5592812915
O   O22       1.0  0.19819  0.57387  0.84548  1.0000 -0.5592812915
O   O23       1.0  0.69819  0.07387  0.65452  1.0000 -0.5592812915
O   O24       1.0  0.30181  0.92613  0.34548  1.0000 -0.5592812915
O   O25       1.0  0.24930  0.31530  0.36590  1.0000 -0.5364680906
O   O26       1.0  0.75070  0.68470  0.63410  1.0000 -0.5364680906
O   O27       1.0  0.25070  0.18470  0.86590  1.0000 -0.5364680906
O   O28       1.0  0.74930  0.81530  0.13410  1.0000 -0.5364680906
O   O29       1.0  0.75070  0.31530  0.13410  1.0000 -0.5364680906
O   O30       1.0  0.24930  0.68470  0.86590  1.0000 -0.5364680906
O   O31       1.0  0.74930  0.18470  0.63410  1.0000 -0.5364680906
O   O32       1.0  0.25070  0.81530  0.36590  1.0000 -0.5364680906
O   O33       1.0  0.13061  0.14668  0.13128  1.0000 -0.5453168173
O   O34       1.0  0.86939  0.85332  0.86872  1.0000 -0.5453168173
O   O35       1.0  0.36939  0.35332  0.63128  1.0000 -0.5453168173
O   O36       1.0  0.63061  0.64668  0.36872  1.0000 -0.5453168173
O   O37       1.0  0.86939  0.14668  0.36872  1.0000 -0.5453168173
O   O38       1.0  0.13061  0.85332  0.63128  1.0000 -0.5453168173
O   O39       1.0  0.63061  0.35332  0.86872  1.0000 -0.5453168173
O   O40       1.0  0.36939  0.64668  0.13128  1.0000 -0.5453168173
O   O41       1.0  0.18640  0.17442  0.02755  1.0000 -0.5680647177
O   O42       1.0  0.81360  0.82558  0.97245  1.0000 -0.5680647177
O   O43       1.0  0.31360  0.32558  0.52755  1.0000 -0.5680647177
O   O44       1.0  0.68640  0.67442  0.47245  1.0000 -0.5680647177
O   O45       1.0  0.81360  0.17442  0.47245  1.0000 -0.5680647177
O   O46       1.0  0.18640  0.82558  0.52755  1.0000 -0.5680647177
O   O47       1.0  0.68640  0.32558  0.97245  1.0000 -0.5680647177
O   O48       1.0  0.31360  0.67442  0.02755  1.0000 -0.5680647177
O   O49       1.0  0.10372  0.05923  0.48721  1.0000 -0.5680647177
O   O50       1.0  0.89628  0.94077  0.51279  1.0000 -0.5680647177
O   O51       1.0  0.39628  0.44077  0.98721  1.0000 -0.5680647177
O   O52       1.0  0.60372  0.55923  0.01279  1.0000 -0.5680647177
O   O53       1.0  0.89628  0.05923  0.01279  1.0000 -0.5680647177
O   O54       1.0  0.10372  0.94077  0.98721  1.0000 -0.5680647177
O   O55       1.0  0.60372  0.44077  0.51279  1.0000 -0.5680647177
O   O56       1.0  0.39628  0.55923  0.48721  1.0000 -0.5680647177
O   O57       1.0  0.16741  0.97242  0.43692  1.0000 -0.5750322734
O   O58       1.0  0.83259  0.02758  0.56308  1.0000 -0.5750322734
O   O59       1.0  0.33259  0.52758  0.93692  1.0000 -0.5750322734
O   O60       1.0  0.66741  0.47242  0.06308  1.0000 -0.5750322734
O   O61       1.0  0.83259  0.97242  0.06308  1.0000 -0.5750322734
O   O62       1.0  0.16741  0.02758  0.93692  1.0000 -0.5750322734
O   O63       1.0  0.66741  0.52758  0.56308  1.0000 -0.5750322734
O   O64       1.0  0.33259  0.47242  0.43692  1.0000 -0.5750322734
