# DDEC6 charges by PACMAN v1.1 (https://github.com/mtap-research/PACMAN-charge/)
data_0000[Fe][acs]3[ASR]2
_chemical_formula_sum              "Fe24 H192 C336 O104"
_cell_length_a       21.8305
_cell_length_b       21.8305
_cell_length_c       35.0884
_cell_angle_alpha    90
_cell_angle_beta     90
_cell_angle_gamma    90

_symmetry_space_group_name_H-M    "P 1"
_symmetry_Int_Tables_number       1

loop_
  _symmetry_equiv_pos_as_xyz
  'x, y, z'

loop_
  _atom_site_type_symbol
  _atom_site_label
  _atom_site_symmetry_multiplicity
  _atom_site_fract_x
  _atom_site_fract_y
  _atom_site_fract_z
  _atom_site_occupancy
  _atom_site_charge
Fe  Fe1       1.0  0.71814  0.00007  0.60085  1.0000 1.2611087568
Fe  Fe2       1.0  0.80714  0.99428  0.52431  1.0000 1.2162519445
Fe  Fe3       1.0  0.65771  0.00282  0.51423  1.0000 1.2473772175
Fe  Fe4       1.0  0.28186  0.99993  0.10085  1.0000 1.2611087568
Fe  Fe5       1.0  0.19286  0.00572  0.02431  1.0000 1.2162519445
Fe  Fe6       1.0  0.34229  0.99718  0.01423  1.0000 1.2473772175
Fe  Fe7       1.0  0.78186  0.50007  0.14915  1.0000 1.2611087568
Fe  Fe8       1.0  0.69286  0.49428  0.22569  1.0000 1.2162519445
Fe  Fe9       1.0  0.84229  0.50282  0.23577  1.0000 1.2473772175
Fe  Fe10      1.0  0.21814  0.49993  0.64915  1.0000 1.2611087568
Fe  Fe11      1.0  0.30714  0.50572  0.72569  1.0000 1.2162519445
Fe  Fe12      1.0  0.15771  0.49718  0.73577  1.0000 1.2473772175
Fe  Fe13      1.0  0.50007  0.78186  0.85085  1.0000 1.2611087568
Fe  Fe14      1.0  0.49428  0.69286  0.77431  1.0000 1.2162519445
Fe  Fe15      1.0  0.50282  0.84229  0.76423  1.0000 1.2473772175
Fe  Fe16      1.0  0.49993  0.21814  0.35085  1.0000 1.2611087568
Fe  Fe17      1.0  0.50572  0.30714  0.27431  1.0000 1.2162519445
Fe  Fe18      1.0  0.49718  0.15771  0.26423  1.0000 1.2473772175
Fe  Fe19      1.0  0.99993  0.28186  0.89915  1.0000 1.2611087568
Fe  Fe20      1.0  0.00572  0.19286  0.97569  1.0000 1.2143138058
Fe  Fe21      1.0  0.99718  0.34229  0.98577  1.0000 1.2473772175
Fe  Fe22      1.0  0.00007  0.71814  0.39915  1.0000 1.2611087568
Fe  Fe23      1.0  0.99428  0.80714  0.47569  1.0000 1.2162519445
Fe  Fe24      1.0  0.00282  0.65771  0.48577  1.0000 1.2473772175
H   H1        1.0  0.89760  0.16060  0.54650  1.0000 0.1307335437
H   H2        1.0  0.84120  0.13410  0.65410  1.0000 0.1307335437
H   H3        1.0  0.93360  0.88100  0.56900  1.0000 0.1307335437
H   H4        1.0  0.82600  0.85750  0.66260  1.0000 0.1196441856
H   H5        1.0  0.95220  0.24860  0.56840  1.0000 0.1135562817
H   H6        1.0  0.90440  0.21220  0.67480  1.0000 0.1135562817
H   H7        1.0  0.99710  0.80310  0.58860  1.0000 0.1196441856
H   H8        1.0  0.89310  0.77910  0.68320  1.0000 0.1196441856
H   H9        1.0  0.84150  0.11370  0.43140  1.0000 0.1307335437
H   H10       1.0  0.65970  0.15220  0.43860  1.0000 0.1307335437
H   H11       1.0  0.85000  0.17930  0.37970  1.0000 0.1196441856
H   H12       1.0  0.66900  0.22080  0.38920  1.0000 0.1196441856
H   H13       1.0  0.04120  0.27220  0.59240  1.0000 0.1135562817
H   H14       1.0  0.94210  0.30790  0.68360  1.0000 0.1135562817
H   H15       1.0  0.99700  0.69290  0.59460  1.0000 0.1196441856
H   H16       1.0  0.98770  0.74400  0.70550  1.0000 0.1196441856
H   H17       1.0  0.11620  0.34460  0.61090  1.0000 0.1307335437
H   H18       1.0  0.01290  0.37650  0.70400  1.0000 0.1307335437
H   H19       1.0  0.06800  0.61730  0.60940  1.0000 0.1196441856
H   H20       1.0  0.06010  0.66560  0.72090  1.0000 0.1196441856
H   H21       1.0  0.85360  0.28120  0.35810  1.0000 0.1196441856
H   H22       1.0  0.68440  0.23370  0.32250  1.0000 0.1307335437
H   H23       1.0  0.85100  0.36770  0.31870  1.0000 0.1307335437
H   H24       1.0  0.68070  0.31760  0.28250  1.0000 0.1196441856
H   H25       1.0  0.10240  0.83940  0.04650  1.0000 0.1307335437
H   H26       1.0  0.15880  0.86590  0.15410  1.0000 0.1307335437
H   H27       1.0  0.06640  0.11900  0.06900  1.0000 0.1307335437
H   H28       1.0  0.17400  0.14250  0.16260  1.0000 0.1196441856
H   H29       1.0  0.04780  0.75140  0.06840  1.0000 0.1135562817
H   H30       1.0  0.09560  0.78780  0.17480  1.0000 0.1135562817
H   H31       1.0  0.00290  0.19690  0.08860  1.0000 0.1196441856
H   H32       1.0  0.10690  0.22090  0.18320  1.0000 0.1196441856
H   H33       1.0  0.15850  0.88630  0.93140  1.0000 0.1307335437
H   H34       1.0  0.34030  0.84780  0.93860  1.0000 0.1307335437
H   H35       1.0  0.15000  0.82070  0.87970  1.0000 0.1196441856
H   H36       1.0  0.33100  0.77920  0.88920  1.0000 0.1196441856
H   H37       1.0  0.95880  0.72780  0.09240  1.0000 0.1135562817
H   H38       1.0  0.05790  0.69210  0.18360  1.0000 0.1135562817
H   H39       1.0  0.00300  0.30710  0.09460  1.0000 0.1196441856
H   H40       1.0  0.01230  0.25600  0.20550  1.0000 0.1196441856
H   H41       1.0  0.88380  0.65540  0.11090  1.0000 0.1307335437
H   H42       1.0  0.98710  0.62350  0.20400  1.0000 0.1307335437
H   H43       1.0  0.93200  0.38270  0.10940  1.0000 0.1196441856
H   H44       1.0  0.93990  0.33440  0.22090  1.0000 0.1196441856
H   H45       1.0  0.14640  0.71880  0.85810  1.0000 0.1196441856
H   H46       1.0  0.31560  0.76630  0.82250  1.0000 0.1307335437
H   H47       1.0  0.14900  0.63230  0.81870  1.0000 0.1307335437
H   H48       1.0  0.31930  0.68240  0.78250  1.0000 0.1196441856
H   H49       1.0  0.60240  0.66060  0.20350  1.0000 0.1307335437
H   H50       1.0  0.65880  0.63410  0.09590  1.0000 0.1307335437
H   H51       1.0  0.56640  0.38100  0.18100  1.0000 0.1307335437
H   H52       1.0  0.67400  0.35750  0.08740  1.0000 0.1196441856
H   H53       1.0  0.54780  0.74860  0.18160  1.0000 0.1135562817
H   H54       1.0  0.59560  0.71220  0.07520  1.0000 0.1135562817
H   H55       1.0  0.50290  0.30310  0.16140  1.0000 0.1196441856
H   H56       1.0  0.60690  0.27910  0.06680  1.0000 0.1196441856
H   H57       1.0  0.65850  0.61370  0.31860  1.0000 0.1307335437
H   H58       1.0  0.84030  0.65220  0.31140  1.0000 0.1307335437
H   H59       1.0  0.65000  0.67930  0.37030  1.0000 0.1196441856
H   H60       1.0  0.83100  0.72080  0.36080  1.0000 0.1196441856
H   H61       1.0  0.45880  0.77220  0.15760  1.0000 0.1135562817
H   H62       1.0  0.55790  0.80790  0.06640  1.0000 0.1135562817
H   H63       1.0  0.50300  0.19290  0.15540  1.0000 0.1196441856
H   H64       1.0  0.51230  0.24400  0.04450  1.0000 0.1196441856
H   H65       1.0  0.38380  0.84460  0.13910  1.0000 0.1307335437
H   H66       1.0  0.48710  0.87650  0.04600  1.0000 0.1307335437
H   H67       1.0  0.43200  0.11730  0.14060  1.0000 0.1196441856
H   H68       1.0  0.43990  0.16560  0.02910  1.0000 0.1196441856
H   H69       1.0  0.64640  0.78120  0.39190  1.0000 0.1196441856
H   H70       1.0  0.81560  0.73370  0.42750  1.0000 0.1307335437
H   H71       1.0  0.64900  0.86770  0.43130  1.0000 0.1307335437
H   H72       1.0  0.81930  0.81760  0.46750  1.0000 0.1196441856
H   H73       1.0  0.39760  0.33940  0.70350  1.0000 0.1307335437
H   H74       1.0  0.34120  0.36590  0.59590  1.0000 0.1307335437
H   H75       1.0  0.43360  0.61900  0.68100  1.0000 0.1307335437
H   H76       1.0  0.32600  0.64250  0.58740  1.0000 0.1196441856
H   H77       1.0  0.45220  0.25140  0.68160  1.0000 0.1135562817
H   H78       1.0  0.40440  0.28780  0.57520  1.0000 0.1135562817
H   H79       1.0  0.49710  0.69690  0.66140  1.0000 0.1196441856
H   H80       1.0  0.39310  0.72090  0.56680  1.0000 0.1196441856
H   H81       1.0  0.34150  0.38630  0.81860  1.0000 0.1307335437
H   H82       1.0  0.15970  0.34780  0.81140  1.0000 0.1307335437
H   H83       1.0  0.35000  0.32070  0.87030  1.0000 0.1196441856
H   H84       1.0  0.16900  0.27920  0.86080  1.0000 0.1196441856
H   H85       1.0  0.54120  0.22780  0.65760  1.0000 0.1135562817
H   H86       1.0  0.44210  0.19210  0.56640  1.0000 0.1135562817
H   H87       1.0  0.49700  0.80710  0.65540  1.0000 0.1196441856
H   H88       1.0  0.48770  0.75600  0.54450  1.0000 0.1196441856
H   H89       1.0  0.61620  0.15540  0.63910  1.0000 0.1307335437
H   H90       1.0  0.51290  0.12350  0.54600  1.0000 0.1307335437
H   H91       1.0  0.56800  0.88270  0.64060  1.0000 0.1196441856
H   H92       1.0  0.56010  0.83440  0.52910  1.0000 0.1196441856
H   H93       1.0  0.35360  0.21880  0.89190  1.0000 0.1196441856
H   H94       1.0  0.18440  0.26630  0.92750  1.0000 0.1307335437
H   H95       1.0  0.35100  0.13230  0.93130  1.0000 0.1307335437
H   H96       1.0  0.18070  0.18240  0.96750  1.0000 0.1196441856
H   H97       1.0  0.66060  0.60240  0.79650  1.0000 0.1307335437
H   H98       1.0  0.63410  0.65880  0.90410  1.0000 0.1307335437
H   H99       1.0  0.38100  0.56640  0.81900  1.0000 0.1307335437
H   H100      1.0  0.35750  0.67400  0.91260  1.0000 0.1196441856
H   H101      1.0  0.74860  0.54780  0.81840  1.0000 0.1135562817
H   H102      1.0  0.71220  0.59560  0.92480  1.0000 0.1135562817
H   H103      1.0  0.30310  0.50290  0.83860  1.0000 0.1196441856
H   H104      1.0  0.27910  0.60690  0.93320  1.0000 0.1196441856
H   H105      1.0  0.61370  0.65850  0.68140  1.0000 0.1307335437
H   H106      1.0  0.65220  0.84030  0.68860  1.0000 0.1307335437
H   H107      1.0  0.67930  0.65000  0.62970  1.0000 0.1196441856
H   H108      1.0  0.72080  0.83100  0.63920  1.0000 0.1196441856
H   H109      1.0  0.77220  0.45880  0.84240  1.0000 0.1135562817
H   H110      1.0  0.80790  0.55790  0.93360  1.0000 0.1135562817
H   H111      1.0  0.19290  0.50300  0.84460  1.0000 0.1196441856
H   H112      1.0  0.24400  0.51230  0.95550  1.0000 0.1196441856
H   H113      1.0  0.84460  0.38380  0.86090  1.0000 0.1307335437
H   H114      1.0  0.87650  0.48710  0.95400  1.0000 0.1307335437
H   H115      1.0  0.11730  0.43200  0.85940  1.0000 0.1196441856
H   H116      1.0  0.16560  0.43990  0.97090  1.0000 0.1196441856
H   H117      1.0  0.78120  0.64640  0.60810  1.0000 0.1196441856
H   H118      1.0  0.73370  0.81560  0.57250  1.0000 0.1307335437
H   H119      1.0  0.86770  0.64900  0.56870  1.0000 0.1307335437
H   H120      1.0  0.81760  0.81930  0.53250  1.0000 0.1196441856
H   H121      1.0  0.33940  0.39760  0.29650  1.0000 0.1307335437
H   H122      1.0  0.36590  0.34120  0.40410  1.0000 0.1307335437
H   H123      1.0  0.61900  0.43360  0.31900  1.0000 0.1307335437
H   H124      1.0  0.64250  0.32600  0.41260  1.0000 0.1196441856
H   H125      1.0  0.25140  0.45220  0.31840  1.0000 0.1135562817
H   H126      1.0  0.28780  0.40440  0.42480  1.0000 0.1135562817
H   H127      1.0  0.69690  0.49710  0.33860  1.0000 0.1196441856
H   H128      1.0  0.72090  0.39310  0.43320  1.0000 0.1196441856
H   H129      1.0  0.38630  0.34150  0.18140  1.0000 0.1307335437
H   H130      1.0  0.34780  0.15970  0.18860  1.0000 0.1307335437
H   H131      1.0  0.32070  0.35000  0.12970  1.0000 0.1196441856
H   H132      1.0  0.27920  0.16900  0.13920  1.0000 0.1196441856
H   H133      1.0  0.22780  0.54120  0.34240  1.0000 0.1135562817
H   H134      1.0  0.19210  0.44210  0.43360  1.0000 0.1135562817
H   H135      1.0  0.80710  0.49700  0.34460  1.0000 0.1196441856
H   H136      1.0  0.75600  0.48770  0.45550  1.0000 0.1196441856
H   H137      1.0  0.15540  0.61620  0.36090  1.0000 0.1307335437
H   H138      1.0  0.12350  0.51290  0.45400  1.0000 0.1307335437
H   H139      1.0  0.88270  0.56800  0.35940  1.0000 0.1196441856
H   H140      1.0  0.83440  0.56010  0.47090  1.0000 0.1196441856
H   H141      1.0  0.21880  0.35360  0.10810  1.0000 0.1196441856
H   H142      1.0  0.26630  0.18440  0.07250  1.0000 0.1307335437
H   H143      1.0  0.13230  0.35100  0.06870  1.0000 0.1307335437
H   H144      1.0  0.18240  0.18070  0.03250  1.0000 0.1196441856
H   H145      1.0  0.83940  0.10240  0.95350  1.0000 0.1307335437
H   H146      1.0  0.86590  0.15880  0.84590  1.0000 0.1307335437
H   H147      1.0  0.11900  0.06640  0.93100  1.0000 0.1307335437
H   H148      1.0  0.14250  0.17400  0.83740  1.0000 0.1196441856
H   H149      1.0  0.75140  0.04780  0.93160  1.0000 0.1135562817
H   H150      1.0  0.78780  0.09560  0.82520  1.0000 0.1135562817
H   H151      1.0  0.19690  0.00290  0.91140  1.0000 0.1196441856
H   H152      1.0  0.22090  0.10690  0.81680  1.0000 0.1196441856
H   H153      1.0  0.88630  0.15850  0.06860  1.0000 0.1307335437
H   H154      1.0  0.84780  0.34030  0.06140  1.0000 0.1307335437
H   H155      1.0  0.82070  0.15000  0.12030  1.0000 0.1196441856
H   H156      1.0  0.77920  0.33100  0.11080  1.0000 0.1196441856
H   H157      1.0  0.72780  0.95880  0.90760  1.0000 0.1135562817
H   H158      1.0  0.69210  0.05790  0.81640  1.0000 0.1135562817
H   H159      1.0  0.30710  0.00300  0.90540  1.0000 0.1196441856
H   H160      1.0  0.25600  0.01230  0.79450  1.0000 0.1196441856
H   H161      1.0  0.65540  0.88380  0.88910  1.0000 0.1307335437
H   H162      1.0  0.62350  0.98710  0.79600  1.0000 0.1307335437
H   H163      1.0  0.38270  0.93200  0.89060  1.0000 0.1196441856
H   H164      1.0  0.33440  0.93990  0.77910  1.0000 0.1196441856
H   H165      1.0  0.71880  0.14640  0.14190  1.0000 0.1196441856
H   H166      1.0  0.76630  0.31560  0.17750  1.0000 0.1307335437
H   H167      1.0  0.63230  0.14900  0.18130  1.0000 0.1307335437
H   H168      1.0  0.68240  0.31930  0.21750  1.0000 0.1196441856
H   H169      1.0  0.16060  0.89760  0.45350  1.0000 0.1307335437
H   H170      1.0  0.13410  0.84120  0.34590  1.0000 0.1307335437
H   H171      1.0  0.88100  0.93360  0.43100  1.0000 0.1307335437
H   H172      1.0  0.85750  0.82600  0.33740  1.0000 0.1196441856
H   H173      1.0  0.24860  0.95220  0.43160  1.0000 0.1135562817
H   H174      1.0  0.21220  0.90440  0.32520  1.0000 0.1135562817
H   H175      1.0  0.80310  0.99710  0.41140  1.0000 0.1196441856
H   H176      1.0  0.77910  0.89310  0.31680  1.0000 0.1196441856
H   H177      1.0  0.11370  0.84150  0.56860  1.0000 0.1307335437
H   H178      1.0  0.15220  0.65970  0.56140  1.0000 0.1307335437
H   H179      1.0  0.17930  0.85000  0.62030  1.0000 0.1196441856
H   H180      1.0  0.22080  0.66900  0.61080  1.0000 0.1196441856
H   H181      1.0  0.27220  0.04120  0.40760  1.0000 0.1135562817
H   H182      1.0  0.30790  0.94210  0.31640  1.0000 0.1135562817
H   H183      1.0  0.69290  0.99700  0.40540  1.0000 0.1196441856
H   H184      1.0  0.74400  0.98770  0.29450  1.0000 0.1196441856
H   H185      1.0  0.34460  0.11620  0.38910  1.0000 0.1307335437
H   H186      1.0  0.37650  0.01290  0.29600  1.0000 0.1307335437
H   H187      1.0  0.61730  0.06800  0.39060  1.0000 0.1196441856
H   H188      1.0  0.66560  0.06010  0.27910  1.0000 0.1196441856
H   H189      1.0  0.28120  0.85360  0.64190  1.0000 0.1196441856
H   H190      1.0  0.23370  0.68440  0.67750  1.0000 0.1307335437
H   H191      1.0  0.36770  0.85100  0.68130  1.0000 0.1307335437
H   H192      1.0  0.31760  0.68070  0.71750  1.0000 0.1196441856
C   C1        1.0  0.82501  0.08687  0.58463  1.0000 0.6070682115
C   C2        1.0  0.82868  0.92210  0.59602  1.0000 0.59720859
C   C3        1.0  0.86285  0.13878  0.59902  1.0000 -0.0378108465
C   C4        1.0  0.87172  0.87564  0.61303  1.0000 -0.0319982794
C   C5        1.0  0.74253  0.08070  0.47051  1.0000 0.59720859
C   C6        1.0  0.89790  0.17130  0.57269  1.0000 -0.089048737
C   C7        1.0  0.86625  0.15490  0.63615  1.0000 -0.089048737
C   C8        1.0  0.92444  0.85934  0.59179  1.0000 -0.089048737
C   C9        1.0  0.86022  0.84613  0.64743  1.0000 -0.1079058934
C   C10       1.0  0.75074  0.12663  0.44010  1.0000 -0.0551607565
C   C11       1.0  0.93450  0.22100  0.58618  1.0000 -0.1583371557
C   C12       1.0  0.90480  0.20060  0.64875  1.0000 -0.151302029
C   C13       1.0  0.96212  0.81345  0.60332  1.0000 -0.1403497109
C   C14       1.0  0.90032  0.79874  0.65951  1.0000 -0.1583371557
C   C15       1.0  0.80646  0.13518  0.42250  1.0000 -0.0952365782
C   C16       1.0  0.69842  0.15870  0.42696  1.0000 -0.089048737
C   C17       1.0  0.94410  0.22950  0.62373  1.0000 0.0784474404
C   C18       1.0  0.94908  0.78068  0.63782  1.0000 0.069234637
C   C19       1.0  0.81158  0.17471  0.39212  1.0000 -0.1583371557
C   C20       1.0  0.70404  0.19876  0.39756  1.0000 -0.1403497109
C   C21       1.0  0.98672  0.27921  0.63591  1.0000 0.069234637
C   C22       1.0  0.98935  0.72875  0.64817  1.0000 0.0784474404
C   C23       1.0  0.76061  0.20843  0.37921  1.0000 0.0895602859
C   C24       1.0  0.03570  0.29310  0.61587  1.0000 -0.151302029
C   C25       1.0  0.97830  0.31370  0.66897  1.0000 -0.1583371557
C   C26       1.0  0.01086  0.68855  0.62010  1.0000 -0.1403497109
C   C27       1.0  0.00492  0.71921  0.68600  1.0000 -0.1583371557
C   C28       1.0  0.76540  0.25368  0.34716  1.0000 0.069234637
C   C29       1.0  0.08140  0.33680  0.62637  1.0000 -0.089048737
C   C30       1.0  0.01980  0.35510  0.68080  1.0000 -0.089048737
C   C31       1.0  0.05209  0.64257  0.62905  1.0000 -0.089048737
C   C32       1.0  0.04746  0.67133  0.69521  1.0000 -0.0952365782
C   C33       1.0  0.81778  0.29050  0.34380  1.0000 -0.151302029
C   C34       1.0  0.71723  0.26223  0.32256  1.0000 -0.129474317
C   C35       1.0  0.07177  0.36693  0.66022  1.0000 -0.0319982794
C   C36       1.0  0.07057  0.63295  0.66654  1.0000 -0.0551607565
C   C37       1.0  0.81696  0.34061  0.31954  1.0000 -0.1079058934
C   C38       1.0  0.71559  0.31097  0.29811  1.0000 -0.0952365782
C   C39       1.0  0.11687  0.41553  0.67161  1.0000 0.6070682115
C   C40       1.0  0.11435  0.58401  0.67663  1.0000 0.6070682115
C   C41       1.0  0.76575  0.35113  0.29625  1.0000 -0.0319982794
C   C42       1.0  0.76253  0.40769  0.27250  1.0000 0.5929542787
C   C43       1.0  0.17499  0.91313  0.08463  1.0000 0.6070682115
C   C44       1.0  0.17132  0.07790  0.09602  1.0000 0.59720859
C   C45       1.0  0.13715  0.86122  0.09902  1.0000 -0.0378108465
C   C46       1.0  0.12828  0.12436  0.11303  1.0000 -0.0319982794
C   C47       1.0  0.25747  0.91930  0.97051  1.0000 0.59720859
C   C48       1.0  0.10210  0.82870  0.07269  1.0000 -0.089048737
C   C49       1.0  0.13375  0.84510  0.13615  1.0000 -0.089048737
C   C50       1.0  0.07556  0.14066  0.09179  1.0000 -0.089048737
C   C51       1.0  0.13978  0.15387  0.14743  1.0000 -0.1079058934
C   C52       1.0  0.24926  0.87337  0.94010  1.0000 -0.0551607565
C   C53       1.0  0.06550  0.77900  0.08618  1.0000 -0.1583371557
C   C54       1.0  0.09520  0.79940  0.14875  1.0000 -0.1583371557
C   C55       1.0  0.03788  0.18655  0.10332  1.0000 -0.1403497109
C   C56       1.0  0.09968  0.20126  0.15951  1.0000 -0.1583371557
C   C57       1.0  0.19354  0.86482  0.92250  1.0000 -0.0952365782
C   C58       1.0  0.30158  0.84130  0.92696  1.0000 -0.089048737
C   C59       1.0  0.05590  0.77050  0.12373  1.0000 0.0784474404
C   C60       1.0  0.05092  0.21932  0.13782  1.0000 0.069234637
C   C61       1.0  0.18842  0.82529  0.89212  1.0000 -0.1583371557
C   C62       1.0  0.29596  0.80124  0.89756  1.0000 -0.1403497109
C   C63       1.0  0.01328  0.72079  0.13591  1.0000 0.069234637
C   C64       1.0  0.01065  0.27125  0.14817  1.0000 0.0784474404
C   C65       1.0  0.23939  0.79157  0.87921  1.0000 0.0895602859
C   C66       1.0  0.96430  0.70690  0.11587  1.0000 -0.151302029
C   C67       1.0  0.02170  0.68630  0.16897  1.0000 -0.1583371557
C   C68       1.0  0.98914  0.31145  0.12010  1.0000 -0.1403497109
C   C69       1.0  0.99508  0.28079  0.18600  1.0000 -0.1583371557
C   C70       1.0  0.23460  0.74632  0.84716  1.0000 0.069234637
C   C71       1.0  0.91860  0.66320  0.12637  1.0000 -0.089048737
C   C72       1.0  0.98020  0.64490  0.18080  1.0000 -0.089048737
C   C73       1.0  0.94791  0.35743  0.12905  1.0000 -0.089048737
C   C74       1.0  0.95254  0.32867  0.19521  1.0000 -0.089048737
C   C75       1.0  0.18222  0.70950  0.84380  1.0000 -0.151302029
C   C76       1.0  0.28277  0.73777  0.82256  1.0000 -0.129474317
C   C77       1.0  0.92823  0.63307  0.16022  1.0000 -0.0319982794
C   C78       1.0  0.92943  0.36705  0.16654  1.0000 -0.0551607565
C   C79       1.0  0.18304  0.65939  0.81954  1.0000 -0.1079058934
C   C80       1.0  0.28441  0.68903  0.79811  1.0000 -0.0952365782
C   C81       1.0  0.88313  0.58447  0.17161  1.0000 0.6070682115
C   C82       1.0  0.88565  0.41599  0.17663  1.0000 0.6070682115
C   C83       1.0  0.23425  0.64887  0.79625  1.0000 -0.0319982794
C   C84       1.0  0.23747  0.59231  0.77250  1.0000 0.5929542787
C   C85       1.0  0.67499  0.58687  0.16537  1.0000 0.6070682115
C   C86       1.0  0.67132  0.42210  0.15398  1.0000 0.59720859
C   C87       1.0  0.63715  0.63878  0.15098  1.0000 -0.0378108465
C   C88       1.0  0.62828  0.37564  0.13697  1.0000 -0.0319982794
C   C89       1.0  0.75747  0.58070  0.27949  1.0000 0.59720859
C   C90       1.0  0.60210  0.67130  0.17731  1.0000 -0.089048737
C   C91       1.0  0.63375  0.65490  0.11385  1.0000 -0.089048737
C   C92       1.0  0.57556  0.35934  0.15821  1.0000 -0.089048737
C   C93       1.0  0.63978  0.34613  0.10257  1.0000 -0.1079058934
C   C94       1.0  0.74926  0.62663  0.30990  1.0000 -0.0551607565
C   C95       1.0  0.56550  0.72100  0.16382  1.0000 -0.1583371557
C   C96       1.0  0.59520  0.70060  0.10125  1.0000 -0.1583371557
C   C97       1.0  0.53788  0.31345  0.14668  1.0000 -0.1403497109
C   C98       1.0  0.59968  0.29874  0.09049  1.0000 -0.1583371557
C   C99       1.0  0.69354  0.63518  0.32750  1.0000 -0.0952365782
C   C100      1.0  0.80158  0.65870  0.32304  1.0000 -0.089048737
C   C101      1.0  0.55590  0.72950  0.12627  1.0000 0.0784474404
C   C102      1.0  0.55092  0.28068  0.11218  1.0000 0.069234637
C   C103      1.0  0.68842  0.67471  0.35788  1.0000 -0.1583371557
C   C104      1.0  0.79596  0.69876  0.35244  1.0000 -0.1403497109
C   C105      1.0  0.51328  0.77921  0.11409  1.0000 0.069234637
C   C106      1.0  0.51065  0.22875  0.10183  1.0000 0.0784474404
C   C107      1.0  0.73939  0.70843  0.37079  1.0000 0.0895602859
C   C108      1.0  0.46430  0.79310  0.13413  1.0000 -0.151302029
C   C109      1.0  0.52170  0.81370  0.08103  1.0000 -0.1583371557
C   C110      1.0  0.48914  0.18855  0.12990  1.0000 -0.1403497109
C   C111      1.0  0.49508  0.21921  0.06400  1.0000 -0.1583371557
C   C112      1.0  0.73460  0.75368  0.40284  1.0000 0.069234637
C   C113      1.0  0.41860  0.83680  0.12363  1.0000 -0.089048737
C   C114      1.0  0.48020  0.85510  0.06920  1.0000 -0.089048737
C   C115      1.0  0.44791  0.14257  0.12095  1.0000 -0.089048737
C   C116      1.0  0.45254  0.17133  0.05479  1.0000 -0.089048737
C   C117      1.0  0.68222  0.79050  0.40620  1.0000 -0.151302029
C   C118      1.0  0.78277  0.76223  0.42744  1.0000 -0.129474317
C   C119      1.0  0.42823  0.86693  0.08978  1.0000 -0.0319982794
C   C120      1.0  0.42943  0.13295  0.08346  1.0000 -0.0551607565
C   C121      1.0  0.68304  0.84061  0.43046  1.0000 -0.1079058934
C   C122      1.0  0.78441  0.81097  0.45189  1.0000 -0.0952365782
C   C123      1.0  0.38313  0.91553  0.07839  1.0000 0.6070682115
C   C124      1.0  0.38565  0.08401  0.07337  1.0000 0.6070682115
C   C125      1.0  0.73425  0.85113  0.45375  1.0000 -0.0319982794
C   C126      1.0  0.73747  0.90769  0.47750  1.0000 0.5929542787
C   C127      1.0  0.32501  0.41313  0.66537  1.0000 0.6070682115
C   C128      1.0  0.32868  0.57790  0.65398  1.0000 0.59720859
C   C129      1.0  0.36285  0.36122  0.65098  1.0000 -0.0378108465
C   C130      1.0  0.37172  0.62436  0.63697  1.0000 -0.0319982794
C   C131      1.0  0.24253  0.41930  0.77949  1.0000 0.59720859
C   C132      1.0  0.39790  0.32870  0.67731  1.0000 -0.089048737
C   C133      1.0  0.36625  0.34510  0.61385  1.0000 -0.089048737
C   C134      1.0  0.42444  0.64066  0.65821  1.0000 -0.089048737
C   C135      1.0  0.36022  0.65387  0.60257  1.0000 -0.1079058934
C   C136      1.0  0.25074  0.37337  0.80990  1.0000 -0.0551607565
C   C137      1.0  0.43450  0.27900  0.66382  1.0000 -0.1583371557
C   C138      1.0  0.40480  0.29940  0.60125  1.0000 -0.151302029
C   C139      1.0  0.46212  0.68655  0.64668  1.0000 -0.1403497109
C   C140      1.0  0.40032  0.70126  0.59049  1.0000 -0.1583371557
C   C141      1.0  0.30646  0.36482  0.82750  1.0000 -0.0952365782
C   C142      1.0  0.19842  0.34130  0.82304  1.0000 -0.089048737
C   C143      1.0  0.44410  0.27050  0.62627  1.0000 0.0784474404
C   C144      1.0  0.44908  0.71932  0.61218  1.0000 0.069234637
C   C145      1.0  0.31158  0.32529  0.85788  1.0000 -0.1583371557
C   C146      1.0  0.20404  0.30124  0.85244  1.0000 -0.1403497109
C   C147      1.0  0.48672  0.22079  0.61409  1.0000 0.069234637
C   C148      1.0  0.48935  0.77125  0.60183  1.0000 0.0784474404
C   C149      1.0  0.26061  0.29157  0.87079  1.0000 0.0895602859
C   C150      1.0  0.53570  0.20690  0.63413  1.0000 -0.151302029
C   C151      1.0  0.47830  0.18630  0.58103  1.0000 -0.1583371557
C   C152      1.0  0.51086  0.81145  0.62990  1.0000 -0.1403497109
C   C153      1.0  0.50492  0.78079  0.56400  1.0000 -0.1583371557
C   C154      1.0  0.26540  0.24632  0.90284  1.0000 0.069234637
C   C155      1.0  0.58140  0.16320  0.62363  1.0000 -0.089048737
C   C156      1.0  0.51980  0.14490  0.56920  1.0000 -0.089048737
C   C157      1.0  0.55209  0.85743  0.62095  1.0000 -0.089048737
C   C158      1.0  0.54746  0.82867  0.55479  1.0000 -0.0952365782
C   C159      1.0  0.31778  0.20950  0.90620  1.0000 -0.151302029
C   C160      1.0  0.21723  0.23777  0.92744  1.0000 -0.129474317
C   C161      1.0  0.57177  0.13307  0.58978  1.0000 -0.0319982794
C   C162      1.0  0.57057  0.86705  0.58346  1.0000 -0.0551607565
C   C163      1.0  0.31696  0.15939  0.93046  1.0000 -0.1079058934
C   C164      1.0  0.21559  0.18903  0.95189  1.0000 -0.0952365782
C   C165      1.0  0.61687  0.08447  0.57839  1.0000 0.6070682115
C   C166      1.0  0.61435  0.91599  0.57337  1.0000 0.6070682115
C   C167      1.0  0.26575  0.14887  0.95375  1.0000 -0.0319982794
C   C168      1.0  0.26253  0.09231  0.97750  1.0000 0.5929542787
C   C169      1.0  0.58687  0.67499  0.83463  1.0000 0.6070682115
C   C170      1.0  0.42210  0.67132  0.84602  1.0000 0.59720859
C   C171      1.0  0.63878  0.63715  0.84902  1.0000 -0.0378108465
C   C172      1.0  0.37564  0.62828  0.86303  1.0000 -0.0319982794
C   C173      1.0  0.58070  0.75747  0.72051  1.0000 0.59720859
C   C174      1.0  0.67130  0.60210  0.82269  1.0000 -0.089048737
C   C175      1.0  0.65490  0.63375  0.88615  1.0000 -0.089048737
C   C176      1.0  0.35934  0.57556  0.84179  1.0000 -0.089048737
C   C177      1.0  0.34613  0.63978  0.89743  1.0000 -0.1079058934
C   C178      1.0  0.62663  0.74926  0.69010  1.0000 -0.0551607565
C   C179      1.0  0.72100  0.56550  0.83618  1.0000 -0.1583371557
C   C180      1.0  0.70060  0.59520  0.89875  1.0000 -0.151302029
C   C181      1.0  0.31345  0.53788  0.85332  1.0000 -0.1403497109
C   C182      1.0  0.29874  0.59968  0.90951  1.0000 -0.1583371557
C   C183      1.0  0.63518  0.69354  0.67250  1.0000 -0.0952365782
C   C184      1.0  0.65870  0.80158  0.67696  1.0000 -0.089048737
C   C185      1.0  0.72950  0.55590  0.87373  1.0000 0.0784474404
C   C186      1.0  0.28068  0.55092  0.88782  1.0000 0.069234637
C   C187      1.0  0.67471  0.68842  0.64212  1.0000 -0.1583371557
C   C188      1.0  0.69876  0.79596  0.64756  1.0000 -0.1403497109
C   C189      1.0  0.77921  0.51328  0.88591  1.0000 0.069234637
C   C190      1.0  0.22875  0.51065  0.89817  1.0000 0.0784474404
C   C191      1.0  0.70843  0.73939  0.62921  1.0000 0.0895602859
C   C192      1.0  0.79310  0.46430  0.86587  1.0000 -0.151302029
C   C193      1.0  0.81370  0.52170  0.91897  1.0000 -0.1583371557
C   C194      1.0  0.18855  0.48914  0.87010  1.0000 -0.1403497109
C   C195      1.0  0.21921  0.49508  0.93600  1.0000 -0.1583371557
C   C196      1.0  0.75368  0.73460  0.59716  1.0000 0.069234637
C   C197      1.0  0.83680  0.41860  0.87637  1.0000 -0.089048737
C   C198      1.0  0.85510  0.48020  0.93080  1.0000 -0.089048737
C   C199      1.0  0.14257  0.44791  0.87905  1.0000 -0.089048737
C   C200      1.0  0.17133  0.45254  0.94521  1.0000 -0.0952365782
C   C201      1.0  0.79050  0.68222  0.59380  1.0000 -0.151302029
C   C202      1.0  0.76223  0.78277  0.57256  1.0000 -0.129474317
C   C203      1.0  0.86693  0.42823  0.91022  1.0000 -0.0319982794
C   C204      1.0  0.13295  0.42943  0.91654  1.0000 -0.0551607565
C   C205      1.0  0.84061  0.68304  0.56954  1.0000 -0.1079058934
C   C206      1.0  0.81097  0.78441  0.54811  1.0000 -0.0952365782
C   C207      1.0  0.91553  0.38313  0.92161  1.0000 0.6070682115
C   C208      1.0  0.08401  0.38565  0.92663  1.0000 0.6070682115
C   C209      1.0  0.85113  0.73425  0.54625  1.0000 -0.0319982794
C   C210      1.0  0.90769  0.73747  0.52250  1.0000 0.5929542787
C   C211      1.0  0.41313  0.32501  0.33463  1.0000 0.6070682115
C   C212      1.0  0.57790  0.32868  0.34602  1.0000 0.59720859
C   C213      1.0  0.36122  0.36285  0.34902  1.0000 -0.0378108465
C   C214      1.0  0.62436  0.37172  0.36303  1.0000 -0.0319982794
C   C215      1.0  0.41930  0.24253  0.22051  1.0000 0.59720859
C   C216      1.0  0.32870  0.39790  0.32269  1.0000 -0.089048737
C   C217      1.0  0.34510  0.36625  0.38615  1.0000 -0.089048737
C   C218      1.0  0.64066  0.42444  0.34179  1.0000 -0.089048737
C   C219      1.0  0.65387  0.36022  0.39743  1.0000 -0.1079058934
C   C220      1.0  0.37337  0.25074  0.19010  1.0000 -0.0551607565
C   C221      1.0  0.27900  0.43450  0.33618  1.0000 -0.1583371557
C   C222      1.0  0.29940  0.40480  0.39875  1.0000 -0.151302029
C   C223      1.0  0.68655  0.46212  0.35332  1.0000 -0.1403497109
C   C224      1.0  0.70126  0.40032  0.40951  1.0000 -0.1583371557
C   C225      1.0  0.36482  0.30646  0.17250  1.0000 -0.0952365782
C   C226      1.0  0.34130  0.19842  0.17696  1.0000 -0.089048737
C   C227      1.0  0.27050  0.44410  0.37373  1.0000 0.0784474404
C   C228      1.0  0.71932  0.44908  0.38782  1.0000 0.069234637
C   C229      1.0  0.32529  0.31158  0.14212  1.0000 -0.1583371557
C   C230      1.0  0.30124  0.20404  0.14756  1.0000 -0.1403497109
C   C231      1.0  0.22079  0.48672  0.38591  1.0000 0.069234637
C   C232      1.0  0.77125  0.48935  0.39817  1.0000 0.0784474404
C   C233      1.0  0.29157  0.26061  0.12921  1.0000 0.0895602859
C   C234      1.0  0.20690  0.53570  0.36587  1.0000 -0.151302029
C   C235      1.0  0.18630  0.47830  0.41897  1.0000 -0.1583371557
C   C236      1.0  0.81145  0.51086  0.37010  1.0000 -0.1403497109
C   C237      1.0  0.78079  0.50492  0.43600  1.0000 -0.1583371557
C   C238      1.0  0.24632  0.26540  0.09716  1.0000 0.069234637
C   C239      1.0  0.16320  0.58140  0.37637  1.0000 -0.089048737
C   C240      1.0  0.14490  0.51980  0.43080  1.0000 -0.089048737
C   C241      1.0  0.85743  0.55209  0.37905  1.0000 -0.089048737
C   C242      1.0  0.82867  0.54746  0.44521  1.0000 -0.089048737
C   C243      1.0  0.20950  0.31778  0.09380  1.0000 -0.151302029
C   C244      1.0  0.23777  0.21723  0.07256  1.0000 -0.129474317
C   C245      1.0  0.13307  0.57177  0.41022  1.0000 -0.0319982794
C   C246      1.0  0.86705  0.57057  0.41654  1.0000 -0.0551607565
C   C247      1.0  0.15939  0.31696  0.06954  1.0000 -0.1079058934
C   C248      1.0  0.18903  0.21559  0.04811  1.0000 -0.0952365782
C   C249      1.0  0.08447  0.61687  0.42161  1.0000 0.6070682115
C   C250      1.0  0.91599  0.61435  0.42663  1.0000 0.6070682115
C   C251      1.0  0.14887  0.26575  0.04625  1.0000 -0.0319982794
C   C252      1.0  0.09231  0.26253  0.02250  1.0000 0.5929542787
C   C253      1.0  0.91313  0.17499  0.91537  1.0000 0.6070682115
C   C254      1.0  0.07790  0.17132  0.90398  1.0000 0.59720859
C   C255      1.0  0.86122  0.13715  0.90098  1.0000 -0.0378108465
C   C256      1.0  0.12436  0.12828  0.88697  1.0000 -0.0319982794
C   C257      1.0  0.91930  0.25747  0.02949  1.0000 0.59720859
C   C258      1.0  0.82870  0.10210  0.92731  1.0000 -0.089048737
C   C259      1.0  0.84510  0.13375  0.86385  1.0000 -0.089048737
C   C260      1.0  0.14066  0.07556  0.90821  1.0000 -0.0952365782
C   C261      1.0  0.15387  0.13978  0.85257  1.0000 -0.1079058934
C   C262      1.0  0.87337  0.24926  0.05990  1.0000 -0.0551607565
C   C263      1.0  0.77900  0.06550  0.91382  1.0000 -0.1583371557
C   C264      1.0  0.79940  0.09520  0.85125  1.0000 -0.151302029
C   C265      1.0  0.18655  0.03788  0.89668  1.0000 -0.1403497109
C   C266      1.0  0.20126  0.09968  0.84049  1.0000 -0.1583371557
C   C267      1.0  0.86482  0.19354  0.07750  1.0000 -0.0952365782
C   C268      1.0  0.84130  0.30158  0.07304  1.0000 -0.089048737
C   C269      1.0  0.77050  0.05590  0.87627  1.0000 0.0784474404
C   C270      1.0  0.21932  0.05092  0.86218  1.0000 0.069234637
C   C271      1.0  0.82529  0.18842  0.10788  1.0000 -0.1583371557
C   C272      1.0  0.80124  0.29596  0.10244  1.0000 -0.1403497109
C   C273      1.0  0.72079  0.01328  0.86409  1.0000 0.069234637
C   C274      1.0  0.27125  0.01065  0.85183  1.0000 0.0784474404
C   C275      1.0  0.79157  0.23939  0.12079  1.0000 0.0895602859
C   C276      1.0  0.70690  0.96430  0.88413  1.0000 -0.151302029
C   C277      1.0  0.68630  0.02170  0.83103  1.0000 -0.1583371557
C   C278      1.0  0.31145  0.98914  0.87990  1.0000 -0.1403497109
C   C279      1.0  0.28079  0.99508  0.81400  1.0000 -0.1583371557
C   C280      1.0  0.74632  0.23460  0.15284  1.0000 0.069234637
C   C281      1.0  0.66320  0.91860  0.87363  1.0000 -0.089048737
C   C282      1.0  0.64490  0.98020  0.81920  1.0000 -0.089048737
C   C283      1.0  0.35743  0.94791  0.87095  1.0000 -0.089048737
C   C284      1.0  0.32867  0.95254  0.80479  1.0000 -0.0952365782
C   C285      1.0  0.70950  0.18222  0.15620  1.0000 -0.151302029
C   C286      1.0  0.73777  0.28277  0.17744  1.0000 -0.129474317
C   C287      1.0  0.63307  0.92823  0.83978  1.0000 -0.0319982794
C   C288      1.0  0.36705  0.92943  0.83346  1.0000 -0.0551607565
C   C289      1.0  0.65939  0.18304  0.18046  1.0000 -0.1079058934
C   C290      1.0  0.68903  0.28441  0.20189  1.0000 -0.0952365782
C   C291      1.0  0.58447  0.88313  0.82839  1.0000 0.6070682115
C   C292      1.0  0.41599  0.88565  0.82337  1.0000 0.6070682115
C   C293      1.0  0.64887  0.23425  0.20375  1.0000 -0.0319982794
C   C294      1.0  0.59231  0.23747  0.22750  1.0000 0.5929542787
C   C295      1.0  0.08687  0.82501  0.41537  1.0000 0.6070682115
C   C296      1.0  0.92210  0.82868  0.40398  1.0000 0.59720859
C   C297      1.0  0.13878  0.86285  0.40098  1.0000 -0.0378108465
C   C298      1.0  0.87564  0.87172  0.38697  1.0000 -0.0319982794
C   C299      1.0  0.08070  0.74253  0.52949  1.0000 0.59720859
C   C300      1.0  0.17130  0.89790  0.42731  1.0000 -0.089048737
C   C301      1.0  0.15490  0.86625  0.36385  1.0000 -0.089048737
C   C302      1.0  0.85934  0.92444  0.40821  1.0000 -0.089048737
C   C303      1.0  0.84613  0.86022  0.35257  1.0000 -0.1079058934
C   C304      1.0  0.12663  0.75074  0.55990  1.0000 -0.0551607565
C   C305      1.0  0.22100  0.93450  0.41382  1.0000 -0.1583371557
C   C306      1.0  0.20060  0.90480  0.35125  1.0000 -0.1583371557
C   C307      1.0  0.81345  0.96212  0.39668  1.0000 -0.1403497109
C   C308      1.0  0.79874  0.90032  0.34049  1.0000 -0.1583371557
C   C309      1.0  0.13518  0.80646  0.57750  1.0000 -0.0952365782
C   C310      1.0  0.15870  0.69842  0.57304  1.0000 -0.089048737
C   C311      1.0  0.22950  0.94410  0.37627  1.0000 0.0784474404
C   C312      1.0  0.78068  0.94908  0.36218  1.0000 0.069234637
C   C313      1.0  0.17471  0.81158  0.60788  1.0000 -0.1583371557
C   C314      1.0  0.19876  0.70404  0.60244  1.0000 -0.1403497109
C   C315      1.0  0.27921  0.98672  0.36409  1.0000 0.069234637
C   C316      1.0  0.72875  0.98935  0.35183  1.0000 0.0784474404
C   C317      1.0  0.20843  0.76061  0.62079  1.0000 0.0895602859
C   C318      1.0  0.29310  0.03570  0.38413  1.0000 -0.151302029
C   C319      1.0  0.31370  0.97830  0.33103  1.0000 -0.1583371557
C   C320      1.0  0.68855  0.01086  0.37990  1.0000 -0.1403497109
C   C321      1.0  0.71921  0.00492  0.31400  1.0000 -0.1583371557
C   C322      1.0  0.25368  0.76540  0.65284  1.0000 0.069234637
C   C323      1.0  0.33680  0.08140  0.37363  1.0000 -0.089048737
C   C324      1.0  0.35510  0.01980  0.31920  1.0000 -0.089048737
C   C325      1.0  0.64257  0.05209  0.37095  1.0000 -0.089048737
C   C326      1.0  0.67133  0.04746  0.30479  1.0000 -0.089048737
C   C327      1.0  0.29050  0.81778  0.65620  1.0000 -0.151302029
C   C328      1.0  0.26223  0.71723  0.67744  1.0000 -0.129474317
C   C329      1.0  0.36693  0.07177  0.33978  1.0000 -0.0319982794
C   C330      1.0  0.63295  0.07057  0.33346  1.0000 -0.0551607565
C   C331      1.0  0.34061  0.81696  0.68046  1.0000 -0.1079058934
C   C332      1.0  0.31097  0.71559  0.70189  1.0000 -0.0952365782
C   C333      1.0  0.41553  0.11687  0.32839  1.0000 0.6070682115
C   C334      1.0  0.58401  0.11435  0.32337  1.0000 0.6070682115
C   C335      1.0  0.35113  0.76575  0.70375  1.0000 -0.0319982794
C   C336      1.0  0.40769  0.76253  0.72750  1.0000 0.5929542787
O   O1        1.0  0.72690  0.99764  0.54707  1.0000 -0.9095404439
O   O2        1.0  0.78878  0.06088  0.60819  1.0000 -0.5692906571
O   O3        1.0  0.77662  0.92995  0.61282  1.0000 -0.5777333968
O   O4        1.0  0.15991  0.42751  0.64886  1.0000 -0.5496235707
O   O5        1.0  0.14461  0.55862  0.64968  1.0000 -0.5777333968
O   O6        1.0  0.78795  0.04629  0.47903  1.0000 -0.5692906571
O   O7        1.0  0.83137  0.07297  0.54976  1.0000 -0.5496235707
O   O8        1.0  0.84497  0.94690  0.56612  1.0000 -0.5370665782
O   O9        1.0  0.71470  0.41688  0.25330  1.0000 -0.5301404439
O   O10       1.0  0.68991  0.07597  0.48554  1.0000 -0.5496235707
O   O11       1.0  0.10770  0.43989  0.70241  1.0000 -0.5301404439
O   O12       1.0  0.11692  0.56940  0.71146  1.0000 -0.5496235707
O   O13       1.0  0.80755  0.44446  0.27466  1.0000 -0.5692906571
O   O14       1.0  0.27310  0.00236  0.04707  1.0000 -0.9095404439
O   O15       1.0  0.21122  0.93912  0.10819  1.0000 -0.5692906571
O   O16       1.0  0.22338  0.07005  0.11282  1.0000 -0.5777333968
O   O17       1.0  0.84009  0.57249  0.14886  1.0000 -0.5496235707
O   O18       1.0  0.85539  0.44138  0.14968  1.0000 -0.5777333968
O   O19       1.0  0.21205  0.95371  0.97903  1.0000 -0.5692906571
O   O20       1.0  0.16863  0.92703  0.04976  1.0000 -0.5496235707
O   O21       1.0  0.15503  0.05310  0.06612  1.0000 -0.5370665782
O   O22       1.0  0.28530  0.58312  0.75330  1.0000 -0.5301404439
O   O23       1.0  0.31009  0.92403  0.98554  1.0000 -0.5496235707
O   O24       1.0  0.89230  0.56011  0.20241  1.0000 -0.5301404439
O   O25       1.0  0.88308  0.43060  0.21146  1.0000 -0.5496235707
O   O26       1.0  0.19245  0.55554  0.77466  1.0000 -0.5692906571
O   O27       1.0  0.77310  0.49764  0.20293  1.0000 -0.9095404439
O   O28       1.0  0.71122  0.56088  0.14181  1.0000 -0.5692906571
O   O29       1.0  0.72338  0.42995  0.13718  1.0000 -0.5777333968
O   O30       1.0  0.34009  0.92751  0.10114  1.0000 -0.5496235707
O   O31       1.0  0.35539  0.05862  0.10032  1.0000 -0.5777333968
O   O32       1.0  0.71205  0.54629  0.27097  1.0000 -0.5692906571
O   O33       1.0  0.66863  0.57297  0.20024  1.0000 -0.5496235707
O   O34       1.0  0.65503  0.44690  0.18388  1.0000 -0.5370665782
O   O35       1.0  0.78530  0.91688  0.49670  1.0000 -0.5301404439
O   O36       1.0  0.81009  0.57597  0.26446  1.0000 -0.5496235707
O   O37       1.0  0.39230  0.93989  0.04759  1.0000 -0.5301404439
O   O38       1.0  0.38308  0.06940  0.03854  1.0000 -0.5496235707
O   O39       1.0  0.69245  0.94446  0.47534  1.0000 -0.5692906571
O   O40       1.0  0.22690  0.50236  0.70293  1.0000 -0.9095404439
O   O41       1.0  0.28878  0.43912  0.64181  1.0000 -0.5692906571
O   O42       1.0  0.27662  0.57005  0.63718  1.0000 -0.5777333968
O   O43       1.0  0.65991  0.07249  0.60114  1.0000 -0.5496235707
O   O44       1.0  0.64461  0.94138  0.60032  1.0000 -0.5777333968
O   O45       1.0  0.28795  0.45371  0.77097  1.0000 -0.5692906571
O   O46       1.0  0.33137  0.42703  0.70024  1.0000 -0.5496235707
O   O47       1.0  0.34497  0.55310  0.68388  1.0000 -0.5370665782
O   O48       1.0  0.21470  0.08312  0.99670  1.0000 -0.5301404439
O   O49       1.0  0.18991  0.42403  0.76446  1.0000 -0.5496235707
O   O50       1.0  0.60770  0.06011  0.54759  1.0000 -0.5301404439
O   O51       1.0  0.61692  0.93060  0.53854  1.0000 -0.5496235707
O   O52       1.0  0.30755  0.05554  0.97534  1.0000 -0.5692906571
O   O53       1.0  0.49764  0.77310  0.79707  1.0000 -0.9095404439
O   O54       1.0  0.56088  0.71122  0.85819  1.0000 -0.5692906571
O   O55       1.0  0.42995  0.72338  0.86282  1.0000 -0.5777333968
O   O56       1.0  0.92751  0.34009  0.89886  1.0000 -0.5496235707
O   O57       1.0  0.05862  0.35539  0.89968  1.0000 -0.5777333968
O   O58       1.0  0.54629  0.71205  0.72903  1.0000 -0.5692906571
O   O59       1.0  0.57297  0.66863  0.79976  1.0000 -0.5496235707
O   O60       1.0  0.44690  0.65503  0.81612  1.0000 -0.5370665782
O   O61       1.0  0.91688  0.78530  0.50330  1.0000 -0.5301404439
O   O62       1.0  0.57597  0.81009  0.73554  1.0000 -0.5496235707
O   O63       1.0  0.93989  0.39230  0.95241  1.0000 -0.5301404439
O   O64       1.0  0.06940  0.38308  0.96146  1.0000 -0.5496235707
O   O65       1.0  0.94446  0.69245  0.52466  1.0000 -0.5692906571
O   O66       1.0  0.50236  0.22690  0.29707  1.0000 -0.9095404439
O   O67       1.0  0.43912  0.28878  0.35819  1.0000 -0.5692906571
O   O68       1.0  0.57005  0.27662  0.36282  1.0000 -0.5777333968
O   O69       1.0  0.07249  0.65991  0.39886  1.0000 -0.5496235707
O   O70       1.0  0.94138  0.64461  0.39968  1.0000 -0.5777333968
O   O71       1.0  0.45371  0.28795  0.22903  1.0000 -0.5692906571
O   O72       1.0  0.42703  0.33137  0.29976  1.0000 -0.5496235707
O   O73       1.0  0.55310  0.34497  0.31612  1.0000 -0.5370665782
O   O74       1.0  0.08312  0.21470  0.00330  1.0000 -0.5301404439
O   O75       1.0  0.42403  0.18991  0.23554  1.0000 -0.5496235707
O   O76       1.0  0.06011  0.60770  0.45241  1.0000 -0.5301404439
O   O77       1.0  0.93060  0.61692  0.46146  1.0000 -0.5496235707
O   O78       1.0  0.05554  0.30755  0.02466  1.0000 -0.5692906571
O   O79       1.0  0.00236  0.27310  0.95293  1.0000 -0.9095404439
O   O80       1.0  0.93912  0.21122  0.89181  1.0000 -0.5692906571
O   O81       1.0  0.07005  0.22338  0.88718  1.0000 -0.5777333968
O   O82       1.0  0.57249  0.84009  0.85114  1.0000 -0.5496235707
O   O83       1.0  0.44138  0.85539  0.85032  1.0000 -0.5777333968
O   O84       1.0  0.95371  0.21205  0.02097  1.0000 -0.5692906571
O   O85       1.0  0.92703  0.16863  0.95024  1.0000 -0.5496235707
O   O86       1.0  0.05310  0.15503  0.93388  1.0000 -0.5370665782
O   O87       1.0  0.58312  0.28530  0.24670  1.0000 -0.5301404439
O   O88       1.0  0.92403  0.31009  0.01446  1.0000 -0.5496235707
O   O89       1.0  0.56011  0.89230  0.79759  1.0000 -0.5301404439
O   O90       1.0  0.43060  0.88308  0.78854  1.0000 -0.5496235707
O   O91       1.0  0.55554  0.19245  0.22534  1.0000 -0.5692906571
O   O92       1.0  0.99764  0.72690  0.45293  1.0000 -0.9095404439
O   O93       1.0  0.06088  0.78878  0.39181  1.0000 -0.5692906571
O   O94       1.0  0.92995  0.77662  0.38718  1.0000 -0.5777333968
O   O95       1.0  0.42751  0.15991  0.35114  1.0000 -0.5496235707
O   O96       1.0  0.55862  0.14461  0.35032  1.0000 -0.5777333968
O   O97       1.0  0.04629  0.78795  0.52097  1.0000 -0.5692906571
O   O98       1.0  0.07297  0.83137  0.45024  1.0000 -0.5496235707
O   O99       1.0  0.94690  0.84497  0.43388  1.0000 -0.5370665782
O   O100      1.0  0.41688  0.71470  0.74670  1.0000 -0.5301404439
O   O101      1.0  0.07597  0.68991  0.51446  1.0000 -0.5496235707
O   O102      1.0  0.43989  0.10770  0.29759  1.0000 -0.5301404439
O   O103      1.0  0.56940  0.11692  0.28854  1.0000 -0.5496235707
O   O104      1.0  0.44446  0.80755  0.72534  1.0000 -0.5692906571
