# DDEC6 charges by PACMAN v1.1 (https://github.com/mtap-research/PACMAN-charge/)
data_0000[La][nan]3[ASR]1
_chemical_formula_sum              "La4 H8 C20 O32"
_cell_length_a       6.1071
_cell_length_b       7.6962
_cell_length_c       22.702
_cell_angle_alpha    90
_cell_angle_beta     91.645
_cell_angle_gamma    90

_symmetry_space_group_name_H-M    "P 1"
_symmetry_Int_Tables_number       1

loop_
  _symmetry_equiv_pos_as_xyz
  'x, y, z'

loop_
  _atom_site_type_symbol
  _atom_site_label
  _atom_site_symmetry_multiplicity
  _atom_site_fract_x
  _atom_site_fract_y
  _atom_site_fract_z
  _atom_site_occupancy
  _atom_site_charge
La  La1       1.0  0.54514  0.99824  0.14605  1.0000 1.850240296
La  La2       1.0  0.45486  0.49824  0.35395  1.0000 1.8441590726
La  La3       1.0  0.45486  0.00176  0.85395  1.0000 1.8441590726
La  La4       1.0  0.54514  0.50176  0.64605  1.0000 1.850240296
H   H1        1.0  0.95960  0.02070  0.28270  1.0000 0.1462367851
H   H2        1.0  0.04040  0.52070  0.21730  1.0000 0.1462367851
H   H3        1.0  0.04040  0.97930  0.71730  1.0000 0.1462367851
H   H4        1.0  0.95960  0.47930  0.78270  1.0000 0.1462367851
H   H5        1.0  0.88620  0.93270  0.37440  1.0000 0.1462367851
H   H6        1.0  0.11380  0.43270  0.12560  1.0000 0.1462367851
H   H7        1.0  0.11380  0.06730  0.62560  1.0000 0.1462367851
H   H8        1.0  0.88620  0.56730  0.87440  1.0000 0.1462367851
C   C1        1.0  0.63990  0.10310  0.28860  1.0000 0.6212735756
C   C2        1.0  0.36010  0.60310  0.21140  1.0000 0.6212735756
C   C3        1.0  0.36010  0.89690  0.71140  1.0000 0.6212735756
C   C4        1.0  0.63990  0.39690  0.78860  1.0000 0.6212735756
C   C5        1.0  0.81750  0.96300  0.28630  1.0000 0.0078275348
C   C6        1.0  0.18250  0.46300  0.21370  1.0000 0.0078275348
C   C7        1.0  0.18250  0.03700  0.71370  1.0000 0.0078275348
C   C8        1.0  0.81750  0.53700  0.78630  1.0000 0.0078275348
C   C9        1.0  0.82190  0.85990  0.34300  1.0000 -0.0039790884
C   C10       1.0  0.17810  0.35990  0.15700  1.0000 -0.0039790884
C   C11       1.0  0.17810  0.14010  0.65700  1.0000 -0.0039790884
C   C12       1.0  0.82190  0.64010  0.84300  1.0000 -0.0050534109
C   C13       1.0  0.95330  0.69420  0.33970  1.0000 0.6212735756
C   C14       1.0  0.04670  0.19420  0.16030  1.0000 0.6212735756
C   C15       1.0  0.04670  0.30580  0.66030  1.0000 0.6212735756
C   C16       1.0  0.95330  0.80580  0.83970  1.0000 0.6212735756
C   C17       1.0  0.58380  0.07510  0.99920  1.0000 0.502218297
C   C18       1.0  0.41620  0.57510  0.50080  1.0000 0.502218297
C   C19       1.0  0.41620  0.92490  0.00080  1.0000 0.502218297
C   C20       1.0  0.58380  0.42490  0.49920  1.0000 0.502218297
O   O1        1.0  0.48940  0.10320  0.24920  1.0000 -0.495584035
O   O2        1.0  0.51060  0.60320  0.25080  1.0000 -0.495584035
O   O3        1.0  0.51060  0.89680  0.75080  1.0000 -0.495584035
O   O4        1.0  0.48940  0.39680  0.74920  1.0000 -0.495584035
O   O5        1.0  0.65000  0.21280  0.32990  1.0000 -0.531943524
O   O6        1.0  0.35000  0.71280  0.17010  1.0000 -0.5385415893
O   O7        1.0  0.35000  0.78720  0.67010  1.0000 -0.5385415893
O   O8        1.0  0.65000  0.28720  0.82990  1.0000 -0.531943524
O   O9        1.0  0.77980  0.85650  0.23470  1.0000 -0.3673501925
O   O10       1.0  0.22020  0.35650  0.26530  1.0000 -0.3673501925
O   O11       1.0  0.22020  0.14350  0.76530  1.0000 -0.3673501925
O   O12       1.0  0.77980  0.64350  0.73470  1.0000 -0.3673501925
O   O13       1.0  0.60020  0.81460  0.35860  1.0000 -0.4104429872
O   O14       1.0  0.39980  0.31460  0.14140  1.0000 -0.4104429872
O   O15       1.0  0.39980  0.18540  0.64140  1.0000 -0.4104429872
O   O16       1.0  0.60020  0.68540  0.85860  1.0000 -0.4104429872
O   O17       1.0  0.85640  0.55240  0.34540  1.0000 -0.531943524
O   O18       1.0  0.14360  0.05240  0.15460  1.0000 -0.531943524
O   O19       1.0  0.14360  0.44760  0.65460  1.0000 -0.531943524
O   O20       1.0  0.85640  0.94760  0.84540  1.0000 -0.531943524
O   O21       1.0  0.15340  0.70950  0.33333  1.0000 -0.5385415893
O   O22       1.0  0.84660  0.20950  0.16667  1.0000 -0.5385415893
O   O23       1.0  0.84660  0.29050  0.66667  1.0000 -0.5385415893
O   O24       1.0  0.15340  0.79050  0.83333  1.0000 -0.5385415893
O   O25       1.0  0.62360  0.13230  0.94800  1.0000 -0.5237964929
O   O26       1.0  0.37640  0.63230  0.55200  1.0000 -0.5237964929
O   O27       1.0  0.37640  0.86770  0.05200  1.0000 -0.5237964929
O   O28       1.0  0.62360  0.36770  0.44800  1.0000 -0.5237964929
O   O29       1.0  0.65940  0.13060  0.04640  1.0000 -0.4853638451
O   O30       1.0  0.34060  0.63060  0.45360  1.0000 -0.4843772293
O   O31       1.0  0.34060  0.86940  0.95360  1.0000 -0.4853638451
O   O32       1.0  0.65940  0.36940  0.54640  1.0000 -0.4853638451
