# DDEC6 charges by PACMAN v1.1 (https://github.com/mtap-research/PACMAN-charge/)
data_0000[Fe][acs]3[ASR]1
_chemical_formula_sum              "Fe24 H192 C336 O104"
_cell_length_a       21.757
_cell_length_b       21.757
_cell_length_c       35.299
_cell_angle_alpha    90
_cell_angle_beta     90
_cell_angle_gamma    90

_symmetry_space_group_name_H-M    "P 1"
_symmetry_Int_Tables_number       1

loop_
  _symmetry_equiv_pos_as_xyz
  'x, y, z'

loop_
  _atom_site_type_symbol
  _atom_site_label
  _atom_site_symmetry_multiplicity
  _atom_site_fract_x
  _atom_site_fract_y
  _atom_site_fract_z
  _atom_site_occupancy
  _atom_site_charge
Fe  Fe1       1.0  0.99976  0.28344  0.85032  1.0000 1.2852398503
Fe  Fe2       1.0  0.00024  0.71656  0.35032  1.0000 1.2840863812
Fe  Fe3       1.0  0.50024  0.78344  0.89968  1.0000 1.2852398503
Fe  Fe4       1.0  0.49976  0.21656  0.39968  1.0000 1.2840863812
Fe  Fe5       1.0  0.00239  0.34314  0.76390  1.0000 1.2501903324
Fe  Fe6       1.0  0.99761  0.65686  0.26390  1.0000 1.2501903324
Fe  Fe7       1.0  0.49761  0.84314  0.98610  1.0000 1.2501903324
Fe  Fe8       1.0  0.50239  0.15686  0.48610  1.0000 1.2501903324
Fe  Fe9       1.0  0.99454  0.19377  0.77412  1.0000 1.2501903324
Fe  Fe10      1.0  0.00546  0.80623  0.27412  1.0000 1.2501903324
Fe  Fe11      1.0  0.50546  0.69377  0.97588  1.0000 1.2501903324
Fe  Fe12      1.0  0.49454  0.30623  0.47588  1.0000 1.2501903324
Fe  Fe13      1.0  0.78344  0.50024  0.10032  1.0000 1.2852398503
Fe  Fe14      1.0  0.21656  0.49976  0.60032  1.0000 1.2840863812
Fe  Fe15      1.0  0.28344  0.99976  0.14968  1.0000 1.2840863812
Fe  Fe16      1.0  0.71656  0.00024  0.64968  1.0000 1.2852398503
Fe  Fe17      1.0  0.84314  0.49761  0.01390  1.0000 1.2561134446
Fe  Fe18      1.0  0.15686  0.50239  0.51390  1.0000 1.2501903324
Fe  Fe19      1.0  0.34314  0.00239  0.23610  1.0000 1.2501903324
Fe  Fe20      1.0  0.65686  0.99761  0.73610  1.0000 1.2501903324
Fe  Fe21      1.0  0.69377  0.50546  0.02412  1.0000 1.2501903324
Fe  Fe22      1.0  0.30623  0.49454  0.52412  1.0000 1.2501903324
Fe  Fe23      1.0  0.19377  0.99454  0.22588  1.0000 1.2501903324
Fe  Fe24      1.0  0.80623  0.00546  0.72588  1.0000 1.2501903324
H   H1        1.0  0.16140  0.10560  0.79700  1.0000 0.1279576171
H   H2        1.0  0.83860  0.89440  0.29700  1.0000 0.1279576171
H   H3        1.0  0.33860  0.60560  0.95300  1.0000 0.1279576171
H   H4        1.0  0.66140  0.39440  0.45300  1.0000 0.1279576171
H   H5        1.0  0.23850  0.03860  0.81780  1.0000 0.1098860709
H   H6        1.0  0.76150  0.96140  0.31780  1.0000 0.1098860709
H   H7        1.0  0.26150  0.53860  0.93220  1.0000 0.1098860709
H   H8        1.0  0.73850  0.46140  0.43220  1.0000 0.1098860709
H   H9        1.0  0.20990  0.09440  0.92600  1.0000 0.1098860709
H   H10       1.0  0.79010  0.90560  0.42600  1.0000 0.1098860709
H   H11       1.0  0.29010  0.59440  0.82400  1.0000 0.1098860709
H   H12       1.0  0.70990  0.40560  0.32400  1.0000 0.1098860709
H   H13       1.0  0.13280  0.16130  0.90510  1.0000 0.1279576171
H   H14       1.0  0.86720  0.83870  0.40510  1.0000 0.1279576171
H   H15       1.0  0.36720  0.66130  0.84490  1.0000 0.1279576171
H   H16       1.0  0.63280  0.33870  0.34490  1.0000 0.1279576171
H   H17       1.0  0.26830  0.95430  0.84210  1.0000 0.1098860709
H   H18       1.0  0.73170  0.04570  0.34210  1.0000 0.1098860709
H   H19       1.0  0.23170  0.45430  0.90790  1.0000 0.1098860709
H   H20       1.0  0.76830  0.54570  0.40790  1.0000 0.1098860709
H   H21       1.0  0.34300  0.88390  0.86180  1.0000 0.1279576171
H   H22       1.0  0.65700  0.11610  0.36180  1.0000 0.1279576171
H   H23       1.0  0.15700  0.38390  0.88820  1.0000 0.1279576171
H   H24       1.0  0.84300  0.61610  0.38820  1.0000 0.1279576171
H   H25       1.0  0.37540  0.98700  0.95530  1.0000 0.1279576171
H   H26       1.0  0.62460  0.01300  0.45530  1.0000 0.1279576171
H   H27       1.0  0.12460  0.48700  0.79470  1.0000 0.1279576171
H   H28       1.0  0.87540  0.51300  0.29470  1.0000 0.1279576171
H   H29       1.0  0.30070  0.05750  0.93560  1.0000 0.1098860709
H   H30       1.0  0.69930  0.94250  0.43560  1.0000 0.1098860709
H   H31       1.0  0.19930  0.55750  0.81440  1.0000 0.1098860709
H   H32       1.0  0.80070  0.44250  0.31440  1.0000 0.1098860709
H   H33       1.0  0.87960  0.06980  0.81800  1.0000 0.1279576171
H   H34       1.0  0.12040  0.93020  0.31800  1.0000 0.1279576171
H   H35       1.0  0.62040  0.56980  0.93200  1.0000 0.1279576171
H   H36       1.0  0.37960  0.43020  0.43200  1.0000 0.1279576171
H   H37       1.0  0.80180  0.00370  0.83900  1.0000 0.1198654243
H   H38       1.0  0.19820  0.99630  0.33900  1.0000 0.1198654243
H   H39       1.0  0.69820  0.50370  0.91100  1.0000 0.1198654243
H   H40       1.0  0.30180  0.49630  0.41100  1.0000 0.1198654243
H   H41       1.0  0.77820  0.10960  0.93230  1.0000 0.1198654243
H   H42       1.0  0.22180  0.89040  0.43230  1.0000 0.1198654243
H   H43       1.0  0.72180  0.60960  0.81770  1.0000 0.1198654243
H   H44       1.0  0.27820  0.39040  0.31770  1.0000 0.1198654243
H   H45       1.0  0.85600  0.17570  0.91130  1.0000 0.1198654243
H   H46       1.0  0.14400  0.82430  0.41130  1.0000 0.1198654243
H   H47       1.0  0.64400  0.67570  0.83870  1.0000 0.1198654243
H   H48       1.0  0.35600  0.32430  0.33870  1.0000 0.1198654243
H   H49       1.0  0.74560  0.00980  0.95490  1.0000 0.1198654243
H   H50       1.0  0.25440  0.99020  0.45490  1.0000 0.1198654243
H   H51       1.0  0.75440  0.50980  0.79510  1.0000 0.1198654243
H   H52       1.0  0.24560  0.49020  0.29510  1.0000 0.1198654243
H   H53       1.0  0.66700  0.94090  0.97060  1.0000 0.1279576171
H   H54       1.0  0.33300  0.05910  0.47060  1.0000 0.1279576171
H   H55       1.0  0.83300  0.44090  0.77940  1.0000 0.1279576171
H   H56       1.0  0.16700  0.55910  0.27940  1.0000 0.1279576171
H   H57       1.0  0.61670  0.93210  0.86020  1.0000 0.1198654243
H   H58       1.0  0.38330  0.06790  0.36020  1.0000 0.1198654243
H   H59       1.0  0.88330  0.43210  0.88980  1.0000 0.1198654243
H   H60       1.0  0.11670  0.56790  0.38980  1.0000 0.1198654243
H   H61       1.0  0.69540  0.00100  0.84450  1.0000 0.1198654243
H   H62       1.0  0.30460  0.99900  0.34450  1.0000 0.1198654243
H   H63       1.0  0.80460  0.50100  0.90550  1.0000 0.1198654243
H   H64       1.0  0.19540  0.49900  0.40550  1.0000 0.1198654243
H   H65       1.0  0.11140  0.15900  0.68080  1.0000 0.1279576171
H   H66       1.0  0.88860  0.84100  0.18080  1.0000 0.1279576171
H   H67       1.0  0.38860  0.65900  0.06920  1.0000 0.1279576171
H   H68       1.0  0.61140  0.34100  0.56920  1.0000 0.1279576171
H   H69       1.0  0.18010  0.14910  0.63020  1.0000 0.1198654243
H   H70       1.0  0.81990  0.85090  0.13020  1.0000 0.1198654243
H   H71       1.0  0.31990  0.64910  0.11980  1.0000 0.1198654243
H   H72       1.0  0.68010  0.35090  0.61980  1.0000 0.1198654243
H   H73       1.0  0.22060  0.33060  0.63770  1.0000 0.1198654243
H   H74       1.0  0.77940  0.66940  0.13770  1.0000 0.1198654243
H   H75       1.0  0.27940  0.83060  0.11230  1.0000 0.1198654243
H   H76       1.0  0.72060  0.16940  0.61230  1.0000 0.1198654243
H   H77       1.0  0.15190  0.34040  0.68830  1.0000 0.1279576171
H   H78       1.0  0.84810  0.65960  0.18830  1.0000 0.1279576171
H   H79       1.0  0.34810  0.84040  0.06170  1.0000 0.1279576171
H   H80       1.0  0.65190  0.15960  0.56170  1.0000 0.1279576171
H   H81       1.0  0.23640  0.31840  0.57420  1.0000 0.1198654243
H   H82       1.0  0.76360  0.68160  0.07420  1.0000 0.1198654243
H   H83       1.0  0.26360  0.81840  0.17580  1.0000 0.1198654243
H   H84       1.0  0.73640  0.18160  0.67580  1.0000 0.1198654243
H   H85       1.0  0.31900  0.31820  0.53180  1.0000 0.1198654243
H   H86       1.0  0.68100  0.68180  0.03180  1.0000 0.1198654243
H   H87       1.0  0.18100  0.81820  0.21820  1.0000 0.1198654243
H   H88       1.0  0.81900  0.18180  0.71820  1.0000 0.1198654243
H   H89       1.0  0.36810  0.14860  0.56840  1.0000 0.1198654243
H   H90       1.0  0.63190  0.85140  0.06840  1.0000 0.1198654243
H   H91       1.0  0.13190  0.64860  0.18160  1.0000 0.1198654243
H   H92       1.0  0.86810  0.35140  0.68160  1.0000 0.1198654243
H   H93       1.0  0.28550  0.14890  0.61090  1.0000 0.1198654243
H   H94       1.0  0.71450  0.85110  0.11090  1.0000 0.1198654243
H   H95       1.0  0.21450  0.64890  0.13910  1.0000 0.1198654243
H   H96       1.0  0.78550  0.35110  0.63910  1.0000 0.1198654243
H   H97       1.0  0.60560  0.33860  0.04700  1.0000 0.1279576171
H   H98       1.0  0.39440  0.66140  0.54700  1.0000 0.1279576171
H   H99       1.0  0.10560  0.16140  0.20300  1.0000 0.1279576171
H   H100      1.0  0.89440  0.83860  0.70300  1.0000 0.1279576171
H   H101      1.0  0.53860  0.26150  0.06780  1.0000 0.1098860709
H   H102      1.0  0.46140  0.73850  0.56780  1.0000 0.1098860709
H   H103      1.0  0.03860  0.23850  0.18220  1.0000 0.1098860709
H   H104      1.0  0.96140  0.76150  0.68220  1.0000 0.1098860709
H   H105      1.0  0.59440  0.29010  0.17600  1.0000 0.1098860709
H   H106      1.0  0.40560  0.70990  0.67600  1.0000 0.1098860709
H   H107      1.0  0.09440  0.20990  0.07400  1.0000 0.1098860709
H   H108      1.0  0.90560  0.79010  0.57400  1.0000 0.1098860709
H   H109      1.0  0.66130  0.36720  0.15510  1.0000 0.1279576171
H   H110      1.0  0.33870  0.63280  0.65510  1.0000 0.1279576171
H   H111      1.0  0.16130  0.13280  0.09490  1.0000 0.1279576171
H   H112      1.0  0.83870  0.86720  0.59490  1.0000 0.1279576171
H   H113      1.0  0.45430  0.23170  0.09210  1.0000 0.1098860709
H   H114      1.0  0.54570  0.76830  0.59210  1.0000 0.1098860709
H   H115      1.0  0.95430  0.26830  0.15790  1.0000 0.1098860709
H   H116      1.0  0.04570  0.73170  0.65790  1.0000 0.1098860709
H   H117      1.0  0.38390  0.15700  0.11180  1.0000 0.1279576171
H   H118      1.0  0.61610  0.84300  0.61180  1.0000 0.1279576171
H   H119      1.0  0.88390  0.34300  0.13820  1.0000 0.1279576171
H   H120      1.0  0.11610  0.65700  0.63820  1.0000 0.1279576171
H   H121      1.0  0.48700  0.12460  0.20530  1.0000 0.1279576171
H   H122      1.0  0.51300  0.87540  0.70530  1.0000 0.1279576171
H   H123      1.0  0.98700  0.37540  0.04470  1.0000 0.1279576171
H   H124      1.0  0.01300  0.62460  0.54470  1.0000 0.1279576171
H   H125      1.0  0.55750  0.19930  0.18560  1.0000 0.1098860709
H   H126      1.0  0.44250  0.80070  0.68560  1.0000 0.1098860709
H   H127      1.0  0.05750  0.30070  0.06440  1.0000 0.1098860709
H   H128      1.0  0.94250  0.69930  0.56440  1.0000 0.1098860709
H   H129      1.0  0.56980  0.62040  0.06800  1.0000 0.1279576171
H   H130      1.0  0.43020  0.37960  0.56800  1.0000 0.1279576171
H   H131      1.0  0.06980  0.87960  0.18200  1.0000 0.1279576171
H   H132      1.0  0.93020  0.12040  0.68200  1.0000 0.1279576171
H   H133      1.0  0.50370  0.69820  0.08900  1.0000 0.1198654243
H   H134      1.0  0.49630  0.30180  0.58900  1.0000 0.1198654243
H   H135      1.0  0.00370  0.80180  0.16100  1.0000 0.1198654243
H   H136      1.0  0.99630  0.19820  0.66100  1.0000 0.1198654243
H   H137      1.0  0.60960  0.72180  0.18230  1.0000 0.1198654243
H   H138      1.0  0.39040  0.27820  0.68230  1.0000 0.1198654243
H   H139      1.0  0.10960  0.77820  0.06770  1.0000 0.1198654243
H   H140      1.0  0.89040  0.22180  0.56770  1.0000 0.1198654243
H   H141      1.0  0.67570  0.64400  0.16130  1.0000 0.1198654243
H   H142      1.0  0.32430  0.35600  0.66130  1.0000 0.1198654243
H   H143      1.0  0.17570  0.85600  0.08870  1.0000 0.1198654243
H   H144      1.0  0.82430  0.14400  0.58870  1.0000 0.1198654243
H   H145      1.0  0.50980  0.75440  0.20490  1.0000 0.1198654243
H   H146      1.0  0.49020  0.24560  0.70490  1.0000 0.1198654243
H   H147      1.0  0.00980  0.74560  0.04510  1.0000 0.1198654243
H   H148      1.0  0.99020  0.25440  0.54510  1.0000 0.1198654243
H   H149      1.0  0.44090  0.83300  0.22060  1.0000 0.1279576171
H   H150      1.0  0.55910  0.16700  0.72060  1.0000 0.1279576171
H   H151      1.0  0.94090  0.66700  0.02940  1.0000 0.1279576171
H   H152      1.0  0.05910  0.33300  0.52940  1.0000 0.1279576171
H   H153      1.0  0.43210  0.88330  0.11020  1.0000 0.1198654243
H   H154      1.0  0.56790  0.11670  0.61020  1.0000 0.1198654243
H   H155      1.0  0.93210  0.61670  0.13980  1.0000 0.1198654243
H   H156      1.0  0.06790  0.38330  0.63980  1.0000 0.1198654243
H   H157      1.0  0.50100  0.80460  0.09450  1.0000 0.1198654243
H   H158      1.0  0.49900  0.19540  0.59450  1.0000 0.1198654243
H   H159      1.0  0.00100  0.69540  0.15550  1.0000 0.1198654243
H   H160      1.0  0.99900  0.30460  0.65550  1.0000 0.1198654243
H   H161      1.0  0.65900  0.38860  0.93080  1.0000 0.1279576171
H   H162      1.0  0.34100  0.61140  0.43080  1.0000 0.1279576171
H   H163      1.0  0.15900  0.11140  0.31920  1.0000 0.1279576171
H   H164      1.0  0.84100  0.88860  0.81920  1.0000 0.1279576171
H   H165      1.0  0.64910  0.31990  0.88020  1.0000 0.1198654243
H   H166      1.0  0.35090  0.68010  0.38020  1.0000 0.1198654243
H   H167      1.0  0.14910  0.18010  0.36980  1.0000 0.1198654243
H   H168      1.0  0.85090  0.81990  0.86980  1.0000 0.1198654243
H   H169      1.0  0.83060  0.27940  0.88770  1.0000 0.1198654243
H   H170      1.0  0.16940  0.72060  0.38770  1.0000 0.1198654243
H   H171      1.0  0.33060  0.22060  0.36230  1.0000 0.1198654243
H   H172      1.0  0.66940  0.77940  0.86230  1.0000 0.1198654243
H   H173      1.0  0.84040  0.34810  0.93830  1.0000 0.1279576171
H   H174      1.0  0.15960  0.65190  0.43830  1.0000 0.1279576171
H   H175      1.0  0.34040  0.15190  0.31170  1.0000 0.1279576171
H   H176      1.0  0.65960  0.84810  0.81170  1.0000 0.1279576171
H   H177      1.0  0.81840  0.26360  0.82420  1.0000 0.1198654243
H   H178      1.0  0.18160  0.73640  0.32420  1.0000 0.1198654243
H   H179      1.0  0.31840  0.23640  0.42580  1.0000 0.1198654243
H   H180      1.0  0.68160  0.76360  0.92580  1.0000 0.1198654243
H   H181      1.0  0.81820  0.18100  0.78180  1.0000 0.1198654243
H   H182      1.0  0.18180  0.81900  0.28180  1.0000 0.1198654243
H   H183      1.0  0.31820  0.31900  0.46820  1.0000 0.1198654243
H   H184      1.0  0.68180  0.68100  0.96820  1.0000 0.1198654243
H   H185      1.0  0.64860  0.13190  0.81840  1.0000 0.1198654243
H   H186      1.0  0.35140  0.86810  0.31840  1.0000 0.1198654243
H   H187      1.0  0.14860  0.36810  0.43160  1.0000 0.1198654243
H   H188      1.0  0.85140  0.63190  0.93160  1.0000 0.1198654243
H   H189      1.0  0.64890  0.21450  0.86090  1.0000 0.1198654243
H   H190      1.0  0.35110  0.78550  0.36090  1.0000 0.1198654243
H   H191      1.0  0.14890  0.28550  0.38910  1.0000 0.1198654243
H   H192      1.0  0.85110  0.71450  0.88910  1.0000 0.1198654243
C   C1        1.0  0.08690  0.17530  0.83340  1.0000 0.6076853423
C   C2        1.0  0.91310  0.82470  0.33340  1.0000 0.6076853423
C   C3        1.0  0.41310  0.67530  0.91660  1.0000 0.6076853423
C   C4        1.0  0.58690  0.32470  0.41660  1.0000 0.6076853423
C   C5        1.0  0.13990  0.13980  0.84907  1.0000 -0.0389653144
C   C6        1.0  0.86010  0.86020  0.34907  1.0000 -0.0389653144
C   C7        1.0  0.36010  0.63980  0.90093  1.0000 -0.0389653144
C   C8        1.0  0.63990  0.36020  0.40093  1.0000 -0.0389653144
C   C9        1.0  0.17130  0.10330  0.82315  1.0000 -0.0971414203
C   C10       1.0  0.82870  0.89670  0.32315  1.0000 -0.0971414203
C   C11       1.0  0.32870  0.60330  0.92685  1.0000 -0.0971414203
C   C12       1.0  0.67130  0.39670  0.42685  1.0000 -0.0971414203
C   C13       1.0  0.21700  0.06350  0.83555  1.0000 -0.1517331344
C   C14       1.0  0.78300  0.93650  0.33555  1.0000 -0.1517331344
C   C15       1.0  0.28300  0.56350  0.91445  1.0000 -0.1517331344
C   C16       1.0  0.71700  0.43650  0.41445  1.0000 -0.1517331344
C   C17       1.0  0.23140  0.06020  0.87386  1.0000 0.0792235138
C   C18       1.0  0.76860  0.93980  0.37386  1.0000 0.0792235138
C   C19       1.0  0.26860  0.56020  0.87614  1.0000 0.0792235138
C   C20       1.0  0.73140  0.43980  0.37614  1.0000 0.0792235138
C   C21       1.0  0.20000  0.09670  0.89978  1.0000 -0.1572772053
C   C22       1.0  0.80000  0.90330  0.39978  1.0000 -0.1572772053
C   C23       1.0  0.30000  0.59670  0.85022  1.0000 -0.1572772053
C   C24       1.0  0.70000  0.40330  0.35022  1.0000 -0.1572772053
C   C25       1.0  0.15430  0.13640  0.88738  1.0000 -0.089722805
C   C26       1.0  0.84570  0.86360  0.38738  1.0000 -0.089722805
C   C27       1.0  0.34570  0.63640  0.86262  1.0000 -0.089722805
C   C28       1.0  0.65430  0.36360  0.36262  1.0000 -0.089722805
C   C29       1.0  0.27740  0.01250  0.88705  1.0000 0.0792235138
C   C30       1.0  0.72260  0.98750  0.38705  1.0000 0.0792235138
C   C31       1.0  0.22260  0.51250  0.86295  1.0000 0.0792235138
C   C32       1.0  0.77740  0.48750  0.36295  1.0000 0.0792235138
C   C33       1.0  0.29000  0.96100  0.86512  1.0000 -0.1572772053
C   C34       1.0  0.71000  0.03900  0.36512  1.0000 -0.1572772053
C   C35       1.0  0.21000  0.46100  0.88488  1.0000 -0.1572772053
C   C36       1.0  0.79000  0.53900  0.38488  1.0000 -0.1572772053
C   C37       1.0  0.33440  0.91910  0.87682  1.0000 -0.0832222741
C   C38       1.0  0.66560  0.08090  0.37682  1.0000 -0.0832222741
C   C39       1.0  0.16560  0.41910  0.87318  1.0000 -0.0832222741
C   C40       1.0  0.83440  0.58090  0.37318  1.0000 -0.0832222741
C   C41       1.0  0.36620  0.92880  0.91044  1.0000 -0.0568311692
C   C42       1.0  0.63380  0.07120  0.41044  1.0000 -0.0568311692
C   C43       1.0  0.13380  0.42880  0.83956  1.0000 -0.0568311692
C   C44       1.0  0.86620  0.57120  0.33956  1.0000 -0.0568311692
C   C45       1.0  0.35370  0.98040  0.93236  1.0000 -0.0832222741
C   C46       1.0  0.64630  0.01960  0.43236  1.0000 -0.089722805
C   C47       1.0  0.14630  0.48040  0.81764  1.0000 -0.089722805
C   C48       1.0  0.85370  0.51960  0.31764  1.0000 -0.089722805
C   C49       1.0  0.30930  0.02220  0.92067  1.0000 -0.1572772053
C   C50       1.0  0.69070  0.97780  0.42067  1.0000 -0.1572772053
C   C51       1.0  0.19070  0.52220  0.82933  1.0000 -0.1572772053
C   C52       1.0  0.80930  0.47780  0.32933  1.0000 -0.1572772053
C   C53       1.0  0.41420  0.88600  0.92310  1.0000 0.5985171321
C   C54       1.0  0.58580  0.11400  0.42310  1.0000 0.5985171321
C   C55       1.0  0.08580  0.38600  0.82690  1.0000 0.5985171321
C   C56       1.0  0.91420  0.61400  0.32690  1.0000 0.5985171321
C   C57       1.0  0.91940  0.17290  0.84530  1.0000 0.6076853423
C   C58       1.0  0.08060  0.82710  0.34530  1.0000 0.6076853423
C   C59       1.0  0.58060  0.67290  0.90470  1.0000 0.6076853423
C   C60       1.0  0.41940  0.32710  0.40470  1.0000 0.6076853423
C   C61       1.0  0.87510  0.12890  0.86267  1.0000 -0.046771722
C   C62       1.0  0.12490  0.87110  0.36267  1.0000 -0.046771722
C   C63       1.0  0.62490  0.62890  0.88733  1.0000 -0.046771722
C   C64       1.0  0.37510  0.37110  0.38733  1.0000 -0.046771722
C   C65       1.0  0.85900  0.07790  0.84118  1.0000 -0.0832222741
C   C66       1.0  0.14100  0.92210  0.34118  1.0000 -0.0832222741
C   C67       1.0  0.64100  0.57790  0.90882  1.0000 -0.0832222741
C   C68       1.0  0.35900  0.42210  0.40882  1.0000 -0.0832222741
C   C69       1.0  0.81280  0.03863  0.85364  1.0000 -0.1421782606
C   C70       1.0  0.18720  0.96137  0.35364  1.0000 -0.1421782606
C   C71       1.0  0.68720  0.53863  0.89636  1.0000 -0.1421782606
C   C72       1.0  0.31280  0.46137  0.39636  1.0000 -0.1421782606
C   C73       1.0  0.78268  0.05050  0.88759  1.0000 0.0792235138
C   C74       1.0  0.21732  0.94950  0.38759  1.0000 0.0792235138
C   C75       1.0  0.71732  0.55050  0.86241  1.0000 0.0792235138
C   C76       1.0  0.28268  0.44950  0.36241  1.0000 0.0792235138
C   C77       1.0  0.79880  0.10150  0.90908  1.0000 -0.1517331344
C   C78       1.0  0.20120  0.89850  0.40908  1.0000 -0.1517331344
C   C79       1.0  0.70120  0.60150  0.84092  1.0000 -0.1517331344
C   C80       1.0  0.29880  0.39850  0.34092  1.0000 -0.1517331344
C   C81       1.0  0.84500  0.14076  0.89662  1.0000 -0.0971414203
C   C82       1.0  0.15500  0.85924  0.39662  1.0000 -0.0971414203
C   C83       1.0  0.65500  0.64076  0.85338  1.0000 -0.0971414203
C   C84       1.0  0.34500  0.35924  0.35338  1.0000 -0.0971414203
C   C85       1.0  0.72788  0.01180  0.89824  1.0000 0.0859651002
C   C86       1.0  0.27212  0.98820  0.39824  1.0000 0.0859651002
C   C87       1.0  0.77212  0.51180  0.85176  1.0000 0.0859651002
C   C88       1.0  0.22788  0.48820  0.35176  1.0000 0.0859651002
C   C89       1.0  0.71940  0.99400  0.93569  1.0000 -0.1517331344
C   C90       1.0  0.28060  0.00600  0.43569  1.0000 -0.1517331344
C   C91       1.0  0.78060  0.49400  0.81431  1.0000 -0.1517331344
C   C92       1.0  0.21940  0.50600  0.31431  1.0000 -0.1517331344
C   C93       1.0  0.67270  0.95310  0.94500  1.0000 -0.089722805
C   C94       1.0  0.32730  0.04690  0.44500  1.0000 -0.089722805
C   C95       1.0  0.82730  0.45310  0.80500  1.0000 -0.089722805
C   C96       1.0  0.17270  0.54690  0.30500  1.0000 -0.089722805
C   C97       1.0  0.63450  0.93010  0.91685  1.0000 -0.046771722
C   C98       1.0  0.36550  0.06990  0.41685  1.0000 -0.046771722
C   C99       1.0  0.86550  0.43010  0.83315  1.0000 -0.046771722
C   C100      1.0  0.13450  0.56990  0.33315  1.0000 -0.046771722
C   C101      1.0  0.64290  0.94790  0.87940  1.0000 -0.089722805
C   C102      1.0  0.35710  0.05210  0.37940  1.0000 -0.089722805
C   C103      1.0  0.85710  0.44790  0.87060  1.0000 -0.089722805
C   C104      1.0  0.14290  0.55210  0.37060  1.0000 -0.089722805
C   C105      1.0  0.68960  0.98880  0.87009  1.0000 -0.1421782606
C   C106      1.0  0.31040  0.01120  0.37009  1.0000 -0.1421782606
C   C107      1.0  0.81040  0.48880  0.87991  1.0000 -0.1421782606
C   C108      1.0  0.18960  0.51120  0.37991  1.0000 -0.1421782606
C   C109      1.0  0.58520  0.88550  0.92680  1.0000 0.6076853423
C   C110      1.0  0.41480  0.11450  0.42680  1.0000 0.6076853423
C   C111      1.0  0.91480  0.38550  0.82320  1.0000 0.6076853423
C   C112      1.0  0.08520  0.61450  0.32320  1.0000 0.6076853423
C   C113      1.0  0.08070  0.26120  0.72110  1.0000 0.5922285516
C   C114      1.0  0.91930  0.73880  0.22110  1.0000 0.5922285516
C   C115      1.0  0.41930  0.76120  0.02890  1.0000 0.5922285516
C   C116      1.0  0.58070  0.23880  0.52890  1.0000 0.5922285516
C   C117      1.0  0.12520  0.25060  0.68933  1.0000 -0.0389653144
C   C118      1.0  0.87480  0.74940  0.18933  1.0000 -0.0389653144
C   C119      1.0  0.37480  0.75060  0.06067  1.0000 -0.0389653144
C   C120      1.0  0.62520  0.24940  0.56067  1.0000 -0.0389653144
C   C121      1.0  0.13360  0.19381  0.67207  1.0000 -0.0971414203
C   C122      1.0  0.86640  0.80619  0.17207  1.0000 -0.0971414203
C   C123      1.0  0.36640  0.69381  0.07793  1.0000 -0.0971414203
C   C124      1.0  0.63360  0.30619  0.57793  1.0000 -0.0971414203
C   C125      1.0  0.17440  0.18797  0.64200  1.0000 -0.1572772053
C   C126      1.0  0.82560  0.81203  0.14200  1.0000 -0.1572772053
C   C127      1.0  0.32560  0.68797  0.10800  1.0000 -0.1572772053
C   C128      1.0  0.67440  0.31203  0.60800  1.0000 -0.1572772053
C   C129      1.0  0.20680  0.23890  0.62919  1.0000 0.0859651002
C   C130      1.0  0.79320  0.76110  0.12919  1.0000 0.0859651002
C   C131      1.0  0.29320  0.73890  0.12081  1.0000 0.0859651002
C   C132      1.0  0.70680  0.26110  0.62081  1.0000 0.0859651002
C   C133      1.0  0.19850  0.29574  0.64645  1.0000 -0.1517331344
C   C134      1.0  0.80150  0.70426  0.14645  1.0000 -0.1517331344
C   C135      1.0  0.30150  0.79574  0.10355  1.0000 -0.1517331344
C   C136      1.0  0.69850  0.20426  0.60355  1.0000 -0.1517331344
C   C137      1.0  0.15760  0.30158  0.67652  1.0000 -0.089722805
C   C138      1.0  0.84240  0.69842  0.17652  1.0000 -0.089722805
C   C139      1.0  0.34240  0.80158  0.07348  1.0000 -0.089722805
C   C140      1.0  0.65760  0.19842  0.57348  1.0000 -0.089722805
C   C141      1.0  0.25320  0.23370  0.59653  1.0000 0.0859651002
C   C142      1.0  0.74680  0.76630  0.09653  1.0000 0.0859651002
C   C143      1.0  0.24680  0.73370  0.15347  1.0000 0.0859651002
C   C144      1.0  0.75320  0.26630  0.65347  1.0000 0.0859651002
C   C145      1.0  0.26320  0.28396  0.57303  1.0000 -0.1421782606
C   C146      1.0  0.73680  0.71604  0.07303  1.0000 -0.1421782606
C   C147      1.0  0.23680  0.78396  0.17697  1.0000 -0.1421782606
C   C148      1.0  0.76320  0.21604  0.67697  1.0000 -0.1421782606
C   C149      1.0  0.31220  0.28382  0.54781  1.0000 -0.074109114
C   C150      1.0  0.68780  0.71618  0.04781  1.0000 -0.074109114
C   C151      1.0  0.18780  0.78382  0.20219  1.0000 -0.074109114
C   C152      1.0  0.81220  0.21618  0.70219  1.0000 -0.074109114
C   C153      1.0  0.35130  0.23340  0.54609  1.0000 -0.074109114
C   C154      1.0  0.64870  0.76660  0.04609  1.0000 -0.074109114
C   C155      1.0  0.14870  0.73340  0.20391  1.0000 -0.074109114
C   C156      1.0  0.85130  0.26660  0.70391  1.0000 -0.074109114
C   C157      1.0  0.34140  0.18308  0.56958  1.0000 -0.0832222741
C   C158      1.0  0.65860  0.81692  0.06958  1.0000 -0.0832222741
C   C159      1.0  0.15860  0.68308  0.18042  1.0000 -0.0832222741
C   C160      1.0  0.84140  0.31692  0.68042  1.0000 -0.0832222741
C   C161      1.0  0.29230  0.18323  0.59480  1.0000 -0.1517331344
C   C162      1.0  0.70770  0.81677  0.09480  1.0000 -0.1517331344
C   C163      1.0  0.20770  0.68323  0.15520  1.0000 -0.1517331344
C   C164      1.0  0.79230  0.31677  0.65520  1.0000 -0.1517331344
C   C165      1.0  0.40640  0.23600  0.52370  1.0000 0.5922285516
C   C166      1.0  0.59360  0.76400  0.02370  1.0000 0.5922285516
C   C167      1.0  0.09360  0.73600  0.22630  1.0000 0.5922285516
C   C168      1.0  0.90640  0.26400  0.72630  1.0000 0.5922285516
C   C169      1.0  0.67530  0.41310  0.08340  1.0000 0.6076853423
C   C170      1.0  0.32470  0.58690  0.58340  1.0000 0.6076853423
C   C171      1.0  0.17530  0.08690  0.16660  1.0000 0.6076853423
C   C172      1.0  0.82470  0.91310  0.66667  1.0000 0.6076853423
C   C173      1.0  0.63980  0.36010  0.09907  1.0000 -0.0389653144
C   C174      1.0  0.36020  0.63990  0.59907  1.0000 -0.0389653144
C   C175      1.0  0.13980  0.13990  0.15093  1.0000 -0.0389653144
C   C176      1.0  0.86020  0.86010  0.65093  1.0000 -0.0389653144
C   C177      1.0  0.60330  0.32870  0.07315  1.0000 -0.0971414203
C   C178      1.0  0.39670  0.67130  0.57315  1.0000 -0.0971414203
C   C179      1.0  0.10330  0.17130  0.17685  1.0000 -0.0971414203
C   C180      1.0  0.89670  0.82870  0.67685  1.0000 -0.0971414203
C   C181      1.0  0.56350  0.28300  0.08555  1.0000 -0.1517331344
C   C182      1.0  0.43650  0.71700  0.58555  1.0000 -0.1517331344
C   C183      1.0  0.06350  0.21700  0.16445  1.0000 -0.1517331344
C   C184      1.0  0.93650  0.78300  0.66445  1.0000 -0.1517331344
C   C185      1.0  0.56020  0.26860  0.12386  1.0000 0.0792235138
C   C186      1.0  0.43980  0.73140  0.62386  1.0000 0.0792235138
C   C187      1.0  0.06020  0.23140  0.12614  1.0000 0.0792235138
C   C188      1.0  0.93980  0.76860  0.62614  1.0000 0.0792235138
C   C189      1.0  0.59670  0.30000  0.14978  1.0000 -0.1572772053
C   C190      1.0  0.40330  0.70000  0.64978  1.0000 -0.1572772053
C   C191      1.0  0.09670  0.20000  0.10022  1.0000 -0.1572772053
C   C192      1.0  0.90330  0.80000  0.60022  1.0000 -0.1572772053
C   C193      1.0  0.63640  0.34570  0.13738  1.0000 -0.089722805
C   C194      1.0  0.36360  0.65430  0.63738  1.0000 -0.089722805
C   C195      1.0  0.13640  0.15430  0.11262  1.0000 -0.089722805
C   C196      1.0  0.86360  0.84570  0.61262  1.0000 -0.089722805
C   C197      1.0  0.51250  0.22260  0.13705  1.0000 0.0792235138
C   C198      1.0  0.48750  0.77740  0.63705  1.0000 0.0792235138
C   C199      1.0  0.01250  0.27740  0.11295  1.0000 0.0792235138
C   C200      1.0  0.98750  0.72260  0.61295  1.0000 0.0792235138
C   C201      1.0  0.46100  0.21000  0.11512  1.0000 -0.1572772053
C   C202      1.0  0.53900  0.79000  0.61512  1.0000 -0.1572772053
C   C203      1.0  0.96100  0.29000  0.13488  1.0000 -0.1572772053
C   C204      1.0  0.03900  0.71000  0.63488  1.0000 -0.1572772053
C   C205      1.0  0.41910  0.16560  0.12682  1.0000 -0.0832222741
C   C206      1.0  0.58090  0.83440  0.62682  1.0000 -0.0832222741
C   C207      1.0  0.91910  0.33440  0.12318  1.0000 -0.0832222741
C   C208      1.0  0.08090  0.66560  0.62318  1.0000 -0.0832222741
C   C209      1.0  0.42880  0.13380  0.16044  1.0000 -0.0568311692
C   C210      1.0  0.57120  0.86620  0.66044  1.0000 -0.0568311692
C   C211      1.0  0.92880  0.36620  0.08956  1.0000 -0.0568311692
C   C212      1.0  0.07120  0.63380  0.58956  1.0000 -0.0568311692
C   C213      1.0  0.48040  0.14630  0.18236  1.0000 -0.089722805
C   C214      1.0  0.51960  0.85370  0.68236  1.0000 -0.0832222741
C   C215      1.0  0.98040  0.35370  0.06764  1.0000 -0.089722805
C   C216      1.0  0.01960  0.64630  0.56764  1.0000 -0.089722805
C   C217      1.0  0.52220  0.19070  0.17067  1.0000 -0.1572772053
C   C218      1.0  0.47780  0.80930  0.67067  1.0000 -0.1572772053
C   C219      1.0  0.02220  0.30930  0.07933  1.0000 -0.1572772053
C   C220      1.0  0.97780  0.69070  0.57933  1.0000 -0.1572772053
C   C221      1.0  0.38600  0.08580  0.17310  1.0000 0.5985171321
C   C222      1.0  0.61400  0.91420  0.67310  1.0000 0.5985171321
C   C223      1.0  0.88600  0.41420  0.07690  1.0000 0.5985171321
C   C224      1.0  0.11400  0.58580  0.57690  1.0000 0.5985171321
C   C225      1.0  0.67290  0.58060  0.09530  1.0000 0.6076853423
C   C226      1.0  0.32710  0.41940  0.59530  1.0000 0.6076853423
C   C227      1.0  0.17290  0.91940  0.15470  1.0000 0.6076853423
C   C228      1.0  0.82710  0.08060  0.65470  1.0000 0.6076853423
C   C229      1.0  0.62890  0.62490  0.11267  1.0000 -0.046771722
C   C230      1.0  0.37110  0.37510  0.61267  1.0000 -0.046771722
C   C231      1.0  0.12890  0.87510  0.13733  1.0000 -0.046771722
C   C232      1.0  0.87110  0.12490  0.63733  1.0000 -0.046771722
C   C233      1.0  0.57790  0.64100  0.09118  1.0000 -0.0832222741
C   C234      1.0  0.42210  0.35900  0.59118  1.0000 -0.0832222741
C   C235      1.0  0.07790  0.85900  0.15882  1.0000 -0.0832222741
C   C236      1.0  0.92210  0.14100  0.65882  1.0000 -0.0832222741
C   C237      1.0  0.53863  0.68720  0.10364  1.0000 -0.1421782606
C   C238      1.0  0.46137  0.31280  0.60364  1.0000 -0.1421782606
C   C239      1.0  0.03863  0.81280  0.14636  1.0000 -0.1421782606
C   C240      1.0  0.96137  0.18720  0.64636  1.0000 -0.1421782606
C   C241      1.0  0.55050  0.71732  0.13759  1.0000 0.0792235138
C   C242      1.0  0.44950  0.28268  0.63759  1.0000 0.0792235138
C   C243      1.0  0.05050  0.78268  0.11241  1.0000 0.0792235138
C   C244      1.0  0.94950  0.21732  0.61241  1.0000 0.0792235138
C   C245      1.0  0.60150  0.70120  0.15908  1.0000 -0.1517331344
C   C246      1.0  0.39850  0.29880  0.65908  1.0000 -0.1517331344
C   C247      1.0  0.10150  0.79880  0.09092  1.0000 -0.1517331344
C   C248      1.0  0.89850  0.20120  0.59092  1.0000 -0.1517331344
C   C249      1.0  0.64076  0.65500  0.14662  1.0000 -0.0971414203
C   C250      1.0  0.35924  0.34500  0.64662  1.0000 -0.0971414203
C   C251      1.0  0.14076  0.84500  0.10338  1.0000 -0.0971414203
C   C252      1.0  0.85924  0.15500  0.60338  1.0000 -0.0971414203
C   C253      1.0  0.51180  0.77212  0.14824  1.0000 0.0859651002
C   C254      1.0  0.48820  0.22788  0.64824  1.0000 0.0859651002
C   C255      1.0  0.01180  0.72788  0.10176  1.0000 0.0859651002
C   C256      1.0  0.98820  0.27212  0.60176  1.0000 0.0859651002
C   C257      1.0  0.49400  0.78060  0.18569  1.0000 -0.1517331344
C   C258      1.0  0.50600  0.21940  0.68569  1.0000 -0.1517331344
C   C259      1.0  0.99400  0.71940  0.06431  1.0000 -0.1517331344
C   C260      1.0  0.00600  0.28060  0.56431  1.0000 -0.1517331344
C   C261      1.0  0.45310  0.82730  0.19500  1.0000 -0.089722805
C   C262      1.0  0.54690  0.17270  0.69500  1.0000 -0.089722805
C   C263      1.0  0.95310  0.67270  0.05500  1.0000 -0.089722805
C   C264      1.0  0.04690  0.32730  0.55500  1.0000 -0.089722805
C   C265      1.0  0.43010  0.86550  0.16685  1.0000 -0.046771722
C   C266      1.0  0.56990  0.13450  0.66685  1.0000 -0.046771722
C   C267      1.0  0.93010  0.63450  0.08315  1.0000 -0.046771722
C   C268      1.0  0.06990  0.36550  0.58315  1.0000 -0.046771722
C   C269      1.0  0.44790  0.85710  0.12940  1.0000 -0.089722805
C   C270      1.0  0.55210  0.14290  0.62940  1.0000 -0.089722805
C   C271      1.0  0.94790  0.64290  0.12060  1.0000 -0.089722805
C   C272      1.0  0.05210  0.35710  0.62060  1.0000 -0.089722805
C   C273      1.0  0.48880  0.81040  0.12009  1.0000 -0.1421782606
C   C274      1.0  0.51120  0.18960  0.62009  1.0000 -0.1421782606
C   C275      1.0  0.98880  0.68960  0.12991  1.0000 -0.1421782606
C   C276      1.0  0.01120  0.31040  0.62991  1.0000 -0.1421782606
C   C277      1.0  0.38550  0.91480  0.17680  1.0000 0.6076853423
C   C278      1.0  0.61450  0.08520  0.67680  1.0000 0.6076853423
C   C279      1.0  0.88550  0.58520  0.07320  1.0000 0.6076853423
C   C280      1.0  0.11450  0.41480  0.57320  1.0000 0.6076853423
C   C281      1.0  0.76120  0.41930  0.97110  1.0000 0.5922285516
C   C282      1.0  0.23880  0.58070  0.47110  1.0000 0.5922285516
C   C283      1.0  0.26120  0.08070  0.27890  1.0000 0.5922285516
C   C284      1.0  0.73880  0.91930  0.77890  1.0000 0.5922285516
C   C285      1.0  0.75060  0.37480  0.93933  1.0000 -0.0389653144
C   C286      1.0  0.24940  0.62520  0.43933  1.0000 -0.0389653144
C   C287      1.0  0.25060  0.12520  0.31067  1.0000 -0.0389653144
C   C288      1.0  0.74940  0.87480  0.81067  1.0000 -0.0389653144
C   C289      1.0  0.69381  0.36640  0.92207  1.0000 -0.0971414203
C   C290      1.0  0.30619  0.63360  0.42207  1.0000 -0.0971414203
C   C291      1.0  0.19381  0.13360  0.32793  1.0000 -0.0971414203
C   C292      1.0  0.80619  0.86640  0.82793  1.0000 -0.0971414203
C   C293      1.0  0.68797  0.32560  0.89200  1.0000 -0.1572772053
C   C294      1.0  0.31203  0.67440  0.39200  1.0000 -0.1572772053
C   C295      1.0  0.18797  0.17440  0.35800  1.0000 -0.1572772053
C   C296      1.0  0.81203  0.82560  0.85800  1.0000 -0.1572772053
C   C297      1.0  0.73890  0.29320  0.87919  1.0000 0.0859651002
C   C298      1.0  0.26110  0.70680  0.37919  1.0000 0.0859651002
C   C299      1.0  0.23890  0.20680  0.37081  1.0000 0.0859651002
C   C300      1.0  0.76110  0.79320  0.87081  1.0000 0.0859651002
C   C301      1.0  0.79574  0.30150  0.89645  1.0000 -0.1517331344
C   C302      1.0  0.20426  0.69850  0.39645  1.0000 -0.1517331344
C   C303      1.0  0.29574  0.19850  0.35355  1.0000 -0.1517331344
C   C304      1.0  0.70426  0.80150  0.85355  1.0000 -0.1517331344
C   C305      1.0  0.80158  0.34240  0.92652  1.0000 -0.089722805
C   C306      1.0  0.19842  0.65760  0.42652  1.0000 -0.089722805
C   C307      1.0  0.30158  0.15760  0.32348  1.0000 -0.089722805
C   C308      1.0  0.69842  0.84240  0.82348  1.0000 -0.089722805
C   C309      1.0  0.73370  0.24680  0.84653  1.0000 0.0859651002
C   C310      1.0  0.26630  0.75320  0.34653  1.0000 0.0859651002
C   C311      1.0  0.23370  0.25320  0.40347  1.0000 0.0859651002
C   C312      1.0  0.76630  0.74680  0.90347  1.0000 0.0859651002
C   C313      1.0  0.78396  0.23680  0.82303  1.0000 -0.1421782606
C   C314      1.0  0.21604  0.76320  0.32303  1.0000 -0.1421782606
C   C315      1.0  0.28396  0.26320  0.42697  1.0000 -0.1421782606
C   C316      1.0  0.71604  0.73680  0.92697  1.0000 -0.1421782606
C   C317      1.0  0.78382  0.18780  0.79781  1.0000 -0.074109114
C   C318      1.0  0.21618  0.81220  0.29781  1.0000 -0.074109114
C   C319      1.0  0.28382  0.31220  0.45219  1.0000 -0.074109114
C   C320      1.0  0.71618  0.68780  0.95219  1.0000 -0.074109114
C   C321      1.0  0.73340  0.14870  0.79609  1.0000 -0.074109114
C   C322      1.0  0.26660  0.85130  0.29609  1.0000 -0.074109114
C   C323      1.0  0.23340  0.35130  0.45391  1.0000 -0.074109114
C   C324      1.0  0.76660  0.64870  0.95391  1.0000 -0.074109114
C   C325      1.0  0.68308  0.15860  0.81958  1.0000 -0.0832222741
C   C326      1.0  0.31692  0.84140  0.31958  1.0000 -0.0832222741
C   C327      1.0  0.18308  0.34140  0.43042  1.0000 -0.0832222741
C   C328      1.0  0.81692  0.65860  0.93042  1.0000 -0.0832222741
C   C329      1.0  0.68323  0.20770  0.84480  1.0000 -0.1517331344
C   C330      1.0  0.31677  0.79230  0.34480  1.0000 -0.1517331344
C   C331      1.0  0.18323  0.29230  0.40520  1.0000 -0.1517331344
C   C332      1.0  0.81677  0.70770  0.90520  1.0000 -0.1517331344
C   C333      1.0  0.73600  0.09360  0.77370  1.0000 0.5922285516
C   C334      1.0  0.26400  0.90640  0.27370  1.0000 0.5922285516
C   C335      1.0  0.23600  0.40640  0.47630  1.0000 0.5922285516
C   C336      1.0  0.76400  0.59360  0.97630  1.0000 0.5922285516
O   O1        1.0  0.99750  0.27350  0.79680  1.0000 -0.9066711095
O   O2        1.0  0.00250  0.72650  0.29680  1.0000 -0.9066711095
O   O3        1.0  0.50250  0.77350  0.95320  1.0000 -0.9066711095
O   O4        1.0  0.49750  0.22650  0.45320  1.0000 -0.9066711095
O   O5        1.0  0.06190  0.21270  0.85768  1.0000 -0.583253837
O   O6        1.0  0.93810  0.78730  0.35768  1.0000 -0.583253837
O   O7        1.0  0.43810  0.71270  0.89232  1.0000 -0.583253837
O   O8        1.0  0.56190  0.28730  0.39232  1.0000 -0.583253837
O   O9        1.0  0.07280  0.16960  0.79915  1.0000 -0.5407638725
O   O10       1.0  0.92720  0.83040  0.29915  1.0000 -0.5407638725
O   O11       1.0  0.42720  0.66960  0.95085  1.0000 -0.5407638725
O   O12       1.0  0.57280  0.33040  0.45085  1.0000 -0.5407638725
O   O13       1.0  0.42760  0.84230  0.90092  1.0000 -0.5591338869
O   O14       1.0  0.57240  0.15770  0.40092  1.0000 -0.5591338869
O   O15       1.0  0.07240  0.34230  0.84908  1.0000 -0.5591338869
O   O16       1.0  0.92760  0.65770  0.34908  1.0000 -0.5591338869
O   O17       1.0  0.07530  0.31230  0.73555  1.0000 -0.5221540433
O   O18       1.0  0.92470  0.68770  0.23555  1.0000 -0.5221540433
O   O19       1.0  0.42470  0.81230  0.01445  1.0000 -0.5221540433
O   O20       1.0  0.57530  0.18770  0.51445  1.0000 -0.5221540433
O   O21       1.0  0.55920  0.85500  0.90061  1.0000 -0.5662337493
O   O22       1.0  0.44080  0.14500  0.40061  1.0000 -0.5662337493
O   O23       1.0  0.94080  0.35500  0.84939  1.0000 -0.5662337493
O   O24       1.0  0.05920  0.64500  0.34939  1.0000 -0.5662337493
O   O25       1.0  0.56970  0.88310  0.96255  1.0000 -0.5591338869
O   O26       1.0  0.43030  0.11690  0.46255  1.0000 -0.5591338869
O   O27       1.0  0.93030  0.38310  0.78745  1.0000 -0.5591338869
O   O28       1.0  0.06970  0.61690  0.28745  1.0000 -0.5591338869
O   O29       1.0  0.04650  0.21320  0.72848  1.0000 -0.5899039384
O   O30       1.0  0.95350  0.78680  0.22848  1.0000 -0.5899039384
O   O31       1.0  0.45350  0.71320  0.02152  1.0000 -0.5899039384
O   O32       1.0  0.54650  0.28680  0.52152  1.0000 -0.5899039384
O   O33       1.0  0.44330  0.19150  0.52505  1.0000 -0.5591338869
O   O34       1.0  0.55670  0.80850  0.02505  1.0000 -0.5591338869
O   O35       1.0  0.05670  0.69150  0.22495  1.0000 -0.5591338869
O   O36       1.0  0.94330  0.30850  0.72495  1.0000 -0.5591338869
O   O37       1.0  0.44030  0.89300  0.95346  1.0000 -0.5221540433
O   O38       1.0  0.55970  0.10700  0.45346  1.0000 -0.5221540433
O   O39       1.0  0.05970  0.39300  0.79654  1.0000 -0.5221540433
O   O40       1.0  0.94030  0.60700  0.29654  1.0000 -0.5221540433
O   O41       1.0  0.94790  0.15600  0.81572  1.0000 -0.5591338869
O   O42       1.0  0.05210  0.84400  0.31572  1.0000 -0.5591338869
O   O43       1.0  0.55210  0.65600  0.93428  1.0000 -0.5591338869
O   O44       1.0  0.44790  0.34400  0.43428  1.0000 -0.5591338869
O   O45       1.0  0.41610  0.28560  0.50371  1.0000 -0.5591338869
O   O46       1.0  0.58390  0.71440  0.00371  1.0000 -0.5591338869
O   O47       1.0  0.08390  0.78560  0.24629  1.0000 -0.5591338869
O   O48       1.0  0.91610  0.21440  0.74629  1.0000 -0.5591338869
O   O49       1.0  0.93050  0.22510  0.86195  1.0000 -0.583253837
O   O50       1.0  0.06950  0.77490  0.36195  1.0000 -0.583253837
O   O51       1.0  0.56950  0.72510  0.88805  1.0000 -0.583253837
O   O52       1.0  0.43050  0.27490  0.38805  1.0000 -0.583253837
O   O53       1.0  0.77350  0.50250  0.04680  1.0000 -0.9066711095
O   O54       1.0  0.22650  0.49750  0.54680  1.0000 -0.9066711095
O   O55       1.0  0.27350  0.99750  0.20320  1.0000 -0.9066711095
O   O56       1.0  0.72650  0.00250  0.70320  1.0000 -0.9066711095
O   O57       1.0  0.71270  0.43810  0.10768  1.0000 -0.583253837
O   O58       1.0  0.28730  0.56190  0.60768  1.0000 -0.583253837
O   O59       1.0  0.21270  0.06190  0.14232  1.0000 -0.583253837
O   O60       1.0  0.78730  0.93810  0.64232  1.0000 -0.583253837
O   O61       1.0  0.66960  0.42720  0.04915  1.0000 -0.5407638725
O   O62       1.0  0.33040  0.57280  0.54915  1.0000 -0.5407638725
O   O63       1.0  0.16960  0.07280  0.20085  1.0000 -0.5407638725
O   O64       1.0  0.83040  0.92720  0.70085  1.0000 -0.5407638725
O   O65       1.0  0.34230  0.07240  0.15092  1.0000 -0.5591338869
O   O66       1.0  0.65770  0.92760  0.65092  1.0000 -0.5591338869
O   O67       1.0  0.84230  0.42760  0.09908  1.0000 -0.5591338869
O   O68       1.0  0.15770  0.57240  0.59908  1.0000 -0.5591338869
O   O69       1.0  0.81230  0.42470  0.98555  1.0000 -0.5221540433
O   O70       1.0  0.18770  0.57530  0.48555  1.0000 -0.5221540433
O   O71       1.0  0.31230  0.07530  0.26445  1.0000 -0.5221540433
O   O72       1.0  0.68770  0.92470  0.76445  1.0000 -0.5221540433
O   O73       1.0  0.35500  0.94080  0.15061  1.0000 -0.5662337493
O   O74       1.0  0.64500  0.05920  0.65061  1.0000 -0.5662337493
O   O75       1.0  0.85500  0.55920  0.09939  1.0000 -0.5662337493
O   O76       1.0  0.14500  0.44080  0.59939  1.0000 -0.5662337493
O   O77       1.0  0.38310  0.93030  0.21255  1.0000 -0.5591338869
O   O78       1.0  0.61690  0.06970  0.71255  1.0000 -0.5591338869
O   O79       1.0  0.88310  0.56970  0.03745  1.0000 -0.5591338869
O   O80       1.0  0.11690  0.43030  0.53745  1.0000 -0.5591338869
O   O81       1.0  0.71320  0.45350  0.97848  1.0000 -0.5899039384
O   O82       1.0  0.28680  0.54650  0.47848  1.0000 -0.5899039384
O   O83       1.0  0.21320  0.04650  0.27152  1.0000 -0.5899039384
O   O84       1.0  0.78680  0.95350  0.77152  1.0000 -0.5899039384
O   O85       1.0  0.69150  0.05670  0.77505  1.0000 -0.5591338869
O   O86       1.0  0.30850  0.94330  0.27505  1.0000 -0.5591338869
O   O87       1.0  0.19150  0.44330  0.47495  1.0000 -0.5591338869
O   O88       1.0  0.80850  0.55670  0.97495  1.0000 -0.5591338869
O   O89       1.0  0.39300  0.05970  0.20346  1.0000 -0.5221540433
O   O90       1.0  0.60700  0.94030  0.70346  1.0000 -0.5221540433
O   O91       1.0  0.89300  0.44030  0.04654  1.0000 -0.5221540433
O   O92       1.0  0.10700  0.55970  0.54654  1.0000 -0.5221540433
O   O93       1.0  0.65600  0.55210  0.06572  1.0000 -0.5591338869
O   O94       1.0  0.34400  0.44790  0.56572  1.0000 -0.5591338869
O   O95       1.0  0.15600  0.94790  0.18428  1.0000 -0.5591338869
O   O96       1.0  0.84400  0.05210  0.68428  1.0000 -0.5591338869
O   O97       1.0  0.78560  0.08390  0.75371  1.0000 -0.5591338869
O   O98       1.0  0.21440  0.91610  0.25371  1.0000 -0.5591338869
O   O99       1.0  0.28560  0.41610  0.49629  1.0000 -0.5591338869
O   O100      1.0  0.71440  0.58390  0.99629  1.0000 -0.5591338869
O   O101      1.0  0.72510  0.56950  0.11195  1.0000 -0.583253837
O   O102      1.0  0.27490  0.43050  0.61195  1.0000 -0.583253837
O   O103      1.0  0.22510  0.93050  0.13805  1.0000 -0.583253837
O   O104      1.0  0.77490  0.06950  0.63805  1.0000 -0.583253837
