# DDEC6 charges by PACMAN v1.1 (https://github.com/mtap-research/PACMAN-charge/)
data_0000[Cd][pcu]3[ASR]4
_chemical_formula_sum              "Cd8 H160 C256 N16 O48"
_cell_length_a       16.012
_cell_length_b       16.7097
_cell_length_c       29.1148
_cell_angle_alpha    90
_cell_angle_beta     90
_cell_angle_gamma    90

_symmetry_space_group_name_H-M    "P 1"
_symmetry_Int_Tables_number       1

loop_
  _symmetry_equiv_pos_as_xyz
  'x, y, z'

loop_
  _atom_site_type_symbol
  _atom_site_label
  _atom_site_symmetry_multiplicity
  _atom_site_fract_x
  _atom_site_fract_y
  _atom_site_fract_z
  _atom_site_occupancy
  _atom_site_charge
Cd  Cd1       1.0  0.20455  0.83827  0.54426  1.0000 0.8463653981
Cd  Cd2       1.0  0.29545  0.33827  0.95574  1.0000 0.8463653981
Cd  Cd3       1.0  0.29545  0.16173  0.04426  1.0000 0.8463653981
Cd  Cd4       1.0  0.20455  0.66173  0.45574  1.0000 0.8463653981
Cd  Cd5       1.0  0.79545  0.16173  0.45574  1.0000 0.8463653981
Cd  Cd6       1.0  0.70455  0.66173  0.04426  1.0000 0.8463653981
Cd  Cd7       1.0  0.70455  0.83827  0.95574  1.0000 0.8463653981
Cd  Cd8       1.0  0.79545  0.33827  0.54426  1.0000 0.8463653981
H   H1        1.0  0.20700  0.80240  0.37020  1.0000 0.1268270656
H   H2        1.0  0.29300  0.30240  0.12980  1.0000 0.1268270656
H   H3        1.0  0.29300  0.19760  0.87020  1.0000 0.1268270656
H   H4        1.0  0.20700  0.69760  0.62980  1.0000 0.1268270656
H   H5        1.0  0.36050  0.72830  0.57260  1.0000 0.1083642225
H   H6        1.0  0.13950  0.22830  0.92740  1.0000 0.1083642225
H   H7        1.0  0.13950  0.27170  0.07260  1.0000 0.1083642225
H   H8        1.0  0.36050  0.77170  0.42740  1.0000 0.1083642225
H   H9        1.0  0.04860  0.72410  0.57000  1.0000 0.1083642225
H   H10       1.0  0.45140  0.22410  0.93000  1.0000 0.1083642225
H   H11       1.0  0.45140  0.27590  0.07000  1.0000 0.1083642225
H   H12       1.0  0.04860  0.77590  0.43000  1.0000 0.1083642225
H   H13       1.0  0.04120  0.93810  0.51700  1.0000 0.1083642225
H   H14       1.0  0.45880  0.43810  0.98300  1.0000 0.1083642225
H   H15       1.0  0.45880  0.06190  0.01700  1.0000 0.1083642225
H   H16       1.0  0.04120  0.56190  0.48300  1.0000 0.1083642225
H   H17       1.0  0.50380  0.72210  0.57830  1.0000 0.1201316263
H   H18       1.0  0.99620  0.22210  0.92170  1.0000 0.1201316263
H   H19       1.0  0.99620  0.27790  0.07830  1.0000 0.1201316263
H   H20       1.0  0.50380  0.77790  0.42170  1.0000 0.1201316263
H   H21       1.0  0.51110  0.93700  0.51460  1.0000 0.1201316263
H   H22       1.0  0.98890  0.43700  0.98540  1.0000 0.1201316263
H   H23       1.0  0.98890  0.06300  0.01460  1.0000 0.1201316263
H   H24       1.0  0.51110  0.56300  0.48540  1.0000 0.1201316263
H   H25       1.0  0.36560  0.93430  0.51360  1.0000 0.1083642225
H   H26       1.0  0.13440  0.43430  0.98640  1.0000 0.1083642225
H   H27       1.0  0.13440  0.06570  0.01360  1.0000 0.1083642225
H   H28       1.0  0.36560  0.56570  0.48640  1.0000 0.1083642225
H   H29       1.0  0.90740  0.71970  0.57290  1.0000 0.1268270656
H   H30       1.0  0.59260  0.21970  0.92710  1.0000 0.1268270656
H   H31       1.0  0.59260  0.28030  0.07290  1.0000 0.1268270656
H   H32       1.0  0.90740  0.78030  0.42710  1.0000 0.1268270656
H   H33       1.0  0.89940  0.94070  0.52220  1.0000 0.1389052797
H   H34       1.0  0.60060  0.44070  0.97780  1.0000 0.1389052797
H   H35       1.0  0.60060  0.05930  0.02220  1.0000 0.1389052797
H   H36       1.0  0.89940  0.55930  0.47780  1.0000 0.1389052797
H   H37       1.0  0.27200  0.16270  0.20870  1.0000 0.1201316263
H   H38       1.0  0.22800  0.66270  0.29130  1.0000 0.1201316263
H   H39       1.0  0.22800  0.83730  0.70870  1.0000 0.1201316263
H   H40       1.0  0.27200  0.33730  0.79130  1.0000 0.1201316263
H   H41       1.0  0.77750  0.88020  0.48510  1.0000 0.1268270656
H   H42       1.0  0.72250  0.38020  0.01490  1.0000 0.1268270656
H   H43       1.0  0.72250  0.11980  0.98510  1.0000 0.1268270656
H   H44       1.0  0.77750  0.61980  0.51490  1.0000 0.1268270656
H   H45       1.0  0.22430  0.84980  0.29630  1.0000 0.1083642225
H   H46       1.0  0.27570  0.34980  0.20370  1.0000 0.1083642225
H   H47       1.0  0.27570  0.15020  0.79630  1.0000 0.1083642225
H   H48       1.0  0.22430  0.65020  0.70370  1.0000 0.1083642225
H   H49       1.0  0.63400  0.87950  0.48510  1.0000 0.1201316263
H   H50       1.0  0.86600  0.37950  0.01490  1.0000 0.1201316263
H   H51       1.0  0.86600  0.12050  0.98510  1.0000 0.1201316263
H   H52       1.0  0.63400  0.62050  0.51490  1.0000 0.1201316263
H   H53       1.0  0.27810  0.94210  0.15960  1.0000 0.1201316263
H   H54       1.0  0.22190  0.44210  0.34040  1.0000 0.1201316263
H   H55       1.0  0.22190  0.05790  0.65960  1.0000 0.1201316263
H   H56       1.0  0.27810  0.55790  0.84040  1.0000 0.1201316263
H   H57       1.0  0.26250  0.06790  0.34570  1.0000 0.0924788549
H   H58       1.0  0.23750  0.56790  0.15430  1.0000 0.0924788549
H   H59       1.0  0.23750  0.93210  0.84570  1.0000 0.0924788549
H   H60       1.0  0.26250  0.43210  0.65430  1.0000 0.0924788549
H   H61       1.0  0.25570  0.11280  0.28200  1.0000 0.1003171451
H   H62       1.0  0.24430  0.61280  0.21800  1.0000 0.1003171451
H   H63       1.0  0.24430  0.88720  0.78200  1.0000 0.1003171451
H   H64       1.0  0.25570  0.38720  0.71800  1.0000 0.1003171451
H   H65       1.0  0.24510  0.02070  0.41990  1.0000 0.1003171451
H   H66       1.0  0.25490  0.52070  0.08010  1.0000 0.1003171451
H   H67       1.0  0.25490  0.97930  0.91990  1.0000 0.1003171451
H   H68       1.0  0.24510  0.47930  0.58010  1.0000 0.1003171451
H   H69       1.0  0.25640  0.89070  0.23270  1.0000 0.1003171451
H   H70       1.0  0.24360  0.39070  0.26730  1.0000 0.1003171451
H   H71       1.0  0.24360  0.10930  0.73270  1.0000 0.1003171451
H   H72       1.0  0.25640  0.60930  0.76730  1.0000 0.1003171451
H   H73       1.0  0.84550  0.77590  0.63330  1.0000 0.1268270656
H   H74       1.0  0.65450  0.27590  0.86670  1.0000 0.1268270656
H   H75       1.0  0.65450  0.22410  0.13330  1.0000 0.1268270656
H   H76       1.0  0.84550  0.72410  0.36670  1.0000 0.1268270656
H   H77       1.0  0.57280  0.77700  0.63500  1.0000 0.1268270656
H   H78       1.0  0.92720  0.27700  0.86500  1.0000 0.1268270656
H   H79       1.0  0.92720  0.22300  0.13500  1.0000 0.1268270656
H   H80       1.0  0.57280  0.72300  0.36500  1.0000 0.1268270656
H   H81       1.0  0.79300  0.19760  0.62980  1.0000 0.1268270656
H   H82       1.0  0.70700  0.69760  0.87020  1.0000 0.1268270656
H   H83       1.0  0.70700  0.80240  0.12980  1.0000 0.1268270656
H   H84       1.0  0.79300  0.30240  0.37020  1.0000 0.1268270656
H   H85       1.0  0.63950  0.27170  0.42740  1.0000 0.1083642225
H   H86       1.0  0.86050  0.77170  0.07260  1.0000 0.1083642225
H   H87       1.0  0.86050  0.72830  0.92740  1.0000 0.1083642225
H   H88       1.0  0.63950  0.22830  0.57260  1.0000 0.1083642225
H   H89       1.0  0.95140  0.27590  0.43000  1.0000 0.1083642225
H   H90       1.0  0.54860  0.77590  0.07000  1.0000 0.1083642225
H   H91       1.0  0.54860  0.72410  0.93000  1.0000 0.1083642225
H   H92       1.0  0.95140  0.22410  0.57000  1.0000 0.1083642225
H   H93       1.0  0.95880  0.06190  0.48300  1.0000 0.1083642225
H   H94       1.0  0.54120  0.56190  0.01700  1.0000 0.1083642225
H   H95       1.0  0.54120  0.93810  0.98300  1.0000 0.1083642225
H   H96       1.0  0.95880  0.43810  0.51700  1.0000 0.1083642225
H   H97       1.0  0.49620  0.27790  0.42170  1.0000 0.1201316263
H   H98       1.0  0.00380  0.77790  0.07830  1.0000 0.1201316263
H   H99       1.0  0.00380  0.72210  0.92170  1.0000 0.1201316263
H   H100      1.0  0.49620  0.22210  0.57830  1.0000 0.1201316263
H   H101      1.0  0.48890  0.06300  0.48540  1.0000 0.1201316263
H   H102      1.0  0.01110  0.56300  0.01460  1.0000 0.1201316263
H   H103      1.0  0.01110  0.93700  0.98540  1.0000 0.1201316263
H   H104      1.0  0.48890  0.43700  0.51460  1.0000 0.1201316263
H   H105      1.0  0.63440  0.06570  0.48640  1.0000 0.1083642225
H   H106      1.0  0.86560  0.56570  0.01360  1.0000 0.1083642225
H   H107      1.0  0.86560  0.93430  0.98640  1.0000 0.1083642225
H   H108      1.0  0.63440  0.43430  0.51360  1.0000 0.1083642225
H   H109      1.0  0.09260  0.28030  0.42710  1.0000 0.1268270656
H   H110      1.0  0.40740  0.78030  0.07290  1.0000 0.1268270656
H   H111      1.0  0.40740  0.71970  0.92710  1.0000 0.1268270656
H   H112      1.0  0.09260  0.21970  0.57290  1.0000 0.1268270656
H   H113      1.0  0.10060  0.05930  0.47780  1.0000 0.1389052797
H   H114      1.0  0.39940  0.55930  0.02220  1.0000 0.1389052797
H   H115      1.0  0.39940  0.94070  0.97780  1.0000 0.1389052797
H   H116      1.0  0.10060  0.44070  0.52220  1.0000 0.1389052797
H   H117      1.0  0.72800  0.83730  0.79130  1.0000 0.1201316263
H   H118      1.0  0.77200  0.33730  0.70870  1.0000 0.1201316263
H   H119      1.0  0.77200  0.16270  0.29130  1.0000 0.1201316263
H   H120      1.0  0.72800  0.66270  0.20870  1.0000 0.1201316263
H   H121      1.0  0.22250  0.11980  0.51490  1.0000 0.1268270656
H   H122      1.0  0.27750  0.61980  0.98510  1.0000 0.1268270656
H   H123      1.0  0.27750  0.88020  0.01490  1.0000 0.1268270656
H   H124      1.0  0.22250  0.38020  0.48510  1.0000 0.1268270656
H   H125      1.0  0.77570  0.15020  0.70370  1.0000 0.1083642225
H   H126      1.0  0.72430  0.65020  0.79630  1.0000 0.1083642225
H   H127      1.0  0.72430  0.84980  0.20370  1.0000 0.1083642225
H   H128      1.0  0.77570  0.34980  0.29630  1.0000 0.1083642225
H   H129      1.0  0.36600  0.12050  0.51490  1.0000 0.1201316263
H   H130      1.0  0.13400  0.62050  0.98510  1.0000 0.1201316263
H   H131      1.0  0.13400  0.87950  0.01490  1.0000 0.1201316263
H   H132      1.0  0.36600  0.37950  0.48510  1.0000 0.1201316263
H   H133      1.0  0.72190  0.05790  0.84040  1.0000 0.1201316263
H   H134      1.0  0.77810  0.55790  0.65960  1.0000 0.1201316263
H   H135      1.0  0.77810  0.94210  0.34040  1.0000 0.1201316263
H   H136      1.0  0.72190  0.44210  0.15960  1.0000 0.1201316263
H   H137      1.0  0.73750  0.93210  0.65430  1.0000 0.0924788549
H   H138      1.0  0.76250  0.43210  0.84570  1.0000 0.0924788549
H   H139      1.0  0.76250  0.06790  0.15430  1.0000 0.0924788549
H   H140      1.0  0.73750  0.56790  0.34570  1.0000 0.0924788549
H   H141      1.0  0.74430  0.88720  0.71800  1.0000 0.1003171451
H   H142      1.0  0.75570  0.38720  0.78200  1.0000 0.1003171451
H   H143      1.0  0.75570  0.11280  0.21800  1.0000 0.1003171451
H   H144      1.0  0.74430  0.61280  0.28200  1.0000 0.1003171451
H   H145      1.0  0.75490  0.97930  0.58010  1.0000 0.1003171451
H   H146      1.0  0.74510  0.47930  0.91990  1.0000 0.1003171451
H   H147      1.0  0.74510  0.02070  0.08010  1.0000 0.1003171451
H   H148      1.0  0.75490  0.52070  0.41990  1.0000 0.1003171451
H   H149      1.0  0.74360  0.10930  0.76730  1.0000 0.1003171451
H   H150      1.0  0.75640  0.60930  0.73270  1.0000 0.1003171451
H   H151      1.0  0.75640  0.89070  0.26730  1.0000 0.1003171451
H   H152      1.0  0.74360  0.39070  0.23270  1.0000 0.1003171451
H   H153      1.0  0.15450  0.22410  0.36670  1.0000 0.1268270656
H   H154      1.0  0.34550  0.72410  0.13330  1.0000 0.1268270656
H   H155      1.0  0.34550  0.77590  0.86670  1.0000 0.1268270656
H   H156      1.0  0.15450  0.27590  0.63330  1.0000 0.1268270656
H   H157      1.0  0.42720  0.22300  0.36500  1.0000 0.1268270656
H   H158      1.0  0.07280  0.72300  0.13500  1.0000 0.1268270656
H   H159      1.0  0.07280  0.77700  0.86500  1.0000 0.1268270656
H   H160      1.0  0.42720  0.27700  0.63500  1.0000 0.1268270656
C   C1        1.0  0.21740  0.85720  0.36570  1.0000 -0.1021423746
C   C2        1.0  0.28260  0.35720  0.13430  1.0000 -0.1021423746
C   C3        1.0  0.28260  0.14280  0.86570  1.0000 -0.1021423746
C   C4        1.0  0.21740  0.64280  0.63430  1.0000 -0.1021423746
C   C5        1.0  0.21040  0.87740  0.45099  1.0000 0.5402688443
C   C6        1.0  0.28960  0.37740  0.04901  1.0000 0.5402688443
C   C7        1.0  0.28960  0.12260  0.95099  1.0000 0.5402688443
C   C8        1.0  0.21040  0.62260  0.54901  1.0000 0.5402688443
C   C9        1.0  0.52490  0.83000  0.54620  1.0000 0.1083642225
C   C10       1.0  0.97510  0.33000  0.95380  1.0000 0.1083642225
C   C11       1.0  0.97510  0.17000  0.04620  1.0000 0.1083642225
C   C12       1.0  0.52490  0.67000  0.45380  1.0000 0.1083642225
C   C13       1.0  0.88620  0.82900  0.54740  1.0000 0.1083642225
C   C14       1.0  0.61380  0.32900  0.95260  1.0000 0.1083642225
C   C15       1.0  0.61380  0.17100  0.04740  1.0000 0.1083642225
C   C16       1.0  0.88620  0.67100  0.45260  1.0000 0.1083642225
C   C17       1.0  0.28700  0.09090  0.12850  1.0000 0.5330184757
C   C18       1.0  0.21300  0.59090  0.37150  1.0000 0.5330184757
C   C19       1.0  0.21300  0.90910  0.62850  1.0000 0.5330184757
C   C20       1.0  0.28700  0.40910  0.87150  1.0000 0.5330184757
C   C21       1.0  0.24270  0.96380  0.31310  1.0000 0.1003171451
C   C22       1.0  0.25730  0.46380  0.18690  1.0000 0.1003171451
C   C23       1.0  0.25730  0.03620  0.81310  1.0000 0.1003171451
C   C24       1.0  0.24270  0.53620  0.68690  1.0000 0.1003171451
C   C25       1.0  0.39220  0.77130  0.56130  1.0000 0.0738739994
C   C26       1.0  0.10780  0.27130  0.93870  1.0000 0.0812991097
C   C27       1.0  0.10780  0.22870  0.06130  1.0000 0.0738739994
C   C28       1.0  0.39220  0.72870  0.43870  1.0000 0.0738739994
C   C29       1.0  0.61590  0.82800  0.54800  1.0000 0.0106572568
C   C30       1.0  0.88410  0.32800  0.95200  1.0000 0.0106572568
C   C31       1.0  0.88410  0.17200  0.04800  1.0000 0.0106572568
C   C32       1.0  0.61590  0.67200  0.45200  1.0000 0.0106572568
C   C33       1.0  0.79230  0.82790  0.54790  1.0000 0.0200729642
C   C34       1.0  0.70770  0.32790  0.95210  1.0000 0.0200729642
C   C35       1.0  0.70770  0.17210  0.04790  1.0000 0.0200729642
C   C36       1.0  0.79230  0.67210  0.45210  1.0000 0.0200729642
C   C37       1.0  0.01810  0.76890  0.56010  1.0000 0.0738739994
C   C38       1.0  0.48190  0.26890  0.93990  1.0000 0.0738739994
C   C39       1.0  0.48190  0.23110  0.06010  1.0000 0.0738739994
C   C40       1.0  0.01810  0.73110  0.43990  1.0000 0.0738739994
C   C41       1.0  0.66160  0.79650  0.58500  1.0000 -0.0300042709
C   C42       1.0  0.83840  0.29650  0.91500  1.0000 -0.0300042709
C   C43       1.0  0.83840  0.20350  0.08500  1.0000 -0.0300042709
C   C44       1.0  0.66160  0.70350  0.41500  1.0000 -0.0300042709
C   C45       1.0  0.25470  0.99610  0.26530  1.0000 0.0812991097
C   C46       1.0  0.24530  0.49610  0.23470  1.0000 0.0812991097
C   C47       1.0  0.24530  0.00390  0.76530  1.0000 0.0812991097
C   C48       1.0  0.25470  0.50390  0.73470  1.0000 0.0812991097
C   C49       1.0  0.27550  0.05660  0.17640  1.0000 -0.0028610624
C   C50       1.0  0.22450  0.55660  0.32360  1.0000 -0.0028610624
C   C51       1.0  0.22450  0.94340  0.67640  1.0000 -0.0028610624
C   C52       1.0  0.27550  0.44340  0.82360  1.0000 -0.0028610624
C   C53       1.0  0.74870  0.79760  0.58530  1.0000 -0.0445378345
C   C54       1.0  0.75130  0.29760  0.91470  1.0000 -0.0445378345
C   C55       1.0  0.75130  0.20240  0.08530  1.0000 -0.0454338693
C   C56       1.0  0.74870  0.70240  0.41470  1.0000 -0.0445378345
C   C57       1.0  0.01370  0.89370  0.52980  1.0000 0.0738739994
C   C58       1.0  0.48630  0.39370  0.97020  1.0000 0.0738739994
C   C59       1.0  0.48630  0.10630  0.02980  1.0000 0.0738739994
C   C60       1.0  0.01370  0.60630  0.47020  1.0000 0.0738739994
C   C61       1.0  0.22190  0.90620  0.40252  1.0000 -0.0300042709
C   C62       1.0  0.27810  0.40620  0.09748  1.0000 -0.0300042709
C   C63       1.0  0.27810  0.09380  0.90252  1.0000 -0.0300042709
C   C64       1.0  0.22190  0.59380  0.59748  1.0000 -0.0300042709
C   C65       1.0  0.47780  0.76640  0.56450  1.0000 -0.223044438
C   C66       1.0  0.02220  0.26640  0.93550  1.0000 -0.223044438
C   C67       1.0  0.02220  0.23360  0.06450  1.0000 -0.223044438
C   C68       1.0  0.47780  0.73360  0.43550  1.0000 -0.223044438
C   C69       1.0  0.48220  0.89310  0.52710  1.0000 -0.223044438
C   C70       1.0  0.01780  0.39310  0.97290  1.0000 -0.223044438
C   C71       1.0  0.01780  0.10690  0.02710  1.0000 -0.223044438
C   C72       1.0  0.48220  0.60690  0.47290  1.0000 -0.223044438
C   C73       1.0  0.39440  0.89090  0.52680  1.0000 0.1003171451
C   C74       1.0  0.10560  0.39090  0.97320  1.0000 0.1003171451
C   C75       1.0  0.10560  0.10910  0.02680  1.0000 0.1003171451
C   C76       1.0  0.39440  0.60910  0.47320  1.0000 0.1003171451
C   C77       1.0  0.93380  0.76600  0.56170  1.0000 -0.2128174258
C   C78       1.0  0.56620  0.26600  0.93830  1.0000 -0.2128174258
C   C79       1.0  0.56620  0.23400  0.06170  1.0000 -0.2128174258
C   C80       1.0  0.93380  0.73400  0.43830  1.0000 -0.2128174258
C   C81       1.0  0.92880  0.89490  0.53170  1.0000 -0.2000658825
C   C82       1.0  0.57120  0.39490  0.96830  1.0000 -0.2000658825
C   C83       1.0  0.57120  0.10510  0.03170  1.0000 -0.2000658825
C   C84       1.0  0.92880  0.60510  0.46830  1.0000 -0.2000658825
C   C85       1.0  0.26940  0.10710  0.21330  1.0000 -0.1109073685
C   C86       1.0  0.23060  0.60710  0.28670  1.0000 -0.1109073685
C   C87       1.0  0.23060  0.89290  0.71330  1.0000 -0.1109073685
C   C88       1.0  0.26940  0.39290  0.78670  1.0000 -0.1109073685
C   C89       1.0  0.74840  0.85910  0.51040  1.0000 -0.1284812113
C   C90       1.0  0.75160  0.35910  0.98960  1.0000 -0.1284812113
C   C91       1.0  0.75160  0.14090  0.01040  1.0000 -0.1284812113
C   C92       1.0  0.74840  0.64090  0.48960  1.0000 -0.1284812113
C   C93       1.0  0.22780  0.88560  0.32120  1.0000 -0.1425853653
C   C94       1.0  0.27220  0.38560  0.17880  1.0000 -0.1425853653
C   C95       1.0  0.27220  0.11440  0.82120  1.0000 -0.1425853653
C   C96       1.0  0.22780  0.61440  0.67880  1.0000 -0.1425853653
C   C97       1.0  0.66270  0.85870  0.51060  1.0000 -0.151633899
C   C98       1.0  0.83730  0.35870  0.98940  1.0000 -0.1425853653
C   C99       1.0  0.83730  0.14130  0.01060  1.0000 -0.1425853653
C   C100      1.0  0.66270  0.64130  0.48940  1.0000 -0.1425853653
C   C101      1.0  0.27220  0.97760  0.18440  1.0000 -0.1109073685
C   C102      1.0  0.22780  0.47760  0.31560  1.0000 -0.1109073685
C   C103      1.0  0.22780  0.02240  0.68440  1.0000 -0.1109073685
C   C104      1.0  0.27220  0.52240  0.81560  1.0000 -0.1109073685
C   C105      1.0  0.25010  0.01360  0.35040  1.0000 -0.1798876819
C   C106      1.0  0.24990  0.51360  0.14960  1.0000 -0.1798876819
C   C107      1.0  0.24990  0.98640  0.85040  1.0000 -0.1798876819
C   C108      1.0  0.25010  0.48640  0.64960  1.0000 -0.1798876819
C   C109      1.0  0.25940  0.07700  0.25720  1.0000 -0.1639099807
C   C110      1.0  0.24060  0.57700  0.24280  1.0000 -0.1639099807
C   C111      1.0  0.24060  0.92300  0.75720  1.0000 -0.1639099807
C   C112      1.0  0.25940  0.42300  0.74280  1.0000 -0.1639099807
C   C113      1.0  0.23980  0.98540  0.39500  1.0000 -0.1284812113
C   C114      1.0  0.26020  0.48540  0.10500  1.0000 -0.1284812113
C   C115      1.0  0.26020  0.01460  0.89500  1.0000 -0.1284812113
C   C116      1.0  0.23980  0.51460  0.60500  1.0000 -0.1284812113
C   C117      1.0  0.26040  0.94640  0.22850  1.0000 -0.151633899
C   C118      1.0  0.23960  0.44640  0.27150  1.0000 -0.151633899
C   C119      1.0  0.23960  0.05360  0.72850  1.0000 -0.151633899
C   C120      1.0  0.26040  0.55360  0.77150  1.0000 -0.151633899
C   C121      1.0  0.78740  0.77040  0.63020  1.0000 0.002941626
C   C122      1.0  0.71260  0.27040  0.86980  1.0000 0.002941626
C   C123      1.0  0.71260  0.22960  0.13020  1.0000 0.0106572568
C   C124      1.0  0.78740  0.72960  0.36980  1.0000 0.002941626
C   C125      1.0  0.63050  0.76940  0.63090  1.0000 0.0200729642
C   C126      1.0  0.86950  0.26940  0.86910  1.0000 0.0106572568
C   C127      1.0  0.86950  0.23060  0.13090  1.0000 0.0106572568
C   C128      1.0  0.63050  0.73060  0.36910  1.0000 0.0106572568
C   C129      1.0  0.78260  0.14280  0.63430  1.0000 -0.1021423746
C   C130      1.0  0.71740  0.64280  0.86570  1.0000 -0.1021423746
C   C131      1.0  0.71740  0.85720  0.13430  1.0000 -0.1021423746
C   C132      1.0  0.78260  0.35720  0.36570  1.0000 -0.1021423746
C   C133      1.0  0.78960  0.12260  0.54901  1.0000 0.5402688443
C   C134      1.0  0.71040  0.62260  0.95099  1.0000 0.5402688443
C   C135      1.0  0.71040  0.87740  0.04901  1.0000 0.5402688443
C   C136      1.0  0.78960  0.37740  0.45099  1.0000 0.5402688443
C   C137      1.0  0.47510  0.17000  0.45380  1.0000 0.1083642225
C   C138      1.0  0.02490  0.67000  0.04620  1.0000 0.1083642225
C   C139      1.0  0.02490  0.83000  0.95380  1.0000 0.1083642225
C   C140      1.0  0.47510  0.33000  0.54620  1.0000 0.1083642225
C   C141      1.0  0.11380  0.17100  0.45260  1.0000 0.1083642225
C   C142      1.0  0.38620  0.67100  0.04740  1.0000 0.1083642225
C   C143      1.0  0.38620  0.82900  0.95260  1.0000 0.1083642225
C   C144      1.0  0.11380  0.32900  0.54740  1.0000 0.1083642225
C   C145      1.0  0.71300  0.90910  0.87150  1.0000 0.5330184757
C   C146      1.0  0.78700  0.40910  0.62850  1.0000 0.5330184757
C   C147      1.0  0.78700  0.09090  0.37150  1.0000 0.5330184757
C   C148      1.0  0.71300  0.59090  0.12850  1.0000 0.5330184757
C   C149      1.0  0.75730  0.03620  0.68690  1.0000 0.1003171451
C   C150      1.0  0.74270  0.53620  0.81310  1.0000 0.1003171451
C   C151      1.0  0.74270  0.96380  0.18690  1.0000 0.1003171451
C   C152      1.0  0.75730  0.46380  0.31310  1.0000 0.1003171451
C   C153      1.0  0.60780  0.22870  0.43870  1.0000 0.0738739994
C   C154      1.0  0.89220  0.72870  0.06130  1.0000 0.0738739994
C   C155      1.0  0.89220  0.77130  0.93870  1.0000 0.0738739994
C   C156      1.0  0.60780  0.27130  0.56130  1.0000 0.0738739994
C   C157      1.0  0.38410  0.17200  0.45200  1.0000 0.0106572568
C   C158      1.0  0.11590  0.67200  0.04800  1.0000 0.0106572568
C   C159      1.0  0.11590  0.82800  0.95200  1.0000 0.0106572568
C   C160      1.0  0.38410  0.32800  0.54800  1.0000 0.0106572568
C   C161      1.0  0.20770  0.17210  0.45210  1.0000 0.0200729642
C   C162      1.0  0.29230  0.67210  0.04790  1.0000 0.0200729642
C   C163      1.0  0.29230  0.82790  0.95210  1.0000 0.0200729642
C   C164      1.0  0.20770  0.32790  0.54790  1.0000 0.0200729642
C   C165      1.0  0.98190  0.23110  0.43990  1.0000 0.0738739994
C   C166      1.0  0.51810  0.73110  0.06010  1.0000 0.0738739994
C   C167      1.0  0.51810  0.76890  0.93990  1.0000 0.0738739994
C   C168      1.0  0.98190  0.26890  0.56010  1.0000 0.0738739994
C   C169      1.0  0.33840  0.20350  0.41500  1.0000 -0.0300042709
C   C170      1.0  0.16160  0.70350  0.08500  1.0000 -0.0300042709
C   C171      1.0  0.16160  0.79650  0.91500  1.0000 -0.0300042709
C   C172      1.0  0.33840  0.29650  0.58500  1.0000 -0.0300042709
C   C173      1.0  0.74530  0.00390  0.73470  1.0000 0.0812991097
C   C174      1.0  0.75470  0.50390  0.76530  1.0000 0.0812991097
C   C175      1.0  0.75470  0.99610  0.23470  1.0000 0.0812991097
C   C176      1.0  0.74530  0.49610  0.26530  1.0000 0.0812991097
C   C177      1.0  0.72450  0.94340  0.82360  1.0000 -0.0028610624
C   C178      1.0  0.77550  0.44340  0.67640  1.0000 -0.0028610624
C   C179      1.0  0.77550  0.05660  0.32360  1.0000 -0.0028610624
C   C180      1.0  0.72450  0.55660  0.17640  1.0000 -0.0028610624
C   C181      1.0  0.25130  0.20240  0.41470  1.0000 -0.0445378345
C   C182      1.0  0.24870  0.70240  0.08530  1.0000 -0.0454338693
C   C183      1.0  0.24870  0.79760  0.91470  1.0000 -0.0445378345
C   C184      1.0  0.25130  0.29760  0.58530  1.0000 -0.0445378345
C   C185      1.0  0.98630  0.10630  0.47020  1.0000 0.0738739994
C   C186      1.0  0.51370  0.60630  0.02980  1.0000 0.0738739994
C   C187      1.0  0.51370  0.89370  0.97020  1.0000 0.0738739994
C   C188      1.0  0.98630  0.39370  0.52980  1.0000 0.0738739994
C   C189      1.0  0.77810  0.09380  0.59748  1.0000 -0.0300042709
C   C190      1.0  0.72190  0.59380  0.90252  1.0000 -0.0300042709
C   C191      1.0  0.72190  0.90620  0.09748  1.0000 -0.0300042709
C   C192      1.0  0.77810  0.40620  0.40252  1.0000 -0.0300042709
C   C193      1.0  0.52220  0.23360  0.43550  1.0000 -0.223044438
C   C194      1.0  0.97780  0.73360  0.06450  1.0000 -0.223044438
C   C195      1.0  0.97780  0.76640  0.93550  1.0000 -0.223044438
C   C196      1.0  0.52220  0.26640  0.56450  1.0000 -0.223044438
C   C197      1.0  0.51780  0.10690  0.47290  1.0000 -0.223044438
C   C198      1.0  0.98220  0.60690  0.02710  1.0000 -0.223044438
C   C199      1.0  0.98220  0.89310  0.97290  1.0000 -0.223044438
C   C200      1.0  0.51780  0.39310  0.52710  1.0000 -0.223044438
C   C201      1.0  0.60560  0.10910  0.47320  1.0000 0.1003171451
C   C202      1.0  0.89440  0.60910  0.02680  1.0000 0.1003171451
C   C203      1.0  0.89440  0.89090  0.97320  1.0000 0.1003171451
C   C204      1.0  0.60560  0.39090  0.52680  1.0000 0.1003171451
C   C205      1.0  0.06620  0.23400  0.43830  1.0000 -0.2128174258
C   C206      1.0  0.43380  0.73400  0.06170  1.0000 -0.2128174258
C   C207      1.0  0.43380  0.76600  0.93830  1.0000 -0.2128174258
C   C208      1.0  0.06620  0.26600  0.56170  1.0000 -0.2128174258
C   C209      1.0  0.07120  0.10510  0.46830  1.0000 -0.2000658825
C   C210      1.0  0.42880  0.60510  0.03170  1.0000 -0.2000658825
C   C211      1.0  0.42880  0.89490  0.96830  1.0000 -0.2000658825
C   C212      1.0  0.07120  0.39490  0.53170  1.0000 -0.2000658825
C   C213      1.0  0.73060  0.89290  0.78670  1.0000 -0.1109073685
C   C214      1.0  0.76940  0.39290  0.71330  1.0000 -0.1109073685
C   C215      1.0  0.76940  0.10710  0.28670  1.0000 -0.1109073685
C   C216      1.0  0.73060  0.60710  0.21330  1.0000 -0.1109073685
C   C217      1.0  0.25160  0.14090  0.48960  1.0000 -0.1284812113
C   C218      1.0  0.24840  0.64090  0.01040  1.0000 -0.1284812113
C   C219      1.0  0.24840  0.85910  0.98960  1.0000 -0.1284812113
C   C220      1.0  0.25160  0.35910  0.51040  1.0000 -0.1284812113
C   C221      1.0  0.77220  0.11440  0.67880  1.0000 -0.1425853653
C   C222      1.0  0.72780  0.61440  0.82120  1.0000 -0.1425853653
C   C223      1.0  0.72780  0.88560  0.17880  1.0000 -0.1425853653
C   C224      1.0  0.77220  0.38560  0.32120  1.0000 -0.1425853653
C   C225      1.0  0.33730  0.14130  0.48940  1.0000 -0.1425853653
C   C226      1.0  0.16270  0.64130  0.01060  1.0000 -0.1425853653
C   C227      1.0  0.16270  0.85870  0.98940  1.0000 -0.151633899
C   C228      1.0  0.33730  0.35870  0.51060  1.0000 -0.1425853653
C   C229      1.0  0.72780  0.02240  0.81560  1.0000 -0.1109073685
C   C230      1.0  0.77220  0.52240  0.68440  1.0000 -0.1109073685
C   C231      1.0  0.77220  0.97760  0.31560  1.0000 -0.1109073685
C   C232      1.0  0.72780  0.47760  0.18440  1.0000 -0.1109073685
C   C233      1.0  0.74990  0.98640  0.64960  1.0000 -0.1798876819
C   C234      1.0  0.75010  0.48640  0.85040  1.0000 -0.1798876819
C   C235      1.0  0.75010  0.01360  0.14960  1.0000 -0.1798876819
C   C236      1.0  0.74990  0.51360  0.35040  1.0000 -0.1798876819
C   C237      1.0  0.74060  0.92300  0.74280  1.0000 -0.1639099807
C   C238      1.0  0.75940  0.42300  0.75720  1.0000 -0.1639099807
C   C239      1.0  0.75940  0.07700  0.24280  1.0000 -0.1639099807
C   C240      1.0  0.74060  0.57700  0.25720  1.0000 -0.1639099807
C   C241      1.0  0.76020  0.01460  0.60500  1.0000 -0.1284812113
C   C242      1.0  0.73980  0.51460  0.89500  1.0000 -0.1284812113
C   C243      1.0  0.73980  0.98540  0.10500  1.0000 -0.1284812113
C   C244      1.0  0.76020  0.48540  0.39500  1.0000 -0.1284812113
C   C245      1.0  0.73960  0.05360  0.77150  1.0000 -0.151633899
C   C246      1.0  0.76040  0.55360  0.72850  1.0000 -0.151633899
C   C247      1.0  0.76040  0.94640  0.27150  1.0000 -0.151633899
C   C248      1.0  0.73960  0.44640  0.22850  1.0000 -0.151633899
C   C249      1.0  0.21260  0.22960  0.36980  1.0000 0.0106572568
C   C250      1.0  0.28740  0.72960  0.13020  1.0000 0.0106572568
C   C251      1.0  0.28740  0.77040  0.86980  1.0000 0.002941626
C   C252      1.0  0.21260  0.27040  0.63020  1.0000 0.0106572568
C   C253      1.0  0.36950  0.23060  0.36910  1.0000 0.0106572568
C   C254      1.0  0.13050  0.73060  0.13090  1.0000 0.0200729642
C   C255      1.0  0.13050  0.76940  0.86910  1.0000 0.0106572568
C   C256      1.0  0.36950  0.26940  0.63090  1.0000 0.0106572568
N   N1        1.0  0.35150  0.83310  0.54328  1.0000 -0.2128174258
N   N2        1.0  0.14850  0.33310  0.95672  1.0000 -0.2128174258
N   N3        1.0  0.14850  0.16690  0.04328  1.0000 -0.2128174258
N   N4        1.0  0.35150  0.66690  0.45672  1.0000 -0.2128174258
N   N5        1.0  0.06000  0.83300  0.54494  1.0000 -0.2128174258
N   N6        1.0  0.44000  0.33300  0.95506  1.0000 -0.2128174258
N   N7        1.0  0.44000  0.16700  0.04494  1.0000 -0.2128174258
N   N8        1.0  0.06000  0.66700  0.45506  1.0000 -0.2128174258
N   N9        1.0  0.64850  0.16690  0.45672  1.0000 -0.2128174258
N   N10       1.0  0.85150  0.66690  0.04328  1.0000 -0.2128174258
N   N11       1.0  0.85150  0.83310  0.95672  1.0000 -0.2128174258
N   N12       1.0  0.64850  0.33310  0.54328  1.0000 -0.2128174258
N   N13       1.0  0.94000  0.16700  0.45506  1.0000 -0.2128174258
N   N14       1.0  0.56000  0.66700  0.04494  1.0000 -0.2128174258
N   N15       1.0  0.56000  0.83300  0.95506  1.0000 -0.2128174258
N   N16       1.0  0.94000  0.33300  0.54494  1.0000 -0.2128174258
O   O1        1.0  0.20440  0.80400  0.45924  1.0000 -0.571931535
O   O2        1.0  0.29560  0.30400  0.04076  1.0000 -0.571931535
O   O3        1.0  0.29560  0.19600  0.95924  1.0000 -0.571931535
O   O4        1.0  0.20440  0.69600  0.54076  1.0000 -0.571931535
O   O5        1.0  0.29140  0.16420  0.12436  1.0000 -0.5349275411
O   O6        1.0  0.20860  0.66420  0.37564  1.0000 -0.537574687
O   O7        1.0  0.20860  0.83580  0.62436  1.0000 -0.537574687
O   O8        1.0  0.29140  0.33580  0.87564  1.0000 -0.537574687
O   O9        1.0  0.20750  0.92780  0.48276  1.0000 -0.537574687
O   O10       1.0  0.29250  0.42780  0.01724  1.0000 -0.537574687
O   O11       1.0  0.29250  0.07220  0.98276  1.0000 -0.537574687
O   O12       1.0  0.20750  0.57220  0.51724  1.0000 -0.537574687
O   O13       1.0  0.28790  0.04660  0.09535  1.0000 -0.537574687
O   O14       1.0  0.21210  0.54660  0.40465  1.0000 -0.537574687
O   O15       1.0  0.21210  0.95340  0.59535  1.0000 -0.537574687
O   O16       1.0  0.28790  0.45340  0.90465  1.0000 -0.537574687
O   O17       1.0  0.74840  0.74130  0.66340  1.0000 -0.0300042709
O   O18       1.0  0.75160  0.24130  0.83660  1.0000 -0.0300042709
O   O19       1.0  0.75160  0.25870  0.16340  1.0000 -0.0300042709
O   O20       1.0  0.74840  0.75870  0.33660  1.0000 -0.0300042709
O   O21       1.0  0.66440  0.74000  0.66400  1.0000 -0.0300042709
O   O22       1.0  0.83560  0.24000  0.83600  1.0000 -0.0300042709
O   O23       1.0  0.83560  0.26000  0.16400  1.0000 -0.0300042709
O   O24       1.0  0.66440  0.76000  0.33600  1.0000 -0.0300042709
O   O25       1.0  0.79560  0.19600  0.54076  1.0000 -0.571931535
O   O26       1.0  0.70440  0.69600  0.95924  1.0000 -0.571931535
O   O27       1.0  0.70440  0.80400  0.04076  1.0000 -0.571931535
O   O28       1.0  0.79560  0.30400  0.45924  1.0000 -0.571931535
O   O29       1.0  0.70860  0.83580  0.87564  1.0000 -0.537574687
O   O30       1.0  0.79140  0.33580  0.62436  1.0000 -0.537574687
O   O31       1.0  0.79140  0.16420  0.37564  1.0000 -0.537574687
O   O32       1.0  0.70860  0.66420  0.12436  1.0000 -0.537574687
O   O33       1.0  0.79250  0.07220  0.51724  1.0000 -0.537574687
O   O34       1.0  0.70750  0.57220  0.98276  1.0000 -0.537574687
O   O35       1.0  0.70750  0.92780  0.01724  1.0000 -0.537574687
O   O36       1.0  0.79250  0.42780  0.48276  1.0000 -0.537574687
O   O37       1.0  0.71210  0.95340  0.90465  1.0000 -0.537574687
O   O38       1.0  0.78790  0.45340  0.59535  1.0000 -0.537574687
O   O39       1.0  0.78790  0.04660  0.40465  1.0000 -0.537574687
O   O40       1.0  0.71210  0.54660  0.09535  1.0000 -0.537574687
O   O41       1.0  0.25160  0.25870  0.33660  1.0000 -0.0300042709
O   O42       1.0  0.24840  0.75870  0.16340  1.0000 -0.0300042709
O   O43       1.0  0.24840  0.74130  0.83660  1.0000 -0.0300042709
O   O44       1.0  0.25160  0.24130  0.66340  1.0000 -0.0300042709
O   O45       1.0  0.33560  0.26000  0.33600  1.0000 -0.0300042709
O   O46       1.0  0.16440  0.76000  0.16400  1.0000 -0.0300042709
O   O47       1.0  0.16440  0.74000  0.83600  1.0000 -0.0300042709
O   O48       1.0  0.33560  0.24000  0.66400  1.0000 -0.0300042709
