# DDEC6 charges by PACMAN v1.1 (https://github.com/mtap-research/PACMAN-charge/)
data_0000[Zn][nan]2[ASR]2
_chemical_formula_sum              "Zn8 H60 C96 N4 O32"
_cell_length_a       8.0585
_cell_length_b       18.9733
_cell_length_c       20.2539
_cell_angle_alpha    90
_cell_angle_beta     101.834
_cell_angle_gamma    90

_symmetry_space_group_name_H-M    "P 1"
_symmetry_Int_Tables_number       1

loop_
  _symmetry_equiv_pos_as_xyz
  'x, y, z'

loop_
  _atom_site_type_symbol
  _atom_site_label
  _atom_site_symmetry_multiplicity
  _atom_site_fract_x
  _atom_site_fract_y
  _atom_site_fract_z
  _atom_site_occupancy
  _atom_site_charge
Zn  Zn1       1.0  0.99824  0.19651  0.01159  1.0000 0.920810249
Zn  Zn2       1.0  0.60091  0.28638  0.98061  1.0000 1.0140414055
Zn  Zn3       1.0  0.00176  0.69651  0.48841  1.0000 0.920810249
Zn  Zn4       1.0  0.39909  0.78638  0.51939  1.0000 1.0140414055
Zn  Zn5       1.0  0.00176  0.80349  0.98841  1.0000 0.920810249
Zn  Zn6       1.0  0.39909  0.71362  0.01939  1.0000 1.0159031566
Zn  Zn7       1.0  0.99824  0.30349  0.51159  1.0000 0.920810249
Zn  Zn8       1.0  0.60091  0.21362  0.48061  1.0000 1.0159031566
H   H1        1.0  0.77880  0.00140  0.96320  1.0000 0.1291640605
H   H2        1.0  0.36070  0.89680  0.87480  1.0000 0.1182959585
H   H3        1.0  0.34430  0.10660  0.89760  1.0000 0.1182959585
H   H4        1.0  0.09890  0.90180  0.87720  1.0000 0.1182959585
H   H5        1.0  0.93470  0.94370  0.84540  1.0000 0.1182959585
H   H6        1.0  0.92180  0.81930  0.78860  1.0000 0.1182959585
H   H7        1.0  0.91820  0.76540  0.68600  1.0000 0.1105589684
H   H8        1.0  0.18810  0.92640  0.63410  1.0000 0.1182959585
H   H9        1.0  0.18600  0.98100  0.73570  1.0000 0.1105589684
H   H10       1.0  0.93760  0.04990  0.87580  1.0000 0.1182959585
H   H11       1.0  0.10240  0.09530  0.89640  1.0000 0.1291640605
H   H12       1.0  0.23310  0.11310  0.78070  1.0000 0.1182959585
H   H13       1.0  0.16840  0.17700  0.68060  1.0000 0.1291640605
H   H14       1.0  0.67790  0.16710  0.68900  1.0000 0.1291640605
H   H15       1.0  0.74240  0.10860  0.79030  1.0000 0.1291640605
H   H16       1.0  0.22120  0.50140  0.53680  1.0000 0.1291640605
H   H17       1.0  0.63930  0.39680  0.62520  1.0000 0.1182959585
H   H18       1.0  0.65570  0.60660  0.60240  1.0000 0.1182959585
H   H19       1.0  0.90110  0.40180  0.62280  1.0000 0.1182959585
H   H20       1.0  0.06530  0.44370  0.65460  1.0000 0.1182959585
H   H21       1.0  0.07820  0.31930  0.71140  1.0000 0.1182959585
H   H22       1.0  0.08180  0.26540  0.81400  1.0000 0.1105589684
H   H23       1.0  0.81190  0.42640  0.86590  1.0000 0.1182959585
H   H24       1.0  0.81400  0.48100  0.76430  1.0000 0.1105589684
H   H25       1.0  0.06240  0.54990  0.62420  1.0000 0.1182959585
H   H26       1.0  0.89760  0.59530  0.60360  1.0000 0.1291640605
H   H27       1.0  0.76690  0.61310  0.71930  1.0000 0.1182959585
H   H28       1.0  0.83160  0.67700  0.81940  1.0000 0.1291640605
H   H29       1.0  0.32210  0.66710  0.81100  1.0000 0.1291640605
H   H30       1.0  0.25760  0.60860  0.70970  1.0000 0.1291640605
H   H31       1.0  0.22120  0.99860  0.03680  1.0000 0.1291640605
H   H32       1.0  0.63930  0.10320  0.12520  1.0000 0.1182959585
H   H33       1.0  0.65570  0.89340  0.10240  1.0000 0.1182959585
H   H34       1.0  0.90110  0.09820  0.12280  1.0000 0.1182959585
H   H35       1.0  0.06530  0.05630  0.15460  1.0000 0.1182959585
H   H36       1.0  0.07820  0.18070  0.21140  1.0000 0.1182959585
H   H37       1.0  0.08180  0.23460  0.31400  1.0000 0.1105589684
H   H38       1.0  0.81190  0.07360  0.36590  1.0000 0.1182959585
H   H39       1.0  0.81400  0.01900  0.26430  1.0000 0.1105589684
H   H40       1.0  0.06240  0.95010  0.12420  1.0000 0.1182959585
H   H41       1.0  0.89760  0.90470  0.10360  1.0000 0.1291640605
H   H42       1.0  0.76690  0.88690  0.21930  1.0000 0.1182959585
H   H43       1.0  0.83160  0.82300  0.31940  1.0000 0.1291640605
H   H44       1.0  0.32210  0.83290  0.31100  1.0000 0.1291640605
H   H45       1.0  0.25760  0.89140  0.20970  1.0000 0.1291640605
H   H46       1.0  0.77880  0.49860  0.46320  1.0000 0.1291640605
H   H47       1.0  0.36070  0.60320  0.37480  1.0000 0.1182959585
H   H48       1.0  0.34430  0.39340  0.39760  1.0000 0.1182959585
H   H49       1.0  0.09890  0.59820  0.37720  1.0000 0.1182959585
H   H50       1.0  0.93470  0.55630  0.34540  1.0000 0.1182959585
H   H51       1.0  0.92180  0.68070  0.28860  1.0000 0.1182959585
H   H52       1.0  0.91820  0.73460  0.18600  1.0000 0.1105589684
H   H53       1.0  0.18810  0.57360  0.13410  1.0000 0.1182959585
H   H54       1.0  0.18600  0.51900  0.23570  1.0000 0.1105589684
H   H55       1.0  0.93760  0.45010  0.37580  1.0000 0.1182959585
H   H56       1.0  0.10240  0.40470  0.39640  1.0000 0.1291640605
H   H57       1.0  0.23310  0.38690  0.28070  1.0000 0.1182959585
H   H58       1.0  0.16840  0.32300  0.18060  1.0000 0.1291640605
H   H59       1.0  0.67790  0.33290  0.18900  1.0000 0.1291640605
H   H60       1.0  0.74240  0.39140  0.29030  1.0000 0.1291640605
C   C1        1.0  0.66310  0.13320  0.95510  1.0000 0.5879675115
C   C2        1.0  0.68000  0.87040  0.92950  1.0000 0.5579301531
C   C3        1.0  0.66480  0.00180  0.94210  1.0000 -0.1395987009
C   C4        1.0  0.58640  0.94050  0.92100  1.0000 -0.0039754279
C   C5        1.0  0.41250  0.93910  0.89070  1.0000 -0.202498838
C   C6        1.0  0.31750  0.00170  0.88440  1.0000 0.1810756291
C   C7        1.0  0.40360  0.06430  0.90390  1.0000 -0.2063049857
C   C8        1.0  0.57770  0.06520  0.93280  1.0000 -0.0273529251
C   C9        1.0  0.05220  0.93610  0.84280  1.0000 -0.1617565674
C   C10       1.0  0.05740  0.90470  0.77350  1.0000 0.1182959585
C   C11       1.0  0.97610  0.84080  0.75760  1.0000 -0.1524114742
C   C12       1.0  0.97430  0.80810  0.69590  1.0000 -0.0902408116
C   C13       1.0  0.05620  0.83900  0.64900  1.0000 -0.0407878651
C   C14       1.0  0.13470  0.90450  0.66520  1.0000 -0.0965412423
C   C15       1.0  0.13450  0.93730  0.72630  1.0000 -0.1524114742
C   C16       1.0  0.07400  0.80210  0.58580  1.0000 0.6011121537
C   C17       1.0  0.04100  0.06400  0.86200  1.0000 -0.1739605625
C   C18       1.0  0.99450  0.10430  0.79650  1.0000 0.1182959585
C   C19       1.0  0.12090  0.12470  0.76260  1.0000 -0.1617565674
C   C20       1.0  0.08250  0.16230  0.70190  1.0000 -0.0965412423
C   C21       1.0  0.91350  0.17750  0.67420  1.0000 -0.0407878651
C   C22       1.0  0.79070  0.15680  0.70770  1.0000 -0.0902408116
C   C23       1.0  0.82880  0.12120  0.76840  1.0000 -0.1524114742
C   C24       1.0  0.87140  0.21740  0.60810  1.0000 0.6088810827
C   C25       1.0  0.33690  0.63320  0.54490  1.0000 0.5879675115
C   C26       1.0  0.32000  0.37040  0.57050  1.0000 0.5579301531
C   C27       1.0  0.33520  0.50180  0.55790  1.0000 -0.1395987009
C   C28       1.0  0.41360  0.44050  0.57900  1.0000 -0.0039754279
C   C29       1.0  0.58750  0.43910  0.60930  1.0000 -0.202498838
C   C30       1.0  0.68250  0.50170  0.61560  1.0000 0.1810756291
C   C31       1.0  0.59640  0.56430  0.59610  1.0000 -0.2063049857
C   C32       1.0  0.42230  0.56520  0.56720  1.0000 -0.0273529251
C   C33       1.0  0.94780  0.43610  0.65720  1.0000 -0.1617565674
C   C34       1.0  0.94260  0.40470  0.72650  1.0000 0.1182959585
C   C35       1.0  0.02390  0.34080  0.74240  1.0000 -0.1524114742
C   C36       1.0  0.02570  0.30810  0.80410  1.0000 -0.0902408116
C   C37       1.0  0.94380  0.33900  0.85100  1.0000 -0.0407878651
C   C38       1.0  0.86530  0.40450  0.83480  1.0000 -0.0965412423
C   C39       1.0  0.86550  0.43730  0.77370  1.0000 -0.1524114742
C   C40       1.0  0.92600  0.30210  0.91420  1.0000 0.6011121537
C   C41       1.0  0.95900  0.56400  0.63800  1.0000 -0.1739605625
C   C42       1.0  0.00550  0.60430  0.70350  1.0000 0.1182959585
C   C43       1.0  0.87910  0.62470  0.73740  1.0000 -0.1617565674
C   C44       1.0  0.91750  0.66230  0.79810  1.0000 -0.0965412423
C   C45       1.0  0.08650  0.67750  0.82580  1.0000 -0.0407878651
C   C46       1.0  0.20930  0.65680  0.79230  1.0000 -0.0902408116
C   C47       1.0  0.17120  0.62120  0.73160  1.0000 -0.1524114742
C   C48       1.0  0.12860  0.71740  0.89190  1.0000 0.6088810827
C   C49       1.0  0.33690  0.86680  0.04490  1.0000 0.5879675115
C   C50       1.0  0.32000  0.12960  0.07050  1.0000 0.5579301531
C   C51       1.0  0.33520  0.99820  0.05790  1.0000 -0.1395987009
C   C52       1.0  0.41360  0.05950  0.07900  1.0000 -0.0039754279
C   C53       1.0  0.58750  0.06090  0.10930  1.0000 -0.202498838
C   C54       1.0  0.68250  0.99830  0.11560  1.0000 0.1810756291
C   C55       1.0  0.59640  0.93570  0.09610  1.0000 -0.2063049857
C   C56       1.0  0.42230  0.93480  0.06720  1.0000 -0.0273529251
C   C57       1.0  0.94780  0.06390  0.15720  1.0000 -0.1617565674
C   C58       1.0  0.94260  0.09530  0.22650  1.0000 0.1182959585
C   C59       1.0  0.02390  0.15920  0.24240  1.0000 -0.1524114742
C   C60       1.0  0.02570  0.19190  0.30410  1.0000 -0.0902408116
C   C61       1.0  0.94380  0.16100  0.35100  1.0000 -0.0407878651
C   C62       1.0  0.86530  0.09550  0.33480  1.0000 -0.0965412423
C   C63       1.0  0.86550  0.06270  0.27370  1.0000 -0.1524114742
C   C64       1.0  0.92600  0.19790  0.41420  1.0000 0.6011121537
C   C65       1.0  0.95900  0.93600  0.13800  1.0000 -0.1739605625
C   C66       1.0  0.00550  0.89570  0.20350  1.0000 0.1182959585
C   C67       1.0  0.87910  0.87530  0.23740  1.0000 -0.1617565674
C   C68       1.0  0.91750  0.83770  0.29810  1.0000 -0.0965412423
C   C69       1.0  0.08650  0.82250  0.32580  1.0000 -0.0407878651
C   C70       1.0  0.20930  0.84320  0.29230  1.0000 -0.0902408116
C   C71       1.0  0.17120  0.87880  0.23160  1.0000 -0.1524114742
C   C72       1.0  0.12860  0.78260  0.39190  1.0000 0.6088810827
C   C73       1.0  0.66310  0.36680  0.45510  1.0000 0.5879675115
C   C74       1.0  0.68000  0.62960  0.42950  1.0000 0.5579301531
C   C75       1.0  0.66480  0.49820  0.44210  1.0000 -0.1395987009
C   C76       1.0  0.58640  0.55950  0.42100  1.0000 -0.0039754279
C   C77       1.0  0.41250  0.56090  0.39070  1.0000 -0.202498838
C   C78       1.0  0.31750  0.49830  0.38440  1.0000 0.1810756291
C   C79       1.0  0.40360  0.43570  0.40390  1.0000 -0.2063049857
C   C80       1.0  0.57770  0.43480  0.43280  1.0000 -0.0273529251
C   C81       1.0  0.05220  0.56390  0.34280  1.0000 -0.1617565674
C   C82       1.0  0.05740  0.59530  0.27350  1.0000 0.1182959585
C   C83       1.0  0.97610  0.65920  0.25760  1.0000 -0.1524114742
C   C84       1.0  0.97430  0.69190  0.19590  1.0000 -0.0902408116
C   C85       1.0  0.05620  0.66100  0.14900  1.0000 -0.0407878651
C   C86       1.0  0.13470  0.59550  0.16520  1.0000 -0.0965412423
C   C87       1.0  0.13450  0.56270  0.22630  1.0000 -0.1524114742
C   C88       1.0  0.07400  0.69790  0.08580  1.0000 0.6011121537
C   C89       1.0  0.04100  0.43600  0.36200  1.0000 -0.1739605625
C   C90       1.0  0.99450  0.39570  0.29650  1.0000 0.1182959585
C   C91       1.0  0.12090  0.37530  0.26260  1.0000 -0.1617565674
C   C92       1.0  0.08250  0.33770  0.20190  1.0000 -0.0965412423
C   C93       1.0  0.91350  0.32250  0.17420  1.0000 -0.0407878651
C   C94       1.0  0.79070  0.34320  0.20770  1.0000 -0.0902408116
C   C95       1.0  0.82880  0.37880  0.26840  1.0000 -0.1524114742
C   C96       1.0  0.87140  0.28260  0.10810  1.0000 0.6088810827
N   N1        1.0  0.14360  0.00190  0.85840  1.0000 -0.0902408116
N   N2        1.0  0.85640  0.50190  0.64160  1.0000 -0.0902408116
N   N3        1.0  0.85640  0.99810  0.14160  1.0000 -0.0902408116
N   N4        1.0  0.14360  0.49810  0.35840  1.0000 -0.0902408116
O   O1        1.0  0.81720  0.13020  0.98350  1.0000 -0.5609288995
O   O2        1.0  0.57450  0.18800  0.94700  1.0000 -0.5725003217
O   O3        1.0  0.82240  0.87310  0.96970  1.0000 -0.5725003217
O   O4        1.0  0.61720  0.81840  0.89770  1.0000 -0.5326861029
O   O5        1.0  0.96670  0.75250  0.56580  1.0000 -0.5485759561
O   O6        1.0  0.18620  0.82000  0.55600  1.0000 -0.5764186864
O   O7        1.0  0.99120  0.24850  0.58980  1.0000 -0.5396084745
O   O8        1.0  0.72410  0.21390  0.57560  1.0000 -0.5396084745
O   O9        1.0  0.18280  0.63020  0.51650  1.0000 -0.5609288995
O   O10       1.0  0.42550  0.68800  0.55300  1.0000 -0.5725003217
O   O11       1.0  0.17760  0.37310  0.53030  1.0000 -0.5725003217
O   O12       1.0  0.38280  0.31840  0.60230  1.0000 -0.5326861029
O   O13       1.0  0.03330  0.25250  0.93420  1.0000 -0.5485759561
O   O14       1.0  0.81380  0.32000  0.94400  1.0000 -0.5764186864
O   O15       1.0  0.00880  0.74850  0.91020  1.0000 -0.5396084745
O   O16       1.0  0.27590  0.71390  0.92440  1.0000 -0.5396084745
O   O17       1.0  0.18280  0.86980  0.01650  1.0000 -0.5609288995
O   O18       1.0  0.42550  0.81200  0.05300  1.0000 -0.5725003217
O   O19       1.0  0.17760  0.12690  0.03030  1.0000 -0.5725003217
O   O20       1.0  0.38280  0.18160  0.10230  1.0000 -0.5326861029
O   O21       1.0  0.03330  0.24750  0.43420  1.0000 -0.5485759561
O   O22       1.0  0.81380  0.18000  0.44400  1.0000 -0.5764186864
O   O23       1.0  0.00880  0.75150  0.41020  1.0000 -0.5396084745
O   O24       1.0  0.27590  0.78610  0.42440  1.0000 -0.5396084745
O   O25       1.0  0.81720  0.36980  0.48350  1.0000 -0.5609288995
O   O26       1.0  0.57450  0.31200  0.44700  1.0000 -0.5725003217
O   O27       1.0  0.82240  0.62690  0.46970  1.0000 -0.5725003217
O   O28       1.0  0.61720  0.68160  0.39770  1.0000 -0.5326861029
O   O29       1.0  0.96670  0.74750  0.06580  1.0000 -0.5485759561
O   O30       1.0  0.18620  0.68000  0.05600  1.0000 -0.5764186864
O   O31       1.0  0.99120  0.25150  0.08980  1.0000 -0.5396084745
O   O32       1.0  0.72410  0.28610  0.07560  1.0000 -0.5396084745
