# DDEC6 charges by PACMAN v1.1 (https://github.com/mtap-research/PACMAN-charge/)
data_0000[Co][nan]3[ASR]15
_chemical_formula_sum              "Co48 H768 C1248 S96 N480"
_cell_length_a       45.3941
_cell_length_b       45.3941
_cell_length_c       45.3941
_cell_angle_alpha    60
_cell_angle_beta     60
_cell_angle_gamma    60

_symmetry_space_group_name_H-M    "P 1"
_symmetry_Int_Tables_number       1

loop_
  _symmetry_equiv_pos_as_xyz
  'x, y, z'

loop_
  _atom_site_type_symbol
  _atom_site_label
  _atom_site_symmetry_multiplicity
  _atom_site_fract_x
  _atom_site_fract_y
  _atom_site_fract_z
  _atom_site_occupancy
  _atom_site_charge
Co  Co1       1.0  0.25000  0.48702  0.75000  1.0000 0.6694316551
Co  Co2       1.0  0.48702  0.25000  0.01298  1.0000 0.6694316551
Co  Co3       1.0  0.75000  0.01298  0.25000  1.0000 0.6694316551
Co  Co4       1.0  0.01298  0.75000  0.48702  1.0000 0.6694316551
Co  Co5       1.0  0.75000  0.25000  0.48702  1.0000 0.6694316551
Co  Co6       1.0  0.01298  0.48702  0.25000  1.0000 0.6694316551
Co  Co7       1.0  0.25000  0.75000  0.01298  1.0000 0.6694316551
Co  Co8       1.0  0.48702  0.01298  0.75000  1.0000 0.6694316551
Co  Co9       1.0  0.48702  0.75000  0.25000  1.0000 0.6694316551
Co  Co10      1.0  0.25000  0.01298  0.48702  1.0000 0.6694316551
Co  Co11      1.0  0.01298  0.25000  0.75000  1.0000 0.6694316551
Co  Co12      1.0  0.75000  0.48702  0.01298  1.0000 0.6694316551
Co  Co13      1.0  0.75000  0.51298  0.25000  1.0000 0.6694316551
Co  Co14      1.0  0.51298  0.75000  0.98702  1.0000 0.6694316551
Co  Co15      1.0  0.25000  0.98702  0.75000  1.0000 0.6694316551
Co  Co16      1.0  0.98702  0.25000  0.51298  1.0000 0.6694316551
Co  Co17      1.0  0.25000  0.75000  0.51298  1.0000 0.6694316551
Co  Co18      1.0  0.98702  0.51298  0.75000  1.0000 0.6694316551
Co  Co19      1.0  0.75000  0.25000  0.98702  1.0000 0.6694316551
Co  Co20      1.0  0.51298  0.98702  0.25000  1.0000 0.6694316551
Co  Co21      1.0  0.51298  0.25000  0.75000  1.0000 0.6694316551
Co  Co22      1.0  0.75000  0.98702  0.51298  1.0000 0.6694316551
Co  Co23      1.0  0.98702  0.75000  0.25000  1.0000 0.6694316551
Co  Co24      1.0  0.25000  0.51298  0.98702  1.0000 0.6694316551
Co  Co25      1.0  0.24812  0.50188  0.50188  1.0000 0.6694316551
Co  Co26      1.0  0.50188  0.24812  0.24812  1.0000 0.6694316551
Co  Co27      1.0  0.50188  0.24812  0.50188  1.0000 0.6643906235
Co  Co28      1.0  0.24812  0.50188  0.24812  1.0000 0.6694316551
Co  Co29      1.0  0.50188  0.50188  0.24812  1.0000 0.6694316551
Co  Co30      1.0  0.24812  0.24812  0.50188  1.0000 0.6643906235
Co  Co31      1.0  0.25188  0.99812  0.25188  1.0000 0.6643906235
Co  Co32      1.0  0.99812  0.25188  0.99812  1.0000 0.6694316551
Co  Co33      1.0  0.99812  0.25188  0.25188  1.0000 0.6643906235
Co  Co34      1.0  0.25188  0.99812  0.99812  1.0000 0.6643906235
Co  Co35      1.0  0.99812  0.99812  0.25188  1.0000 0.6694316551
Co  Co36      1.0  0.25188  0.25188  0.99812  1.0000 0.6694316551
Co  Co37      1.0  0.75188  0.49812  0.49812  1.0000 0.6694316551
Co  Co38      1.0  0.49812  0.75188  0.75188  1.0000 0.6694316551
Co  Co39      1.0  0.49812  0.75188  0.49812  1.0000 0.6694316551
Co  Co40      1.0  0.75188  0.49812  0.75188  1.0000 0.6694316551
Co  Co41      1.0  0.49812  0.49812  0.75188  1.0000 0.6694316551
Co  Co42      1.0  0.75188  0.75188  0.49812  1.0000 0.6694316551
Co  Co43      1.0  0.74812  0.00188  0.74812  1.0000 0.6694316551
Co  Co44      1.0  0.00188  0.74812  0.00188  1.0000 0.6643906235
Co  Co45      1.0  0.00188  0.74812  0.74812  1.0000 0.6694316551
Co  Co46      1.0  0.74812  0.00188  0.00188  1.0000 0.6694316551
Co  Co47      1.0  0.00188  0.00188  0.74812  1.0000 0.6694316551
Co  Co48      1.0  0.74812  0.74812  0.00188  1.0000 0.6694316551
H   H1        1.0  0.20570  0.48150  0.72310  1.0000 0.1091030712
H   H2        1.0  0.26260  0.44660  0.63780  1.0000 0.1228824641
H   H3        1.0  0.31570  0.43250  0.64610  1.0000 0.1374493962
H   H4        1.0  0.31190  0.44670  0.69070  1.0000 0.1023451637
H   H5        1.0  0.01350  0.50470  0.80610  1.0000 0.1023451637
H   H6        1.0  0.06370  0.50150  0.81050  1.0000 0.1374493962
H   H7        1.0  0.12000  0.49120  0.76420  1.0000 0.1228824641
H   H8        1.0  0.06930  0.49390  0.71010  1.0000 0.1091030712
H   H9        1.0  0.10660  0.51900  0.61880  1.0000 0.1228824641
H   H10       1.0  0.11000  0.53260  0.56040  1.0000 0.1374493962
H   H11       1.0  0.16530  0.52590  0.51470  1.0000 0.1091030712
H   H12       1.0  0.27500  0.55800  0.43000  1.0000 0.1023451637
H   H13       1.0  0.32630  0.56690  0.38230  1.0000 0.1374493962
H   H14       1.0  0.38140  0.52020  0.37940  1.0000 0.1228824641
H   H15       1.0  0.21500  0.49240  0.58160  1.0000 0.1023451637
H   H16       1.0  0.32950  0.45670  0.47170  1.0000 0.1091030712
H   H17       1.0  0.48150  0.20570  0.08970  1.0000 0.1091030712
H   H18       1.0  0.44660  0.26260  0.15300  1.0000 0.1228824641
H   H19       1.0  0.43250  0.31570  0.10570  1.0000 0.1374493962
H   H20       1.0  0.44670  0.31190  0.05070  1.0000 0.1023451637
H   H21       1.0  0.50470  0.01350  0.17570  1.0000 0.1023451637
H   H22       1.0  0.50150  0.06370  0.12430  1.0000 0.1374493962
H   H23       1.0  0.49120  0.12000  0.12460  1.0000 0.1228824641
H   H24       1.0  0.49390  0.06930  0.22670  1.0000 0.1091030712
H   H25       1.0  0.51900  0.10660  0.25560  1.0000 0.1228824641
H   H26       1.0  0.53260  0.11000  0.29700  1.0000 0.1374493962
H   H27       1.0  0.52590  0.16530  0.29410  1.0000 0.1091030712
H   H28       1.0  0.55800  0.27500  0.23700  1.0000 0.1023451637
H   H29       1.0  0.56690  0.32630  0.22450  1.0000 0.1374493962
H   H30       1.0  0.52020  0.38140  0.21900  1.0000 0.1228824641
H   H31       1.0  0.49240  0.21500  0.21100  1.0000 0.1023451637
H   H32       1.0  0.45670  0.32950  0.24210  1.0000 0.1091030712
H   H33       1.0  0.72310  0.08970  0.20570  1.0000 0.1091030712
H   H34       1.0  0.63780  0.15300  0.26260  1.0000 0.1228824641
H   H35       1.0  0.64610  0.10570  0.31570  1.0000 0.1374493962
H   H36       1.0  0.69070  0.05070  0.31190  1.0000 0.1023451637
H   H37       1.0  0.80610  0.17570  0.01350  1.0000 0.1023451637
H   H38       1.0  0.81050  0.12430  0.06370  1.0000 0.1374493962
H   H39       1.0  0.76420  0.12460  0.12000  1.0000 0.1228824641
H   H40       1.0  0.71010  0.22670  0.06930  1.0000 0.1091030712
H   H41       1.0  0.61880  0.25560  0.10660  1.0000 0.1228824641
H   H42       1.0  0.56040  0.29700  0.11000  1.0000 0.1374493962
H   H43       1.0  0.51470  0.29410  0.16530  1.0000 0.1091030712
H   H44       1.0  0.43000  0.23700  0.27500  1.0000 0.1023451637
H   H45       1.0  0.38230  0.22450  0.32630  1.0000 0.1374493962
H   H46       1.0  0.37940  0.21900  0.38140  1.0000 0.1228824641
H   H47       1.0  0.58160  0.21100  0.21500  1.0000 0.1023451637
H   H48       1.0  0.47170  0.24210  0.32950  1.0000 0.1091030712
H   H49       1.0  0.08970  0.72310  0.48150  1.0000 0.1091030712
H   H50       1.0  0.15300  0.63780  0.44660  1.0000 0.1228824641
H   H51       1.0  0.10570  0.64610  0.43250  1.0000 0.1374493962
H   H52       1.0  0.05070  0.69070  0.44670  1.0000 0.1023451637
H   H53       1.0  0.17570  0.80610  0.50470  1.0000 0.1023451637
H   H54       1.0  0.12430  0.81050  0.50150  1.0000 0.1374493962
H   H55       1.0  0.12460  0.76420  0.49120  1.0000 0.1228824641
H   H56       1.0  0.22670  0.71010  0.49390  1.0000 0.1091030712
H   H57       1.0  0.25560  0.61880  0.51900  1.0000 0.1228824641
H   H58       1.0  0.29700  0.56040  0.53260  1.0000 0.1374493962
H   H59       1.0  0.29410  0.51470  0.52590  1.0000 0.1091030712
H   H60       1.0  0.23700  0.43000  0.55800  1.0000 0.1023451637
H   H61       1.0  0.22450  0.38230  0.56690  1.0000 0.1374493962
H   H62       1.0  0.21900  0.37940  0.52020  1.0000 0.1228824641
H   H63       1.0  0.21100  0.58160  0.49240  1.0000 0.1023451637
H   H64       1.0  0.24210  0.47170  0.45670  1.0000 0.1091030712
H   H65       1.0  0.72310  0.20570  0.48150  1.0000 0.1091030712
H   H66       1.0  0.63780  0.26260  0.44660  1.0000 0.1228824641
H   H67       1.0  0.64610  0.31570  0.43250  1.0000 0.1374493962
H   H68       1.0  0.69070  0.31190  0.44670  1.0000 0.1023451637
H   H69       1.0  0.80610  0.01350  0.50470  1.0000 0.1023451637
H   H70       1.0  0.81050  0.06370  0.50150  1.0000 0.1374493962
H   H71       1.0  0.76420  0.12000  0.49120  1.0000 0.1228824641
H   H72       1.0  0.71010  0.06930  0.49390  1.0000 0.1091030712
H   H73       1.0  0.61880  0.10660  0.51900  1.0000 0.1228824641
H   H74       1.0  0.56040  0.11000  0.53260  1.0000 0.1374493962
H   H75       1.0  0.51470  0.16530  0.52590  1.0000 0.1091030712
H   H76       1.0  0.43000  0.27500  0.55800  1.0000 0.1023451637
H   H77       1.0  0.38230  0.32630  0.56690  1.0000 0.1374493962
H   H78       1.0  0.37940  0.38140  0.52020  1.0000 0.1228824641
H   H79       1.0  0.58160  0.21500  0.49240  1.0000 0.1023451637
H   H80       1.0  0.47170  0.32950  0.45670  1.0000 0.1091030712
H   H81       1.0  0.08970  0.48150  0.20570  1.0000 0.1091030712
H   H82       1.0  0.15300  0.44660  0.26260  1.0000 0.1228824641
H   H83       1.0  0.10570  0.43250  0.31570  1.0000 0.1374493962
H   H84       1.0  0.05070  0.44670  0.31190  1.0000 0.1023451637
H   H85       1.0  0.17570  0.50470  0.01350  1.0000 0.1023451637
H   H86       1.0  0.12430  0.50150  0.06370  1.0000 0.1374493962
H   H87       1.0  0.12460  0.49120  0.12000  1.0000 0.1228824641
H   H88       1.0  0.22670  0.49390  0.06930  1.0000 0.1091030712
H   H89       1.0  0.25560  0.51900  0.10660  1.0000 0.1228824641
H   H90       1.0  0.29700  0.53260  0.11000  1.0000 0.1374493962
H   H91       1.0  0.29410  0.52590  0.16530  1.0000 0.1091030712
H   H92       1.0  0.23700  0.55800  0.27500  1.0000 0.1023451637
H   H93       1.0  0.22450  0.56690  0.32630  1.0000 0.1374493962
H   H94       1.0  0.21900  0.52020  0.38140  1.0000 0.1228824641
H   H95       1.0  0.21100  0.49240  0.21500  1.0000 0.1023451637
H   H96       1.0  0.24210  0.45670  0.32950  1.0000 0.1091030712
H   H97       1.0  0.20570  0.72310  0.08970  1.0000 0.1091030712
H   H98       1.0  0.26260  0.63780  0.15300  1.0000 0.1228824641
H   H99       1.0  0.31570  0.64610  0.10570  1.0000 0.1374493962
H   H100      1.0  0.31190  0.69070  0.05070  1.0000 0.1023451637
H   H101      1.0  0.01350  0.80610  0.17570  1.0000 0.1023451637
H   H102      1.0  0.06370  0.81050  0.12430  1.0000 0.1374493962
H   H103      1.0  0.12000  0.76420  0.12460  1.0000 0.1228824641
H   H104      1.0  0.06930  0.71010  0.22670  1.0000 0.1091030712
H   H105      1.0  0.10660  0.61880  0.25560  1.0000 0.1228824641
H   H106      1.0  0.11000  0.56040  0.29700  1.0000 0.1374493962
H   H107      1.0  0.16530  0.51470  0.29410  1.0000 0.1091030712
H   H108      1.0  0.27500  0.43000  0.23700  1.0000 0.1023451637
H   H109      1.0  0.32630  0.38230  0.22450  1.0000 0.1374493962
H   H110      1.0  0.38140  0.37940  0.21900  1.0000 0.1228824641
H   H111      1.0  0.21500  0.58160  0.21100  1.0000 0.1023451637
H   H112      1.0  0.32950  0.47170  0.24210  1.0000 0.1091030712
H   H113      1.0  0.48150  0.08970  0.72310  1.0000 0.1091030712
H   H114      1.0  0.44660  0.15300  0.63780  1.0000 0.1228824641
H   H115      1.0  0.43250  0.10570  0.64610  1.0000 0.1374493962
H   H116      1.0  0.44670  0.05070  0.69070  1.0000 0.1023451637
H   H117      1.0  0.50470  0.17570  0.80610  1.0000 0.1023451637
H   H118      1.0  0.50150  0.12430  0.81050  1.0000 0.1374493962
H   H119      1.0  0.49120  0.12460  0.76420  1.0000 0.1228824641
H   H120      1.0  0.49390  0.22670  0.71010  1.0000 0.1091030712
H   H121      1.0  0.51900  0.25560  0.61880  1.0000 0.1228824641
H   H122      1.0  0.53260  0.29700  0.56040  1.0000 0.1374493962
H   H123      1.0  0.52590  0.29410  0.51470  1.0000 0.1091030712
H   H124      1.0  0.55800  0.23700  0.43000  1.0000 0.1023451637
H   H125      1.0  0.56690  0.22450  0.38230  1.0000 0.1374493962
H   H126      1.0  0.52020  0.21900  0.37940  1.0000 0.1228824641
H   H127      1.0  0.49240  0.21100  0.58160  1.0000 0.1023451637
H   H128      1.0  0.45670  0.24210  0.47170  1.0000 0.1091030712
H   H129      1.0  0.48150  0.72310  0.20570  1.0000 0.1091030712
H   H130      1.0  0.44660  0.63780  0.26260  1.0000 0.1228824641
H   H131      1.0  0.43250  0.64610  0.31570  1.0000 0.1374493962
H   H132      1.0  0.44670  0.69070  0.31190  1.0000 0.1023451637
H   H133      1.0  0.50470  0.80610  0.01350  1.0000 0.1023451637
H   H134      1.0  0.50150  0.81050  0.06370  1.0000 0.1374493962
H   H135      1.0  0.49120  0.76420  0.12000  1.0000 0.1228824641
H   H136      1.0  0.49390  0.71010  0.06930  1.0000 0.1091030712
H   H137      1.0  0.51900  0.61880  0.10660  1.0000 0.1228824641
H   H138      1.0  0.53260  0.56040  0.11000  1.0000 0.1374493962
H   H139      1.0  0.52590  0.51470  0.16530  1.0000 0.1091030712
H   H140      1.0  0.55800  0.43000  0.27500  1.0000 0.1023451637
H   H141      1.0  0.56690  0.38230  0.32630  1.0000 0.1374493962
H   H142      1.0  0.52020  0.37940  0.38140  1.0000 0.1228824641
H   H143      1.0  0.49240  0.58160  0.21500  1.0000 0.1023451637
H   H144      1.0  0.45670  0.47170  0.32950  1.0000 0.1091030712
H   H145      1.0  0.20570  0.08970  0.48150  1.0000 0.1091030712
H   H146      1.0  0.26260  0.15300  0.44660  1.0000 0.1228824641
H   H147      1.0  0.31570  0.10570  0.43250  1.0000 0.1374493962
H   H148      1.0  0.31190  0.05070  0.44670  1.0000 0.1023451637
H   H149      1.0  0.01350  0.17570  0.50470  1.0000 0.1023451637
H   H150      1.0  0.06370  0.12430  0.50150  1.0000 0.1374493962
H   H151      1.0  0.12000  0.12460  0.49120  1.0000 0.1228824641
H   H152      1.0  0.06930  0.22670  0.49390  1.0000 0.1091030712
H   H153      1.0  0.10660  0.25560  0.51900  1.0000 0.1228824641
H   H154      1.0  0.11000  0.29700  0.53260  1.0000 0.1374493962
H   H155      1.0  0.16530  0.29410  0.52590  1.0000 0.1091030712
H   H156      1.0  0.27500  0.23700  0.55800  1.0000 0.1023451637
H   H157      1.0  0.32630  0.22450  0.56690  1.0000 0.1374493962
H   H158      1.0  0.38140  0.21900  0.52020  1.0000 0.1228824641
H   H159      1.0  0.21500  0.21100  0.49240  1.0000 0.1023451637
H   H160      1.0  0.32950  0.24210  0.45670  1.0000 0.1091030712
H   H161      1.0  0.08970  0.20570  0.72310  1.0000 0.1091030712
H   H162      1.0  0.15300  0.26260  0.63780  1.0000 0.1228824641
H   H163      1.0  0.10570  0.31570  0.64610  1.0000 0.1374493962
H   H164      1.0  0.05070  0.31190  0.69070  1.0000 0.1023451637
H   H165      1.0  0.17570  0.01350  0.80610  1.0000 0.1023451637
H   H166      1.0  0.12430  0.06370  0.81050  1.0000 0.1374493962
H   H167      1.0  0.12460  0.12000  0.76420  1.0000 0.1228824641
H   H168      1.0  0.22670  0.06930  0.71010  1.0000 0.1091030712
H   H169      1.0  0.25560  0.10660  0.61880  1.0000 0.1228824641
H   H170      1.0  0.29700  0.11000  0.56040  1.0000 0.1374493962
H   H171      1.0  0.29410  0.16530  0.51470  1.0000 0.1091030712
H   H172      1.0  0.23700  0.27500  0.43000  1.0000 0.1023451637
H   H173      1.0  0.22450  0.32630  0.38230  1.0000 0.1374493962
H   H174      1.0  0.21900  0.38140  0.37940  1.0000 0.1228824641
H   H175      1.0  0.21100  0.21500  0.58160  1.0000 0.1023451637
H   H176      1.0  0.24210  0.32950  0.47170  1.0000 0.1091030712
H   H177      1.0  0.72310  0.48150  0.08970  1.0000 0.1091030712
H   H178      1.0  0.63780  0.44660  0.15300  1.0000 0.1228824641
H   H179      1.0  0.64610  0.43250  0.10570  1.0000 0.1374493962
H   H180      1.0  0.69070  0.44670  0.05070  1.0000 0.1023451637
H   H181      1.0  0.80610  0.50470  0.17570  1.0000 0.1023451637
H   H182      1.0  0.81050  0.50150  0.12430  1.0000 0.1374493962
H   H183      1.0  0.76420  0.49120  0.12460  1.0000 0.1228824641
H   H184      1.0  0.71010  0.49390  0.22670  1.0000 0.1091030712
H   H185      1.0  0.61880  0.51900  0.25560  1.0000 0.1228824641
H   H186      1.0  0.56040  0.53260  0.29700  1.0000 0.1374493962
H   H187      1.0  0.51470  0.52590  0.29410  1.0000 0.1091030712
H   H188      1.0  0.43000  0.55800  0.23700  1.0000 0.1023451637
H   H189      1.0  0.38230  0.56690  0.22450  1.0000 0.1374493962
H   H190      1.0  0.37940  0.52020  0.21900  1.0000 0.1228824641
H   H191      1.0  0.58160  0.49240  0.21100  1.0000 0.1023451637
H   H192      1.0  0.47170  0.45670  0.24210  1.0000 0.1091030712
H   H193      1.0  0.29430  0.01850  0.41030  1.0000 0.1091030712
H   H194      1.0  0.23740  0.05340  0.34700  1.0000 0.1228824641
H   H195      1.0  0.18430  0.06750  0.39430  1.0000 0.1374493962
H   H196      1.0  0.18810  0.05330  0.44930  1.0000 0.1023451637
H   H197      1.0  0.48650  0.99530  0.32430  1.0000 0.1023451637
H   H198      1.0  0.43630  0.99850  0.37570  1.0000 0.1374493962
H   H199      1.0  0.38000  0.00880  0.37540  1.0000 0.1228824641
H   H200      1.0  0.43070  0.00610  0.27330  1.0000 0.1091030712
H   H201      1.0  0.39340  0.98100  0.24440  1.0000 0.1228824641
H   H202      1.0  0.39000  0.96740  0.20300  1.0000 0.1374493962
H   H203      1.0  0.33470  0.97410  0.20590  1.0000 0.1091030712
H   H204      1.0  0.22500  0.94200  0.26300  1.0000 0.1023451637
H   H205      1.0  0.17370  0.93310  0.27550  1.0000 0.1374493962
H   H206      1.0  0.11860  0.97980  0.28100  1.0000 0.1228824641
H   H207      1.0  0.28500  0.00760  0.28900  1.0000 0.1023451637
H   H208      1.0  0.17050  0.04330  0.25790  1.0000 0.1091030712
H   H209      1.0  0.01850  0.29430  0.77690  1.0000 0.1091030712
H   H210      1.0  0.05340  0.23740  0.86220  1.0000 0.1228824641
H   H211      1.0  0.06750  0.18430  0.85390  1.0000 0.1374493962
H   H212      1.0  0.05330  0.18810  0.80930  1.0000 0.1023451637
H   H213      1.0  0.99530  0.48650  0.69390  1.0000 0.1023451637
H   H214      1.0  0.99850  0.43630  0.68950  1.0000 0.1374493962
H   H215      1.0  0.00880  0.38000  0.73580  1.0000 0.1228824641
H   H216      1.0  0.00610  0.43070  0.78990  1.0000 0.1091030712
H   H217      1.0  0.98100  0.39340  0.88120  1.0000 0.1228824641
H   H218      1.0  0.96740  0.39000  0.93960  1.0000 0.1374493962
H   H219      1.0  0.97410  0.33470  0.98530  1.0000 0.1091030712
H   H220      1.0  0.94200  0.22500  0.07000  1.0000 0.1023451637
H   H221      1.0  0.93310  0.17370  0.11770  1.0000 0.1374493962
H   H222      1.0  0.97980  0.11860  0.12060  1.0000 0.1228824641
H   H223      1.0  0.00760  0.28500  0.91840  1.0000 0.1023451637
H   H224      1.0  0.04330  0.17050  0.02830  1.0000 0.1091030712
H   H225      1.0  0.77690  0.41030  0.01850  1.0000 0.1091030712
H   H226      1.0  0.86220  0.34700  0.05340  1.0000 0.1228824641
H   H227      1.0  0.85390  0.39430  0.06750  1.0000 0.1374493962
H   H228      1.0  0.80930  0.44930  0.05330  1.0000 0.1023451637
H   H229      1.0  0.69390  0.32430  0.99530  1.0000 0.1023451637
H   H230      1.0  0.68950  0.37570  0.99850  1.0000 0.1374493962
H   H231      1.0  0.73580  0.37540  0.00880  1.0000 0.1228824641
H   H232      1.0  0.78990  0.27330  0.00610  1.0000 0.1091030712
H   H233      1.0  0.88120  0.24440  0.98100  1.0000 0.1228824641
H   H234      1.0  0.93960  0.20300  0.96740  1.0000 0.1374493962
H   H235      1.0  0.98530  0.20590  0.97410  1.0000 0.1091030712
H   H236      1.0  0.07000  0.26300  0.94200  1.0000 0.1023451637
H   H237      1.0  0.11770  0.27550  0.93310  1.0000 0.1374493962
H   H238      1.0  0.12060  0.28100  0.97980  1.0000 0.1228824641
H   H239      1.0  0.91840  0.28900  0.00760  1.0000 0.1023451637
H   H240      1.0  0.02830  0.25790  0.04330  1.0000 0.1091030712
H   H241      1.0  0.41030  0.77690  0.29430  1.0000 0.1091030712
H   H242      1.0  0.34700  0.86220  0.23740  1.0000 0.1228824641
H   H243      1.0  0.39430  0.85390  0.18430  1.0000 0.1374493962
H   H244      1.0  0.44930  0.80930  0.18810  1.0000 0.1023451637
H   H245      1.0  0.32430  0.69390  0.48650  1.0000 0.1023451637
H   H246      1.0  0.37570  0.68950  0.43630  1.0000 0.1374493962
H   H247      1.0  0.37540  0.73580  0.38000  1.0000 0.1228824641
H   H248      1.0  0.27330  0.78990  0.43070  1.0000 0.1091030712
H   H249      1.0  0.24440  0.88120  0.39340  1.0000 0.1228824641
H   H250      1.0  0.20300  0.93960  0.39000  1.0000 0.1374493962
H   H251      1.0  0.20590  0.98530  0.33470  1.0000 0.1091030712
H   H252      1.0  0.26300  0.07000  0.22500  1.0000 0.1023451637
H   H253      1.0  0.27550  0.11770  0.17370  1.0000 0.1374493962
H   H254      1.0  0.28100  0.12060  0.11860  1.0000 0.1228824641
H   H255      1.0  0.28900  0.91840  0.28500  1.0000 0.1023451637
H   H256      1.0  0.25790  0.02830  0.17050  1.0000 0.1091030712
H   H257      1.0  0.77690  0.29430  0.41030  1.0000 0.1091030712
H   H258      1.0  0.86220  0.23740  0.34700  1.0000 0.1228824641
H   H259      1.0  0.85390  0.18430  0.39430  1.0000 0.1374493962
H   H260      1.0  0.80930  0.18810  0.44930  1.0000 0.1023451637
H   H261      1.0  0.69390  0.48650  0.32430  1.0000 0.1023451637
H   H262      1.0  0.68950  0.43630  0.37570  1.0000 0.1374493962
H   H263      1.0  0.73580  0.38000  0.37540  1.0000 0.1228824641
H   H264      1.0  0.78990  0.43070  0.27330  1.0000 0.1091030712
H   H265      1.0  0.88120  0.39340  0.24440  1.0000 0.1228824641
H   H266      1.0  0.93960  0.39000  0.20300  1.0000 0.1374493962
H   H267      1.0  0.98530  0.33470  0.20590  1.0000 0.1091030712
H   H268      1.0  0.07000  0.22500  0.26300  1.0000 0.1023451637
H   H269      1.0  0.11770  0.17370  0.27550  1.0000 0.1374493962
H   H270      1.0  0.12060  0.11860  0.28100  1.0000 0.1228824641
H   H271      1.0  0.91840  0.28500  0.28900  1.0000 0.1023451637
H   H272      1.0  0.02830  0.17050  0.25790  1.0000 0.1091030712
H   H273      1.0  0.41030  0.01850  0.77690  1.0000 0.1091030712
H   H274      1.0  0.34700  0.05340  0.86220  1.0000 0.1228824641
H   H275      1.0  0.39430  0.06750  0.85390  1.0000 0.1374493962
H   H276      1.0  0.44930  0.05330  0.80930  1.0000 0.1023451637
H   H277      1.0  0.32430  0.99530  0.69390  1.0000 0.1023451637
H   H278      1.0  0.37570  0.99850  0.68950  1.0000 0.1374493962
H   H279      1.0  0.37540  0.00880  0.73580  1.0000 0.1228824641
H   H280      1.0  0.27330  0.00610  0.78990  1.0000 0.1091030712
H   H281      1.0  0.24440  0.98100  0.88120  1.0000 0.1228824641
H   H282      1.0  0.20300  0.96740  0.93960  1.0000 0.1374493962
H   H283      1.0  0.20590  0.97410  0.98530  1.0000 0.1091030712
H   H284      1.0  0.26300  0.94200  0.07000  1.0000 0.1023451637
H   H285      1.0  0.27550  0.93310  0.11770  1.0000 0.1374493962
H   H286      1.0  0.28100  0.97980  0.12060  1.0000 0.1228824641
H   H287      1.0  0.28900  0.00760  0.91840  1.0000 0.1023451637
H   H288      1.0  0.25790  0.04330  0.02830  1.0000 0.1091030712
H   H289      1.0  0.29430  0.77690  0.01850  1.0000 0.1091030712
H   H290      1.0  0.23740  0.86220  0.05340  1.0000 0.1228824641
H   H291      1.0  0.18430  0.85390  0.06750  1.0000 0.1374493962
H   H292      1.0  0.18810  0.80930  0.05330  1.0000 0.1023451637
H   H293      1.0  0.48650  0.69390  0.99530  1.0000 0.1023451637
H   H294      1.0  0.43630  0.68950  0.99850  1.0000 0.1374493962
H   H295      1.0  0.38000  0.73580  0.00880  1.0000 0.1228824641
H   H296      1.0  0.43070  0.78990  0.00610  1.0000 0.1091030712
H   H297      1.0  0.39340  0.88120  0.98100  1.0000 0.1228824641
H   H298      1.0  0.39000  0.93960  0.96740  1.0000 0.1374493962
H   H299      1.0  0.33470  0.98530  0.97410  1.0000 0.1091030712
H   H300      1.0  0.22500  0.07000  0.94200  1.0000 0.1023451637
H   H301      1.0  0.17370  0.11770  0.93310  1.0000 0.1374493962
H   H302      1.0  0.11860  0.12060  0.97980  1.0000 0.1228824641
H   H303      1.0  0.28500  0.91840  0.00760  1.0000 0.1023451637
H   H304      1.0  0.17050  0.02830  0.04330  1.0000 0.1091030712
H   H305      1.0  0.01850  0.41030  0.29430  1.0000 0.1091030712
H   H306      1.0  0.05340  0.34700  0.23740  1.0000 0.1228824641
H   H307      1.0  0.06750  0.39430  0.18430  1.0000 0.1374493962
H   H308      1.0  0.05330  0.44930  0.18810  1.0000 0.1023451637
H   H309      1.0  0.99530  0.32430  0.48650  1.0000 0.1023451637
H   H310      1.0  0.99850  0.37570  0.43630  1.0000 0.1374493962
H   H311      1.0  0.00880  0.37540  0.38000  1.0000 0.1228824641
H   H312      1.0  0.00610  0.27330  0.43070  1.0000 0.1091030712
H   H313      1.0  0.98100  0.24440  0.39340  1.0000 0.1228824641
H   H314      1.0  0.96740  0.20300  0.39000  1.0000 0.1374493962
H   H315      1.0  0.97410  0.20590  0.33470  1.0000 0.1091030712
H   H316      1.0  0.94200  0.26300  0.22500  1.0000 0.1023451637
H   H317      1.0  0.93310  0.27550  0.17370  1.0000 0.1374493962
H   H318      1.0  0.97980  0.28100  0.11860  1.0000 0.1228824641
H   H319      1.0  0.00760  0.28900  0.28500  1.0000 0.1023451637
H   H320      1.0  0.04330  0.25790  0.17050  1.0000 0.1091030712
H   H321      1.0  0.01850  0.77690  0.41030  1.0000 0.1091030712
H   H322      1.0  0.05340  0.86220  0.34700  1.0000 0.1228824641
H   H323      1.0  0.06750  0.85390  0.39430  1.0000 0.1374493962
H   H324      1.0  0.05330  0.80930  0.44930  1.0000 0.1023451637
H   H325      1.0  0.99530  0.69390  0.32430  1.0000 0.1023451637
H   H326      1.0  0.99850  0.68950  0.37570  1.0000 0.1374493962
H   H327      1.0  0.00880  0.73580  0.37540  1.0000 0.1228824641
H   H328      1.0  0.00610  0.78990  0.27330  1.0000 0.1091030712
H   H329      1.0  0.98100  0.88120  0.24440  1.0000 0.1228824641
H   H330      1.0  0.96740  0.93960  0.20300  1.0000 0.1374493962
H   H331      1.0  0.97410  0.98530  0.20590  1.0000 0.1091030712
H   H332      1.0  0.94200  0.07000  0.26300  1.0000 0.1023451637
H   H333      1.0  0.93310  0.11770  0.27550  1.0000 0.1374493962
H   H334      1.0  0.97980  0.12060  0.28100  1.0000 0.1228824641
H   H335      1.0  0.00760  0.91840  0.28900  1.0000 0.1023451637
H   H336      1.0  0.04330  0.02830  0.25790  1.0000 0.1091030712
H   H337      1.0  0.29430  0.41030  0.77690  1.0000 0.1091030712
H   H338      1.0  0.23740  0.34700  0.86220  1.0000 0.1228824641
H   H339      1.0  0.18430  0.39430  0.85390  1.0000 0.1374493962
H   H340      1.0  0.18810  0.44930  0.80930  1.0000 0.1023451637
H   H341      1.0  0.48650  0.32430  0.69390  1.0000 0.1023451637
H   H342      1.0  0.43630  0.37570  0.68950  1.0000 0.1374493962
H   H343      1.0  0.38000  0.37540  0.73580  1.0000 0.1228824641
H   H344      1.0  0.43070  0.27330  0.78990  1.0000 0.1091030712
H   H345      1.0  0.39340  0.24440  0.88120  1.0000 0.1228824641
H   H346      1.0  0.39000  0.20300  0.93960  1.0000 0.1374493962
H   H347      1.0  0.33470  0.20590  0.98530  1.0000 0.1091030712
H   H348      1.0  0.22500  0.26300  0.07000  1.0000 0.1023451637
H   H349      1.0  0.17370  0.27550  0.11770  1.0000 0.1374493962
H   H350      1.0  0.11860  0.28100  0.12060  1.0000 0.1228824641
H   H351      1.0  0.28500  0.28900  0.91840  1.0000 0.1023451637
H   H352      1.0  0.17050  0.25790  0.02830  1.0000 0.1091030712
H   H353      1.0  0.41030  0.29430  0.01850  1.0000 0.1091030712
H   H354      1.0  0.34700  0.23740  0.05340  1.0000 0.1228824641
H   H355      1.0  0.39430  0.18430  0.06750  1.0000 0.1374493962
H   H356      1.0  0.44930  0.18810  0.05330  1.0000 0.1023451637
H   H357      1.0  0.32430  0.48650  0.99530  1.0000 0.1023451637
H   H358      1.0  0.37570  0.43630  0.99850  1.0000 0.1374493962
H   H359      1.0  0.37540  0.38000  0.00880  1.0000 0.1228824641
H   H360      1.0  0.27330  0.43070  0.00610  1.0000 0.1091030712
H   H361      1.0  0.24440  0.39340  0.98100  1.0000 0.1228824641
H   H362      1.0  0.20300  0.39000  0.96740  1.0000 0.1374493962
H   H363      1.0  0.20590  0.33470  0.97410  1.0000 0.1091030712
H   H364      1.0  0.26300  0.22500  0.94200  1.0000 0.1023451637
H   H365      1.0  0.27550  0.17370  0.93310  1.0000 0.1374493962
H   H366      1.0  0.28100  0.11860  0.97980  1.0000 0.1228824641
H   H367      1.0  0.28900  0.28500  0.00760  1.0000 0.1023451637
H   H368      1.0  0.25790  0.17050  0.04330  1.0000 0.1091030712
H   H369      1.0  0.77690  0.01850  0.29430  1.0000 0.1091030712
H   H370      1.0  0.86220  0.05340  0.23740  1.0000 0.1228824641
H   H371      1.0  0.85390  0.06750  0.18430  1.0000 0.1374493962
H   H372      1.0  0.80930  0.05330  0.18810  1.0000 0.1023451637
H   H373      1.0  0.69390  0.99530  0.48650  1.0000 0.1023451637
H   H374      1.0  0.68950  0.99850  0.43630  1.0000 0.1374493962
H   H375      1.0  0.73580  0.00880  0.38000  1.0000 0.1228824641
H   H376      1.0  0.78990  0.00610  0.43070  1.0000 0.1091030712
H   H377      1.0  0.88120  0.98100  0.39340  1.0000 0.1228824641
H   H378      1.0  0.93960  0.96740  0.39000  1.0000 0.1374493962
H   H379      1.0  0.98530  0.97410  0.33470  1.0000 0.1091030712
H   H380      1.0  0.07000  0.94200  0.22500  1.0000 0.1023451637
H   H381      1.0  0.11770  0.93310  0.17370  1.0000 0.1374493962
H   H382      1.0  0.12060  0.97980  0.11860  1.0000 0.1228824641
H   H383      1.0  0.91840  0.00760  0.28500  1.0000 0.1023451637
H   H384      1.0  0.02830  0.04330  0.17050  1.0000 0.1091030712
H   H385      1.0  0.79430  0.51850  0.27690  1.0000 0.1091030712
H   H386      1.0  0.73740  0.55340  0.36220  1.0000 0.1228824641
H   H387      1.0  0.68430  0.56750  0.35390  1.0000 0.1374493962
H   H388      1.0  0.68810  0.55330  0.30930  1.0000 0.1023451637
H   H389      1.0  0.98650  0.49530  0.19390  1.0000 0.1023451637
H   H390      1.0  0.93630  0.49850  0.18950  1.0000 0.1374493962
H   H391      1.0  0.88000  0.50880  0.23580  1.0000 0.1228824641
H   H392      1.0  0.93070  0.50610  0.28990  1.0000 0.1091030712
H   H393      1.0  0.89340  0.48100  0.38120  1.0000 0.1228824641
H   H394      1.0  0.89000  0.46740  0.43960  1.0000 0.1374493962
H   H395      1.0  0.83470  0.47410  0.48530  1.0000 0.1091030712
H   H396      1.0  0.72500  0.44200  0.57000  1.0000 0.1023451637
H   H397      1.0  0.67370  0.43310  0.61770  1.0000 0.1374493962
H   H398      1.0  0.61860  0.47980  0.62060  1.0000 0.1228824641
H   H399      1.0  0.78500  0.50760  0.41840  1.0000 0.1023451637
H   H400      1.0  0.67050  0.54330  0.52830  1.0000 0.1091030712
H   H401      1.0  0.51850  0.79430  0.91030  1.0000 0.1091030712
H   H402      1.0  0.55340  0.73740  0.84700  1.0000 0.1228824641
H   H403      1.0  0.56750  0.68430  0.89430  1.0000 0.1374493962
H   H404      1.0  0.55330  0.68810  0.94930  1.0000 0.1023451637
H   H405      1.0  0.49530  0.98650  0.82430  1.0000 0.1023451637
H   H406      1.0  0.49850  0.93630  0.87570  1.0000 0.1374493962
H   H407      1.0  0.50880  0.88000  0.87540  1.0000 0.1228824641
H   H408      1.0  0.50610  0.93070  0.77330  1.0000 0.1091030712
H   H409      1.0  0.48100  0.89340  0.74440  1.0000 0.1228824641
H   H410      1.0  0.46740  0.89000  0.70300  1.0000 0.1374493962
H   H411      1.0  0.47410  0.83470  0.70590  1.0000 0.1091030712
H   H412      1.0  0.44200  0.72500  0.76300  1.0000 0.1023451637
H   H413      1.0  0.43310  0.67370  0.77550  1.0000 0.1374493962
H   H414      1.0  0.47980  0.61860  0.78100  1.0000 0.1228824641
H   H415      1.0  0.50760  0.78500  0.78900  1.0000 0.1023451637
H   H416      1.0  0.54330  0.67050  0.75790  1.0000 0.1091030712
H   H417      1.0  0.27690  0.91030  0.79430  1.0000 0.1091030712
H   H418      1.0  0.36220  0.84700  0.73740  1.0000 0.1228824641
H   H419      1.0  0.35390  0.89430  0.68430  1.0000 0.1374493962
H   H420      1.0  0.30930  0.94930  0.68810  1.0000 0.1023451637
H   H421      1.0  0.19390  0.82430  0.98650  1.0000 0.1023451637
H   H422      1.0  0.18950  0.87570  0.93630  1.0000 0.1374493962
H   H423      1.0  0.23580  0.87540  0.88000  1.0000 0.1228824641
H   H424      1.0  0.28990  0.77330  0.93070  1.0000 0.1091030712
H   H425      1.0  0.38120  0.74440  0.89340  1.0000 0.1228824641
H   H426      1.0  0.43960  0.70300  0.89000  1.0000 0.1374493962
H   H427      1.0  0.48530  0.70590  0.83470  1.0000 0.1091030712
H   H428      1.0  0.57000  0.76300  0.72500  1.0000 0.1023451637
H   H429      1.0  0.61770  0.77550  0.67370  1.0000 0.1374493962
H   H430      1.0  0.62060  0.78100  0.61860  1.0000 0.1228824641
H   H431      1.0  0.41840  0.78900  0.78500  1.0000 0.1023451637
H   H432      1.0  0.52830  0.75790  0.67050  1.0000 0.1091030712
H   H433      1.0  0.91030  0.27690  0.51850  1.0000 0.1091030712
H   H434      1.0  0.84700  0.36220  0.55340  1.0000 0.1228824641
H   H435      1.0  0.89430  0.35390  0.56750  1.0000 0.1374493962
H   H436      1.0  0.94930  0.30930  0.55330  1.0000 0.1023451637
H   H437      1.0  0.82430  0.19390  0.49530  1.0000 0.1023451637
H   H438      1.0  0.87570  0.18950  0.49850  1.0000 0.1374493962
H   H439      1.0  0.87540  0.23580  0.50880  1.0000 0.1228824641
H   H440      1.0  0.77330  0.28990  0.50610  1.0000 0.1091030712
H   H441      1.0  0.74440  0.38120  0.48100  1.0000 0.1228824641
H   H442      1.0  0.70300  0.43960  0.46740  1.0000 0.1374493962
H   H443      1.0  0.70590  0.48530  0.47410  1.0000 0.1091030712
H   H444      1.0  0.76300  0.57000  0.44200  1.0000 0.1023451637
H   H445      1.0  0.77550  0.61770  0.43310  1.0000 0.1374493962
H   H446      1.0  0.78100  0.62060  0.47980  1.0000 0.1228824641
H   H447      1.0  0.78900  0.41840  0.50760  1.0000 0.1023451637
H   H448      1.0  0.75790  0.52830  0.54330  1.0000 0.1091030712
H   H449      1.0  0.27690  0.79430  0.51850  1.0000 0.1091030712
H   H450      1.0  0.36220  0.73740  0.55340  1.0000 0.1228824641
H   H451      1.0  0.35390  0.68430  0.56750  1.0000 0.1374493962
H   H452      1.0  0.30930  0.68810  0.55330  1.0000 0.1023451637
H   H453      1.0  0.19390  0.98650  0.49530  1.0000 0.1023451637
H   H454      1.0  0.18950  0.93630  0.49850  1.0000 0.1374493962
H   H455      1.0  0.23580  0.88000  0.50880  1.0000 0.1228824641
H   H456      1.0  0.28990  0.93070  0.50610  1.0000 0.1091030712
H   H457      1.0  0.38120  0.89340  0.48100  1.0000 0.1228824641
H   H458      1.0  0.43960  0.89000  0.46740  1.0000 0.1374493962
H   H459      1.0  0.48530  0.83470  0.47410  1.0000 0.1091030712
H   H460      1.0  0.57000  0.72500  0.44200  1.0000 0.1023451637
H   H461      1.0  0.61770  0.67370  0.43310  1.0000 0.1374493962
H   H462      1.0  0.62060  0.61860  0.47980  1.0000 0.1228824641
H   H463      1.0  0.41840  0.78500  0.50760  1.0000 0.1023451637
H   H464      1.0  0.52830  0.67050  0.54330  1.0000 0.1091030712
H   H465      1.0  0.91030  0.51850  0.79430  1.0000 0.1091030712
H   H466      1.0  0.84700  0.55340  0.73740  1.0000 0.1228824641
H   H467      1.0  0.89430  0.56750  0.68430  1.0000 0.1374493962
H   H468      1.0  0.94930  0.55330  0.68810  1.0000 0.1023451637
H   H469      1.0  0.82430  0.49530  0.98650  1.0000 0.1023451637
H   H470      1.0  0.87570  0.49850  0.93630  1.0000 0.1374493962
H   H471      1.0  0.87540  0.50880  0.88000  1.0000 0.1228824641
H   H472      1.0  0.77330  0.50610  0.93070  1.0000 0.1091030712
H   H473      1.0  0.74440  0.48100  0.89340  1.0000 0.1228824641
H   H474      1.0  0.70300  0.46740  0.89000  1.0000 0.1374493962
H   H475      1.0  0.70590  0.47410  0.83470  1.0000 0.1091030712
H   H476      1.0  0.76300  0.44200  0.72500  1.0000 0.1023451637
H   H477      1.0  0.77550  0.43310  0.67370  1.0000 0.1374493962
H   H478      1.0  0.78100  0.47980  0.61860  1.0000 0.1228824641
H   H479      1.0  0.78900  0.50760  0.78500  1.0000 0.1023451637
H   H480      1.0  0.75790  0.54330  0.67050  1.0000 0.1091030712
H   H481      1.0  0.79430  0.27690  0.91030  1.0000 0.1091030712
H   H482      1.0  0.73740  0.36220  0.84700  1.0000 0.1228824641
H   H483      1.0  0.68430  0.35390  0.89430  1.0000 0.1374493962
H   H484      1.0  0.68810  0.30930  0.94930  1.0000 0.1023451637
H   H485      1.0  0.98650  0.19390  0.82430  1.0000 0.1023451637
H   H486      1.0  0.93630  0.18950  0.87570  1.0000 0.1374493962
H   H487      1.0  0.88000  0.23580  0.87540  1.0000 0.1228824641
H   H488      1.0  0.93070  0.28990  0.77330  1.0000 0.1091030712
H   H489      1.0  0.89340  0.38120  0.74440  1.0000 0.1228824641
H   H490      1.0  0.89000  0.43960  0.70300  1.0000 0.1374493962
H   H491      1.0  0.83470  0.48530  0.70590  1.0000 0.1091030712
H   H492      1.0  0.72500  0.57000  0.76300  1.0000 0.1023451637
H   H493      1.0  0.67370  0.61770  0.77550  1.0000 0.1374493962
H   H494      1.0  0.61860  0.62060  0.78100  1.0000 0.1228824641
H   H495      1.0  0.78500  0.41840  0.78900  1.0000 0.1023451637
H   H496      1.0  0.67050  0.52830  0.75790  1.0000 0.1091030712
H   H497      1.0  0.51850  0.91030  0.27690  1.0000 0.1091030712
H   H498      1.0  0.55340  0.84700  0.36220  1.0000 0.1228824641
H   H499      1.0  0.56750  0.89430  0.35390  1.0000 0.1374493962
H   H500      1.0  0.55330  0.94930  0.30930  1.0000 0.1023451637
H   H501      1.0  0.49530  0.82430  0.19390  1.0000 0.1023451637
H   H502      1.0  0.49850  0.87570  0.18950  1.0000 0.1374493962
H   H503      1.0  0.50880  0.87540  0.23580  1.0000 0.1228824641
H   H504      1.0  0.50610  0.77330  0.28990  1.0000 0.1091030712
H   H505      1.0  0.48100  0.74440  0.38120  1.0000 0.1228824641
H   H506      1.0  0.46740  0.70300  0.43960  1.0000 0.1374493962
H   H507      1.0  0.47410  0.70590  0.48530  1.0000 0.1091030712
H   H508      1.0  0.44200  0.76300  0.57000  1.0000 0.1023451637
H   H509      1.0  0.43310  0.77550  0.61770  1.0000 0.1374493962
H   H510      1.0  0.47980  0.78100  0.62060  1.0000 0.1228824641
H   H511      1.0  0.50760  0.78900  0.41840  1.0000 0.1023451637
H   H512      1.0  0.54330  0.75790  0.52830  1.0000 0.1091030712
H   H513      1.0  0.51850  0.27690  0.79430  1.0000 0.1091030712
H   H514      1.0  0.55340  0.36220  0.73740  1.0000 0.1228824641
H   H515      1.0  0.56750  0.35390  0.68430  1.0000 0.1374493962
H   H516      1.0  0.55330  0.30930  0.68810  1.0000 0.1023451637
H   H517      1.0  0.49530  0.19390  0.98650  1.0000 0.1023451637
H   H518      1.0  0.49850  0.18950  0.93630  1.0000 0.1374493962
H   H519      1.0  0.50880  0.23580  0.88000  1.0000 0.1228824641
H   H520      1.0  0.50610  0.28990  0.93070  1.0000 0.1091030712
H   H521      1.0  0.48100  0.38120  0.89340  1.0000 0.1228824641
H   H522      1.0  0.46740  0.43960  0.89000  1.0000 0.1374493962
H   H523      1.0  0.47410  0.48530  0.83470  1.0000 0.1091030712
H   H524      1.0  0.44200  0.57000  0.72500  1.0000 0.1023451637
H   H525      1.0  0.43310  0.61770  0.67370  1.0000 0.1374493962
H   H526      1.0  0.47980  0.62060  0.61860  1.0000 0.1228824641
H   H527      1.0  0.50760  0.41840  0.78500  1.0000 0.1023451637
H   H528      1.0  0.54330  0.52830  0.67050  1.0000 0.1091030712
H   H529      1.0  0.79430  0.91030  0.51850  1.0000 0.1091030712
H   H530      1.0  0.73740  0.84700  0.55340  1.0000 0.1228824641
H   H531      1.0  0.68430  0.89430  0.56750  1.0000 0.1374493962
H   H532      1.0  0.68810  0.94930  0.55330  1.0000 0.1023451637
H   H533      1.0  0.98650  0.82430  0.49530  1.0000 0.1023451637
H   H534      1.0  0.93630  0.87570  0.49850  1.0000 0.1374493962
H   H535      1.0  0.88000  0.87540  0.50880  1.0000 0.1228824641
H   H536      1.0  0.93070  0.77330  0.50610  1.0000 0.1091030712
H   H537      1.0  0.89340  0.74440  0.48100  1.0000 0.1228824641
H   H538      1.0  0.89000  0.70300  0.46740  1.0000 0.1374493962
H   H539      1.0  0.83470  0.70590  0.47410  1.0000 0.1091030712
H   H540      1.0  0.72500  0.76300  0.44200  1.0000 0.1023451637
H   H541      1.0  0.67370  0.77550  0.43310  1.0000 0.1374493962
H   H542      1.0  0.61860  0.78100  0.47980  1.0000 0.1228824641
H   H543      1.0  0.78500  0.78900  0.50760  1.0000 0.1023451637
H   H544      1.0  0.67050  0.75790  0.54330  1.0000 0.1091030712
H   H545      1.0  0.91030  0.79430  0.27690  1.0000 0.1091030712
H   H546      1.0  0.84700  0.73740  0.36220  1.0000 0.1228824641
H   H547      1.0  0.89430  0.68430  0.35390  1.0000 0.1374493962
H   H548      1.0  0.94930  0.68810  0.30930  1.0000 0.1023451637
H   H549      1.0  0.82430  0.98650  0.19390  1.0000 0.1023451637
H   H550      1.0  0.87570  0.93630  0.18950  1.0000 0.1374493962
H   H551      1.0  0.87540  0.88000  0.23580  1.0000 0.1228824641
H   H552      1.0  0.77330  0.93070  0.28990  1.0000 0.1091030712
H   H553      1.0  0.74440  0.89340  0.38120  1.0000 0.1228824641
H   H554      1.0  0.70300  0.89000  0.43960  1.0000 0.1374493962
H   H555      1.0  0.70590  0.83470  0.48530  1.0000 0.1091030712
H   H556      1.0  0.76300  0.72500  0.57000  1.0000 0.1023451637
H   H557      1.0  0.77550  0.67370  0.61770  1.0000 0.1374493962
H   H558      1.0  0.78100  0.61860  0.62060  1.0000 0.1228824641
H   H559      1.0  0.78900  0.78500  0.41840  1.0000 0.1023451637
H   H560      1.0  0.75790  0.67050  0.52830  1.0000 0.1091030712
H   H561      1.0  0.27690  0.51850  0.91030  1.0000 0.1091030712
H   H562      1.0  0.36220  0.55340  0.84700  1.0000 0.1228824641
H   H563      1.0  0.35390  0.56750  0.89430  1.0000 0.1374493962
H   H564      1.0  0.30930  0.55330  0.94930  1.0000 0.1023451637
H   H565      1.0  0.19390  0.49530  0.82430  1.0000 0.1023451637
H   H566      1.0  0.18950  0.49850  0.87570  1.0000 0.1374493962
H   H567      1.0  0.23580  0.50880  0.87540  1.0000 0.1228824641
H   H568      1.0  0.28990  0.50610  0.77330  1.0000 0.1091030712
H   H569      1.0  0.38120  0.48100  0.74440  1.0000 0.1228824641
H   H570      1.0  0.43960  0.46740  0.70300  1.0000 0.1374493962
H   H571      1.0  0.48530  0.47410  0.70590  1.0000 0.1091030712
H   H572      1.0  0.57000  0.44200  0.76300  1.0000 0.1023451637
H   H573      1.0  0.61770  0.43310  0.77550  1.0000 0.1374493962
H   H574      1.0  0.62060  0.47980  0.78100  1.0000 0.1228824641
H   H575      1.0  0.41840  0.50760  0.78900  1.0000 0.1023451637
H   H576      1.0  0.52830  0.54330  0.75790  1.0000 0.1091030712
H   H577      1.0  0.70570  0.98150  0.58970  1.0000 0.1091030712
H   H578      1.0  0.76260  0.94660  0.65300  1.0000 0.1228824641
H   H579      1.0  0.81570  0.93250  0.60570  1.0000 0.1374493962
H   H580      1.0  0.81190  0.94670  0.55070  1.0000 0.1023451637
H   H581      1.0  0.51350  0.00470  0.67570  1.0000 0.1023451637
H   H582      1.0  0.56370  0.00150  0.62430  1.0000 0.1374493962
H   H583      1.0  0.62000  0.99120  0.62460  1.0000 0.1228824641
H   H584      1.0  0.56930  0.99390  0.72670  1.0000 0.1091030712
H   H585      1.0  0.60660  0.01900  0.75560  1.0000 0.1228824641
H   H586      1.0  0.61000  0.03260  0.79700  1.0000 0.1374493962
H   H587      1.0  0.66530  0.02590  0.79410  1.0000 0.1091030712
H   H588      1.0  0.77500  0.05800  0.73700  1.0000 0.1023451637
H   H589      1.0  0.82630  0.06690  0.72450  1.0000 0.1374493962
H   H590      1.0  0.88140  0.02020  0.71900  1.0000 0.1228824641
H   H591      1.0  0.71500  0.99240  0.71100  1.0000 0.1023451637
H   H592      1.0  0.82950  0.95670  0.74210  1.0000 0.1091030712
H   H593      1.0  0.98150  0.70570  0.22310  1.0000 0.1091030712
H   H594      1.0  0.94660  0.76260  0.13780  1.0000 0.1228824641
H   H595      1.0  0.93250  0.81570  0.14610  1.0000 0.1374493962
H   H596      1.0  0.94670  0.81190  0.19070  1.0000 0.1023451637
H   H597      1.0  0.00470  0.51350  0.30610  1.0000 0.1023451637
H   H598      1.0  0.00150  0.56370  0.31050  1.0000 0.1374493962
H   H599      1.0  0.99120  0.62000  0.26420  1.0000 0.1228824641
H   H600      1.0  0.99390  0.56930  0.21010  1.0000 0.1091030712
H   H601      1.0  0.01900  0.60660  0.11880  1.0000 0.1228824641
H   H602      1.0  0.03260  0.61000  0.06040  1.0000 0.1374493962
H   H603      1.0  0.02590  0.66530  0.01470  1.0000 0.1091030712
H   H604      1.0  0.05800  0.77500  0.93000  1.0000 0.1023451637
H   H605      1.0  0.06690  0.82630  0.88230  1.0000 0.1374493962
H   H606      1.0  0.02020  0.88140  0.87940  1.0000 0.1228824641
H   H607      1.0  0.99240  0.71500  0.08160  1.0000 0.1023451637
H   H608      1.0  0.95670  0.82950  0.97170  1.0000 0.1091030712
H   H609      1.0  0.22310  0.58970  0.98150  1.0000 0.1091030712
H   H610      1.0  0.13780  0.65300  0.94660  1.0000 0.1228824641
H   H611      1.0  0.14610  0.60570  0.93250  1.0000 0.1374493962
H   H612      1.0  0.19070  0.55070  0.94670  1.0000 0.1023451637
H   H613      1.0  0.30610  0.67570  0.00470  1.0000 0.1023451637
H   H614      1.0  0.31050  0.62430  0.00150  1.0000 0.1374493962
H   H615      1.0  0.26420  0.62460  0.99120  1.0000 0.1228824641
H   H616      1.0  0.21010  0.72670  0.99390  1.0000 0.1091030712
H   H617      1.0  0.11880  0.75560  0.01900  1.0000 0.1228824641
H   H618      1.0  0.06040  0.79700  0.03260  1.0000 0.1374493962
H   H619      1.0  0.01470  0.79410  0.02590  1.0000 0.1091030712
H   H620      1.0  0.93000  0.73700  0.05800  1.0000 0.1023451637
H   H621      1.0  0.88230  0.72450  0.06690  1.0000 0.1374493962
H   H622      1.0  0.87940  0.71900  0.02020  1.0000 0.1228824641
H   H623      1.0  0.08160  0.71100  0.99240  1.0000 0.1023451637
H   H624      1.0  0.97170  0.74210  0.95670  1.0000 0.1091030712
H   H625      1.0  0.58970  0.22310  0.70570  1.0000 0.1091030712
H   H626      1.0  0.65300  0.13780  0.76260  1.0000 0.1228824641
H   H627      1.0  0.60570  0.14610  0.81570  1.0000 0.1374493962
H   H628      1.0  0.55070  0.19070  0.81190  1.0000 0.1023451637
H   H629      1.0  0.67570  0.30610  0.51350  1.0000 0.1023451637
H   H630      1.0  0.62430  0.31050  0.56370  1.0000 0.1374493962
H   H631      1.0  0.62460  0.26420  0.62000  1.0000 0.1228824641
H   H632      1.0  0.72670  0.21010  0.56930  1.0000 0.1091030712
H   H633      1.0  0.75560  0.11880  0.60660  1.0000 0.1228824641
H   H634      1.0  0.79700  0.06040  0.61000  1.0000 0.1374493962
H   H635      1.0  0.79410  0.01470  0.66530  1.0000 0.1091030712
H   H636      1.0  0.73700  0.93000  0.77500  1.0000 0.1023451637
H   H637      1.0  0.72450  0.88230  0.82630  1.0000 0.1374493962
H   H638      1.0  0.71900  0.87940  0.88140  1.0000 0.1228824641
H   H639      1.0  0.71100  0.08160  0.71500  1.0000 0.1023451637
H   H640      1.0  0.74210  0.97170  0.82950  1.0000 0.1091030712
H   H641      1.0  0.22310  0.70570  0.58970  1.0000 0.1091030712
H   H642      1.0  0.13780  0.76260  0.65300  1.0000 0.1228824641
H   H643      1.0  0.14610  0.81570  0.60570  1.0000 0.1374493962
H   H644      1.0  0.19070  0.81190  0.55070  1.0000 0.1023451637
H   H645      1.0  0.30610  0.51350  0.67570  1.0000 0.1023451637
H   H646      1.0  0.31050  0.56370  0.62430  1.0000 0.1374493962
H   H647      1.0  0.26420  0.62000  0.62460  1.0000 0.1228824641
H   H648      1.0  0.21010  0.56930  0.72670  1.0000 0.1091030712
H   H649      1.0  0.11880  0.60660  0.75560  1.0000 0.1228824641
H   H650      1.0  0.06040  0.61000  0.79700  1.0000 0.1374493962
H   H651      1.0  0.01470  0.66530  0.79410  1.0000 0.1091030712
H   H652      1.0  0.93000  0.77500  0.73700  1.0000 0.1023451637
H   H653      1.0  0.88230  0.82630  0.72450  1.0000 0.1374493962
H   H654      1.0  0.87940  0.88140  0.71900  1.0000 0.1228824641
H   H655      1.0  0.08160  0.71500  0.71100  1.0000 0.1023451637
H   H656      1.0  0.97170  0.82950  0.74210  1.0000 0.1091030712
H   H657      1.0  0.58970  0.98150  0.22310  1.0000 0.1091030712
H   H658      1.0  0.65300  0.94660  0.13780  1.0000 0.1228824641
H   H659      1.0  0.60570  0.93250  0.14610  1.0000 0.1374493962
H   H660      1.0  0.55070  0.94670  0.19070  1.0000 0.1023451637
H   H661      1.0  0.67570  0.00470  0.30610  1.0000 0.1023451637
H   H662      1.0  0.62430  0.00150  0.31050  1.0000 0.1374493962
H   H663      1.0  0.62460  0.99120  0.26420  1.0000 0.1228824641
H   H664      1.0  0.72670  0.99390  0.21010  1.0000 0.1091030712
H   H665      1.0  0.75560  0.01900  0.11880  1.0000 0.1228824641
H   H666      1.0  0.79700  0.03260  0.06040  1.0000 0.1374493962
H   H667      1.0  0.79410  0.02590  0.01470  1.0000 0.1091030712
H   H668      1.0  0.73700  0.05800  0.93000  1.0000 0.1023451637
H   H669      1.0  0.72450  0.06690  0.88230  1.0000 0.1374493962
H   H670      1.0  0.71900  0.02020  0.87940  1.0000 0.1228824641
H   H671      1.0  0.71100  0.99240  0.08160  1.0000 0.1023451637
H   H672      1.0  0.74210  0.95670  0.97170  1.0000 0.1091030712
H   H673      1.0  0.70570  0.22310  0.98150  1.0000 0.1091030712
H   H674      1.0  0.76260  0.13780  0.94660  1.0000 0.1228824641
H   H675      1.0  0.81570  0.14610  0.93250  1.0000 0.1374493962
H   H676      1.0  0.81190  0.19070  0.94670  1.0000 0.1023451637
H   H677      1.0  0.51350  0.30610  0.00470  1.0000 0.1023451637
H   H678      1.0  0.56370  0.31050  0.00150  1.0000 0.1374493962
H   H679      1.0  0.62000  0.26420  0.99120  1.0000 0.1228824641
H   H680      1.0  0.56930  0.21010  0.99390  1.0000 0.1091030712
H   H681      1.0  0.60660  0.11880  0.01900  1.0000 0.1228824641
H   H682      1.0  0.61000  0.06040  0.03260  1.0000 0.1374493962
H   H683      1.0  0.66530  0.01470  0.02590  1.0000 0.1091030712
H   H684      1.0  0.77500  0.93000  0.05800  1.0000 0.1023451637
H   H685      1.0  0.82630  0.88230  0.06690  1.0000 0.1374493962
H   H686      1.0  0.88140  0.87940  0.02020  1.0000 0.1228824641
H   H687      1.0  0.71500  0.08160  0.99240  1.0000 0.1023451637
H   H688      1.0  0.82950  0.97170  0.95670  1.0000 0.1091030712
H   H689      1.0  0.98150  0.58970  0.70570  1.0000 0.1091030712
H   H690      1.0  0.94660  0.65300  0.76260  1.0000 0.1228824641
H   H691      1.0  0.93250  0.60570  0.81570  1.0000 0.1374493962
H   H692      1.0  0.94670  0.55070  0.81190  1.0000 0.1023451637
H   H693      1.0  0.00470  0.67570  0.51350  1.0000 0.1023451637
H   H694      1.0  0.00150  0.62430  0.56370  1.0000 0.1374493962
H   H695      1.0  0.99120  0.62460  0.62000  1.0000 0.1228824641
H   H696      1.0  0.99390  0.72670  0.56930  1.0000 0.1091030712
H   H697      1.0  0.01900  0.75560  0.60660  1.0000 0.1228824641
H   H698      1.0  0.03260  0.79700  0.61000  1.0000 0.1374493962
H   H699      1.0  0.02590  0.79410  0.66530  1.0000 0.1091030712
H   H700      1.0  0.05800  0.73700  0.77500  1.0000 0.1023451637
H   H701      1.0  0.06690  0.72450  0.82630  1.0000 0.1374493962
H   H702      1.0  0.02020  0.71900  0.88140  1.0000 0.1228824641
H   H703      1.0  0.99240  0.71100  0.71500  1.0000 0.1023451637
H   H704      1.0  0.95670  0.74210  0.82950  1.0000 0.1091030712
H   H705      1.0  0.98150  0.22310  0.58970  1.0000 0.1091030712
H   H706      1.0  0.94660  0.13780  0.65300  1.0000 0.1228824641
H   H707      1.0  0.93250  0.14610  0.60570  1.0000 0.1374493962
H   H708      1.0  0.94670  0.19070  0.55070  1.0000 0.1023451637
H   H709      1.0  0.00470  0.30610  0.67570  1.0000 0.1023451637
H   H710      1.0  0.00150  0.31050  0.62430  1.0000 0.1374493962
H   H711      1.0  0.99120  0.26420  0.62460  1.0000 0.1228824641
H   H712      1.0  0.99390  0.21010  0.72670  1.0000 0.1091030712
H   H713      1.0  0.01900  0.11880  0.75560  1.0000 0.1228824641
H   H714      1.0  0.03260  0.06040  0.79700  1.0000 0.1374493962
H   H715      1.0  0.02590  0.01470  0.79410  1.0000 0.1091030712
H   H716      1.0  0.05800  0.93000  0.73700  1.0000 0.1023451637
H   H717      1.0  0.06690  0.88230  0.72450  1.0000 0.1374493962
H   H718      1.0  0.02020  0.87940  0.71900  1.0000 0.1228824641
H   H719      1.0  0.99240  0.08160  0.71100  1.0000 0.1023451637
H   H720      1.0  0.95670  0.97170  0.74210  1.0000 0.1091030712
H   H721      1.0  0.70570  0.58970  0.22310  1.0000 0.1091030712
H   H722      1.0  0.76260  0.65300  0.13780  1.0000 0.1228824641
H   H723      1.0  0.81570  0.60570  0.14610  1.0000 0.1374493962
H   H724      1.0  0.81190  0.55070  0.19070  1.0000 0.1023451637
H   H725      1.0  0.51350  0.67570  0.30610  1.0000 0.1023451637
H   H726      1.0  0.56370  0.62430  0.31050  1.0000 0.1374493962
H   H727      1.0  0.62000  0.62460  0.26420  1.0000 0.1228824641
H   H728      1.0  0.56930  0.72670  0.21010  1.0000 0.1091030712
H   H729      1.0  0.60660  0.75560  0.11880  1.0000 0.1228824641
H   H730      1.0  0.61000  0.79700  0.06040  1.0000 0.1374493962
H   H731      1.0  0.66530  0.79410  0.01470  1.0000 0.1091030712
H   H732      1.0  0.77500  0.73700  0.93000  1.0000 0.1023451637
H   H733      1.0  0.82630  0.72450  0.88230  1.0000 0.1374493962
H   H734      1.0  0.88140  0.71900  0.87940  1.0000 0.1228824641
H   H735      1.0  0.71500  0.71100  0.08160  1.0000 0.1023451637
H   H736      1.0  0.82950  0.74210  0.97170  1.0000 0.1091030712
H   H737      1.0  0.58970  0.70570  0.98150  1.0000 0.1091030712
H   H738      1.0  0.65300  0.76260  0.94660  1.0000 0.1228824641
H   H739      1.0  0.60570  0.81570  0.93250  1.0000 0.1374493962
H   H740      1.0  0.55070  0.81190  0.94670  1.0000 0.1023451637
H   H741      1.0  0.67570  0.51350  0.00470  1.0000 0.1023451637
H   H742      1.0  0.62430  0.56370  0.00150  1.0000 0.1374493962
H   H743      1.0  0.62460  0.62000  0.99120  1.0000 0.1228824641
H   H744      1.0  0.72670  0.56930  0.99390  1.0000 0.1091030712
H   H745      1.0  0.75560  0.60660  0.01900  1.0000 0.1228824641
H   H746      1.0  0.79700  0.61000  0.03260  1.0000 0.1374493962
H   H747      1.0  0.79410  0.66530  0.02590  1.0000 0.1091030712
H   H748      1.0  0.73700  0.77500  0.05800  1.0000 0.1023451637
H   H749      1.0  0.72450  0.82630  0.06690  1.0000 0.1374493962
H   H750      1.0  0.71900  0.88140  0.02020  1.0000 0.1228824641
H   H751      1.0  0.71100  0.71500  0.99240  1.0000 0.1023451637
H   H752      1.0  0.74210  0.82950  0.95670  1.0000 0.1091030712
H   H753      1.0  0.22310  0.98150  0.70570  1.0000 0.1091030712
H   H754      1.0  0.13780  0.94660  0.76260  1.0000 0.1228824641
H   H755      1.0  0.14610  0.93250  0.81570  1.0000 0.1374493962
H   H756      1.0  0.19070  0.94670  0.81190  1.0000 0.1023451637
H   H757      1.0  0.30610  0.00470  0.51350  1.0000 0.1023451637
H   H758      1.0  0.31050  0.00150  0.56370  1.0000 0.1374493962
H   H759      1.0  0.26420  0.99120  0.62000  1.0000 0.1228824641
H   H760      1.0  0.21010  0.99390  0.56930  1.0000 0.1091030712
H   H761      1.0  0.11880  0.01900  0.60660  1.0000 0.1228824641
H   H762      1.0  0.06040  0.03260  0.61000  1.0000 0.1374493962
H   H763      1.0  0.01470  0.02590  0.66530  1.0000 0.1091030712
H   H764      1.0  0.93000  0.05800  0.77500  1.0000 0.1023451637
H   H765      1.0  0.88230  0.06690  0.82630  1.0000 0.1374493962
H   H766      1.0  0.87940  0.02020  0.88140  1.0000 0.1228824641
H   H767      1.0  0.08160  0.99240  0.71500  1.0000 0.1023451637
H   H768      1.0  0.97170  0.95670  0.82950  1.0000 0.1091030712
C   C1        1.0  0.33645  0.46069  0.72287  1.0000 0.2424770163
C   C2        1.0  0.29455  0.44197  0.55461  1.0000 0.2424770163
C   C3        1.0  0.22837  0.47223  0.70679  1.0000 0.0611520301
C   C4        1.0  0.22889  0.46443  0.68059  1.0000 -0.0211846221
C   C5        1.0  0.26161  0.45083  0.65683  1.0000 -0.058461406
C   C6        1.0  0.29278  0.44336  0.66112  1.0000 -0.1290228431
C   C7        1.0  0.29020  0.45190  0.68788  1.0000 0.0722865792
C   C8        1.0  0.03579  0.50161  0.78679  1.0000 0.0844448283
C   C9        1.0  0.06574  0.49924  0.78982  1.0000 -0.1290228431
C   C10       1.0  0.09890  0.49358  0.76236  1.0000 -0.058461406
C   C11       1.0  0.10009  0.49165  0.73183  1.0000 -0.0327305448
C   C12       1.0  0.06851  0.49497  0.73087  1.0000 0.0722865792
C   C13       1.0  0.13339  0.48825  0.70095  1.0000 0.3777637816
C   C14       1.0  0.19423  0.47463  0.67659  1.0000 0.3777637816
C   C15       1.0  0.16239  0.49285  0.64195  1.0000 0.3611029889
C   C16       1.0  0.16127  0.50287  0.60627  1.0000 -0.0211846221
C   C17       1.0  0.12922  0.51588  0.60000  1.0000 -0.0543152985
C   C18       1.0  0.13128  0.52414  0.56550  1.0000 -0.1290228431
C   C19       1.0  0.16442  0.52016  0.53822  1.0000 0.0852324148
C   C20       1.0  0.29713  0.53837  0.42907  1.0000 0.0722865792
C   C21       1.0  0.32770  0.54398  0.40068  1.0000 -0.1290228431
C   C22       1.0  0.36015  0.51649  0.39897  1.0000 -0.0543152985
C   C23       1.0  0.19333  0.50031  0.57743  1.0000 0.0542346145
C   C24       1.0  0.36160  0.48304  0.42624  1.0000 -0.0327305448
C   C25       1.0  0.32901  0.47953  0.45353  1.0000 0.0611520301
C   C26       1.0  0.39522  0.45242  0.42498  1.0000 0.3611029889
C   C27       1.0  0.46069  0.33645  0.97999  1.0000 0.2424770163
C   C28       1.0  0.44197  0.29455  0.20887  1.0000 0.2424770163
C   C29       1.0  0.47223  0.22837  0.09261  1.0000 0.0611520301
C   C30       1.0  0.46443  0.22889  0.12609  1.0000 -0.0211846221
C   C31       1.0  0.45083  0.26161  0.13073  1.0000 -0.058461406
C   C32       1.0  0.44336  0.29278  0.10274  1.0000 -0.1290228431
C   C33       1.0  0.45190  0.29020  0.07002  1.0000 0.0722865792
C   C34       1.0  0.50161  0.03579  0.17581  1.0000 0.0852324148
C   C35       1.0  0.49924  0.06574  0.14520  1.0000 -0.1290228431
C   C36       1.0  0.49358  0.09890  0.14516  1.0000 -0.058461406
C   C37       1.0  0.49165  0.10009  0.17643  1.0000 -0.0327305448
C   C38       1.0  0.49497  0.06851  0.20565  1.0000 0.0722865792
C   C39       1.0  0.48825  0.13339  0.17741  1.0000 0.3777637816
C   C40       1.0  0.47463  0.19423  0.15455  1.0000 0.3777637816
C   C41       1.0  0.49285  0.16239  0.20281  1.0000 0.3611029889
C   C42       1.0  0.50287  0.16127  0.22959  1.0000 -0.0211846221
C   C43       1.0  0.51588  0.12922  0.25490  1.0000 -0.0543152985
C   C44       1.0  0.52414  0.13128  0.27908  1.0000 -0.1290228431
C   C45       1.0  0.52016  0.16442  0.27720  1.0000 0.0852324148
C   C46       1.0  0.53837  0.29713  0.23543  1.0000 0.0722865792
C   C47       1.0  0.54398  0.32770  0.22764  1.0000 -0.1246313507
C   C48       1.0  0.51649  0.36015  0.22439  1.0000 -0.0543152985
C   C49       1.0  0.50031  0.19333  0.22893  1.0000 0.0542346145
C   C50       1.0  0.48304  0.36160  0.22912  1.0000 -0.0327305448
C   C51       1.0  0.47953  0.32901  0.23793  1.0000 0.0611520301
C   C52       1.0  0.45242  0.39522  0.22738  1.0000 0.3611029889
C   C53       1.0  0.72287  0.97999  0.33645  1.0000 0.2424770163
C   C54       1.0  0.55461  0.20887  0.29455  1.0000 0.2424770163
C   C55       1.0  0.70679  0.09261  0.22837  1.0000 0.0611520301
C   C56       1.0  0.68059  0.12609  0.22889  1.0000 -0.0211846221
C   C57       1.0  0.65683  0.13073  0.26161  1.0000 -0.058461406
C   C58       1.0  0.66112  0.10274  0.29278  1.0000 -0.1290228431
C   C59       1.0  0.68788  0.07002  0.29020  1.0000 0.0722865792
C   C60       1.0  0.78679  0.17581  0.03579  1.0000 0.0852324148
C   C61       1.0  0.78982  0.14520  0.06574  1.0000 -0.1290228431
C   C62       1.0  0.76236  0.14516  0.09890  1.0000 -0.058461406
C   C63       1.0  0.73183  0.17643  0.10009  1.0000 -0.0327305448
C   C64       1.0  0.73087  0.20565  0.06851  1.0000 0.0722865792
C   C65       1.0  0.70095  0.17741  0.13339  1.0000 0.3777637816
C   C66       1.0  0.67659  0.15455  0.19423  1.0000 0.3777637816
C   C67       1.0  0.64195  0.20281  0.16239  1.0000 0.3611029889
C   C68       1.0  0.60627  0.22959  0.16127  1.0000 -0.0211846221
C   C69       1.0  0.60000  0.25490  0.12922  1.0000 -0.0543152985
C   C70       1.0  0.56550  0.27908  0.13128  1.0000 -0.1290228431
C   C71       1.0  0.53822  0.27720  0.16442  1.0000 0.0852324148
C   C72       1.0  0.42907  0.23543  0.29713  1.0000 0.0722865792
C   C73       1.0  0.40068  0.22764  0.32770  1.0000 -0.1246313507
C   C74       1.0  0.39897  0.22439  0.36015  1.0000 -0.0543152985
C   C75       1.0  0.57743  0.22893  0.19333  1.0000 0.0542346145
C   C76       1.0  0.42624  0.22912  0.36160  1.0000 -0.0327305448
C   C77       1.0  0.45353  0.23793  0.32901  1.0000 0.0611520301
C   C78       1.0  0.42498  0.22738  0.39522  1.0000 0.3611029889
C   C79       1.0  0.97999  0.72287  0.46069  1.0000 0.2424770163
C   C80       1.0  0.20887  0.55461  0.44197  1.0000 0.2424770163
C   C81       1.0  0.09261  0.70679  0.47223  1.0000 0.0611520301
C   C82       1.0  0.12609  0.68059  0.46443  1.0000 -0.0211846221
C   C83       1.0  0.13073  0.65683  0.45083  1.0000 -0.058461406
C   C84       1.0  0.10274  0.66112  0.44336  1.0000 -0.1290228431
C   C85       1.0  0.07002  0.68788  0.45190  1.0000 0.0722865792
C   C86       1.0  0.17581  0.78679  0.50161  1.0000 0.0844448283
C   C87       1.0  0.14520  0.78982  0.49924  1.0000 -0.1290228431
C   C88       1.0  0.14516  0.76236  0.49358  1.0000 -0.058461406
C   C89       1.0  0.17643  0.73183  0.49165  1.0000 -0.0327305448
C   C90       1.0  0.20565  0.73087  0.49497  1.0000 0.0722865792
C   C91       1.0  0.17741  0.70095  0.48825  1.0000 0.3777637816
C   C92       1.0  0.15455  0.67659  0.47463  1.0000 0.3777637816
C   C93       1.0  0.20281  0.64195  0.49285  1.0000 0.3611029889
C   C94       1.0  0.22959  0.60627  0.50287  1.0000 -0.0211846221
C   C95       1.0  0.25490  0.60000  0.51588  1.0000 -0.0543152985
C   C96       1.0  0.27908  0.56550  0.52414  1.0000 -0.1290228431
C   C97       1.0  0.27720  0.53822  0.52016  1.0000 0.0852324148
C   C98       1.0  0.23543  0.42907  0.53837  1.0000 0.0722865792
C   C99       1.0  0.22764  0.40068  0.54398  1.0000 -0.1246313507
C   C100      1.0  0.22439  0.39897  0.51649  1.0000 -0.058461406
C   C101      1.0  0.22893  0.57743  0.50031  1.0000 0.0542346145
C   C102      1.0  0.22912  0.42624  0.48304  1.0000 -0.0327305448
C   C103      1.0  0.23793  0.45353  0.47953  1.0000 0.0611520301
C   C104      1.0  0.22738  0.42498  0.45242  1.0000 0.3611029889
C   C105      1.0  0.72287  0.33645  0.46069  1.0000 0.2424770163
C   C106      1.0  0.55461  0.29455  0.44197  1.0000 0.2424770163
C   C107      1.0  0.70679  0.22837  0.47223  1.0000 0.0611520301
C   C108      1.0  0.68059  0.22889  0.46443  1.0000 -0.0211846221
C   C109      1.0  0.65683  0.26161  0.45083  1.0000 -0.058461406
C   C110      1.0  0.66112  0.29278  0.44336  1.0000 -0.1290228431
C   C111      1.0  0.68788  0.29020  0.45190  1.0000 0.0722865792
C   C112      1.0  0.78679  0.03579  0.50161  1.0000 0.0852324148
C   C113      1.0  0.78982  0.06574  0.49924  1.0000 -0.1290228431
C   C114      1.0  0.76236  0.09890  0.49358  1.0000 -0.058461406
C   C115      1.0  0.73183  0.10009  0.49165  1.0000 -0.0327305448
C   C116      1.0  0.73087  0.06851  0.49497  1.0000 0.0722865792
C   C117      1.0  0.70095  0.13339  0.48825  1.0000 0.3777637816
C   C118      1.0  0.67659  0.19423  0.47463  1.0000 0.3777637816
C   C119      1.0  0.64195  0.16239  0.49285  1.0000 0.3611029889
C   C120      1.0  0.60627  0.16127  0.50287  1.0000 -0.0211846221
C   C121      1.0  0.60000  0.12922  0.51588  1.0000 -0.0543152985
C   C122      1.0  0.56550  0.13128  0.52414  1.0000 -0.1290228431
C   C123      1.0  0.53822  0.16442  0.52016  1.0000 0.0852324148
C   C124      1.0  0.42907  0.29713  0.53837  1.0000 0.0722865792
C   C125      1.0  0.40068  0.32770  0.54398  1.0000 -0.1246313507
C   C126      1.0  0.39897  0.36015  0.51649  1.0000 -0.0543152985
C   C127      1.0  0.57743  0.19333  0.50031  1.0000 0.0542346145
C   C128      1.0  0.42624  0.36160  0.48304  1.0000 -0.0327305448
C   C129      1.0  0.45353  0.32901  0.47953  1.0000 0.0611520301
C   C130      1.0  0.42498  0.39522  0.45242  1.0000 0.3611029889
C   C131      1.0  0.97999  0.46069  0.33645  1.0000 0.2424770163
C   C132      1.0  0.20887  0.44197  0.29455  1.0000 0.2424770163
C   C133      1.0  0.09261  0.47223  0.22837  1.0000 0.0611520301
C   C134      1.0  0.12609  0.46443  0.22889  1.0000 -0.0211846221
C   C135      1.0  0.13073  0.45083  0.26161  1.0000 -0.058461406
C   C136      1.0  0.10274  0.44336  0.29278  1.0000 -0.1290228431
C   C137      1.0  0.07002  0.45190  0.29020  1.0000 0.0722865792
C   C138      1.0  0.17581  0.50161  0.03579  1.0000 0.0852324148
C   C139      1.0  0.14520  0.49924  0.06574  1.0000 -0.1290228431
C   C140      1.0  0.14516  0.49358  0.09890  1.0000 -0.058461406
C   C141      1.0  0.17643  0.49165  0.10009  1.0000 -0.0327305448
C   C142      1.0  0.20565  0.49497  0.06851  1.0000 0.0722865792
C   C143      1.0  0.17741  0.48825  0.13339  1.0000 0.3777637816
C   C144      1.0  0.15455  0.47463  0.19423  1.0000 0.3777637816
C   C145      1.0  0.20281  0.49285  0.16239  1.0000 0.3611029889
C   C146      1.0  0.22959  0.50287  0.16127  1.0000 -0.0211846221
C   C147      1.0  0.25490  0.51588  0.12922  1.0000 -0.058461406
C   C148      1.0  0.27908  0.52414  0.13128  1.0000 -0.1290228431
C   C149      1.0  0.27720  0.52016  0.16442  1.0000 0.0852324148
C   C150      1.0  0.23543  0.53837  0.29713  1.0000 0.0722865792
C   C151      1.0  0.22764  0.54398  0.32770  1.0000 -0.1246313507
C   C152      1.0  0.22439  0.51649  0.36015  1.0000 -0.0543152985
C   C153      1.0  0.22893  0.50031  0.19333  1.0000 0.0542346145
C   C154      1.0  0.22912  0.48304  0.36160  1.0000 -0.0327305448
C   C155      1.0  0.23793  0.47953  0.32901  1.0000 0.0611520301
C   C156      1.0  0.22738  0.45242  0.39522  1.0000 0.3611029889
C   C157      1.0  0.33645  0.72287  0.97999  1.0000 0.2424770163
C   C158      1.0  0.29455  0.55461  0.20887  1.0000 0.2424770163
C   C159      1.0  0.22837  0.70679  0.09261  1.0000 0.0611520301
C   C160      1.0  0.22889  0.68059  0.12609  1.0000 -0.0211846221
C   C161      1.0  0.26161  0.65683  0.13073  1.0000 -0.058461406
C   C162      1.0  0.29278  0.66112  0.10274  1.0000 -0.1290228431
C   C163      1.0  0.29020  0.68788  0.07002  1.0000 0.0722865792
C   C164      1.0  0.03579  0.78679  0.17581  1.0000 0.0844448283
C   C165      1.0  0.06574  0.78982  0.14520  1.0000 -0.1290228431
C   C166      1.0  0.09890  0.76236  0.14516  1.0000 -0.058461406
C   C167      1.0  0.10009  0.73183  0.17643  1.0000 -0.0327305448
C   C168      1.0  0.06851  0.73087  0.20565  1.0000 0.0722865792
C   C169      1.0  0.13339  0.70095  0.17741  1.0000 0.3777637816
C   C170      1.0  0.19423  0.67659  0.15455  1.0000 0.3777637816
C   C171      1.0  0.16239  0.64195  0.20281  1.0000 0.3611029889
C   C172      1.0  0.16127  0.60627  0.22959  1.0000 -0.0211846221
C   C173      1.0  0.12922  0.60000  0.25490  1.0000 -0.058461406
C   C174      1.0  0.13128  0.56550  0.27908  1.0000 -0.1290228431
C   C175      1.0  0.16442  0.53822  0.27720  1.0000 0.0852324148
C   C176      1.0  0.29713  0.42907  0.23543  1.0000 0.0722865792
C   C177      1.0  0.32770  0.40068  0.22764  1.0000 -0.1246313507
C   C178      1.0  0.36015  0.39897  0.22439  1.0000 -0.0543152985
C   C179      1.0  0.19333  0.57743  0.22893  1.0000 0.0542346145
C   C180      1.0  0.36160  0.42624  0.22912  1.0000 -0.0327305448
C   C181      1.0  0.32901  0.45353  0.23793  1.0000 0.0611520301
C   C182      1.0  0.39522  0.42498  0.22738  1.0000 0.3611029889
C   C183      1.0  0.46069  0.97999  0.72287  1.0000 0.2424770163
C   C184      1.0  0.44197  0.20887  0.55461  1.0000 0.2424770163
C   C185      1.0  0.47223  0.09261  0.70679  1.0000 0.0611520301
C   C186      1.0  0.46443  0.12609  0.68059  1.0000 -0.0211846221
C   C187      1.0  0.45083  0.13073  0.65683  1.0000 -0.058461406
C   C188      1.0  0.44336  0.10274  0.66112  1.0000 -0.1290228431
C   C189      1.0  0.45190  0.07002  0.68788  1.0000 0.0722865792
C   C190      1.0  0.50161  0.17581  0.78679  1.0000 0.0852324148
C   C191      1.0  0.49924  0.14520  0.78982  1.0000 -0.1290228431
C   C192      1.0  0.49358  0.14516  0.76236  1.0000 -0.058461406
C   C193      1.0  0.49165  0.17643  0.73183  1.0000 -0.0327305448
C   C194      1.0  0.49497  0.20565  0.73087  1.0000 0.0722865792
C   C195      1.0  0.48825  0.17741  0.70095  1.0000 0.3777637816
C   C196      1.0  0.47463  0.15455  0.67659  1.0000 0.3777637816
C   C197      1.0  0.49285  0.20281  0.64195  1.0000 0.3611029889
C   C198      1.0  0.50287  0.22959  0.60627  1.0000 -0.0211846221
C   C199      1.0  0.51588  0.25490  0.60000  1.0000 -0.0543152985
C   C200      1.0  0.52414  0.27908  0.56550  1.0000 -0.1290228431
C   C201      1.0  0.52016  0.27720  0.53822  1.0000 0.0852324148
C   C202      1.0  0.53837  0.23543  0.42907  1.0000 0.0722865792
C   C203      1.0  0.54398  0.22764  0.40068  1.0000 -0.1246313507
C   C204      1.0  0.51649  0.22439  0.39897  1.0000 -0.0543152985
C   C205      1.0  0.50031  0.22893  0.57743  1.0000 0.0542346145
C   C206      1.0  0.48304  0.22912  0.42624  1.0000 -0.0327305448
C   C207      1.0  0.47953  0.23793  0.45353  1.0000 0.0611520301
C   C208      1.0  0.45242  0.22738  0.42498  1.0000 0.3611029889
C   C209      1.0  0.46069  0.72287  0.33645  1.0000 0.2424770163
C   C210      1.0  0.44197  0.55461  0.29455  1.0000 0.2424770163
C   C211      1.0  0.47223  0.70679  0.22837  1.0000 0.0611520301
C   C212      1.0  0.46443  0.68059  0.22889  1.0000 -0.0211846221
C   C213      1.0  0.45083  0.65683  0.26161  1.0000 -0.058461406
C   C214      1.0  0.44336  0.66112  0.29278  1.0000 -0.1290228431
C   C215      1.0  0.45190  0.68788  0.29020  1.0000 0.0722865792
C   C216      1.0  0.50161  0.78679  0.03579  1.0000 0.0844448283
C   C217      1.0  0.49924  0.78982  0.06574  1.0000 -0.1290228431
C   C218      1.0  0.49358  0.76236  0.09890  1.0000 -0.058461406
C   C219      1.0  0.49165  0.73183  0.10009  1.0000 -0.0327305448
C   C220      1.0  0.49497  0.73087  0.06851  1.0000 0.0722865792
C   C221      1.0  0.48825  0.70095  0.13339  1.0000 0.3777637816
C   C222      1.0  0.47463  0.67659  0.19423  1.0000 0.3777637816
C   C223      1.0  0.49285  0.64195  0.16239  1.0000 0.3611029889
C   C224      1.0  0.50287  0.60627  0.16127  1.0000 -0.0211846221
C   C225      1.0  0.51588  0.60000  0.12922  1.0000 -0.058461406
C   C226      1.0  0.52414  0.56550  0.13128  1.0000 -0.1290228431
C   C227      1.0  0.52016  0.53822  0.16442  1.0000 0.0852324148
C   C228      1.0  0.53837  0.42907  0.29713  1.0000 0.0722865792
C   C229      1.0  0.54398  0.40068  0.32770  1.0000 -0.1246313507
C   C230      1.0  0.51649  0.39897  0.36015  1.0000 -0.0543152985
C   C231      1.0  0.50031  0.57743  0.19333  1.0000 0.0542346145
C   C232      1.0  0.48304  0.42624  0.36160  1.0000 -0.0327305448
C   C233      1.0  0.47953  0.45353  0.32901  1.0000 0.0611520301
C   C234      1.0  0.45242  0.42498  0.39522  1.0000 0.3611029889
C   C235      1.0  0.33645  0.97999  0.46069  1.0000 0.2424770163
C   C236      1.0  0.29455  0.20887  0.44197  1.0000 0.2424770163
C   C237      1.0  0.22837  0.09261  0.47223  1.0000 0.0611520301
C   C238      1.0  0.22889  0.12609  0.46443  1.0000 -0.0211846221
C   C239      1.0  0.26161  0.13073  0.45083  1.0000 -0.058461406
C   C240      1.0  0.29278  0.10274  0.44336  1.0000 -0.1290228431
C   C241      1.0  0.29020  0.07002  0.45190  1.0000 0.0722865792
C   C242      1.0  0.03579  0.17581  0.50161  1.0000 0.0852324148
C   C243      1.0  0.06574  0.14520  0.49924  1.0000 -0.1290228431
C   C244      1.0  0.09890  0.14516  0.49358  1.0000 -0.058461406
C   C245      1.0  0.10009  0.17643  0.49165  1.0000 -0.0327305448
C   C246      1.0  0.06851  0.20565  0.49497  1.0000 0.0722865792
C   C247      1.0  0.13339  0.17741  0.48825  1.0000 0.3777637816
C   C248      1.0  0.19423  0.15455  0.47463  1.0000 0.3777637816
C   C249      1.0  0.16239  0.20281  0.49285  1.0000 0.3611029889
C   C250      1.0  0.16127  0.22959  0.50287  1.0000 -0.0211846221
C   C251      1.0  0.12922  0.25490  0.51588  1.0000 -0.058461406
C   C252      1.0  0.13128  0.27908  0.52414  1.0000 -0.1290228431
C   C253      1.0  0.16442  0.27720  0.52016  1.0000 0.0852324148
C   C254      1.0  0.29713  0.23543  0.53837  1.0000 0.0722865792
C   C255      1.0  0.32770  0.22764  0.54398  1.0000 -0.1246313507
C   C256      1.0  0.36015  0.22439  0.51649  1.0000 -0.0543152985
C   C257      1.0  0.19333  0.22893  0.50031  1.0000 0.0542346145
C   C258      1.0  0.36160  0.22912  0.48304  1.0000 -0.0327305448
C   C259      1.0  0.32901  0.23793  0.47953  1.0000 0.0611520301
C   C260      1.0  0.39522  0.22738  0.45242  1.0000 0.3611029889
C   C261      1.0  0.97999  0.33645  0.72287  1.0000 0.2424770163
C   C262      1.0  0.20887  0.29455  0.55461  1.0000 0.2424770163
C   C263      1.0  0.09261  0.22837  0.70679  1.0000 0.0611520301
C   C264      1.0  0.12609  0.22889  0.68059  1.0000 -0.0211846221
C   C265      1.0  0.13073  0.26161  0.65683  1.0000 -0.058461406
C   C266      1.0  0.10274  0.29278  0.66112  1.0000 -0.1290228431
C   C267      1.0  0.07002  0.29020  0.68788  1.0000 0.0722865792
C   C268      1.0  0.17581  0.03579  0.78679  1.0000 0.0852324148
C   C269      1.0  0.14520  0.06574  0.78982  1.0000 -0.1290228431
C   C270      1.0  0.14516  0.09890  0.76236  1.0000 -0.058461406
C   C271      1.0  0.17643  0.10009  0.73183  1.0000 -0.0327305448
C   C272      1.0  0.20565  0.06851  0.73087  1.0000 0.0722865792
C   C273      1.0  0.17741  0.13339  0.70095  1.0000 0.3777637816
C   C274      1.0  0.15455  0.19423  0.67659  1.0000 0.3777637816
C   C275      1.0  0.20281  0.16239  0.64195  1.0000 0.3611029889
C   C276      1.0  0.22959  0.16127  0.60627  1.0000 -0.0211846221
C   C277      1.0  0.25490  0.12922  0.60000  1.0000 -0.0543152985
C   C278      1.0  0.27908  0.13128  0.56550  1.0000 -0.1290228431
C   C279      1.0  0.27720  0.16442  0.53822  1.0000 0.0852324148
C   C280      1.0  0.23543  0.29713  0.42907  1.0000 0.0722865792
C   C281      1.0  0.22764  0.32770  0.40068  1.0000 -0.1246313507
C   C282      1.0  0.22439  0.36015  0.39897  1.0000 -0.0543152985
C   C283      1.0  0.22893  0.19333  0.57743  1.0000 0.0542346145
C   C284      1.0  0.22912  0.36160  0.42624  1.0000 -0.0327305448
C   C285      1.0  0.23793  0.32901  0.45353  1.0000 0.0611520301
C   C286      1.0  0.22738  0.39522  0.42498  1.0000 0.3611029889
C   C287      1.0  0.72287  0.46069  0.97999  1.0000 0.2424770163
C   C288      1.0  0.55461  0.44197  0.20887  1.0000 0.2424770163
C   C289      1.0  0.70679  0.47223  0.09261  1.0000 0.0611520301
C   C290      1.0  0.68059  0.46443  0.12609  1.0000 -0.0211846221
C   C291      1.0  0.65683  0.45083  0.13073  1.0000 -0.058461406
C   C292      1.0  0.66112  0.44336  0.10274  1.0000 -0.1290228431
C   C293      1.0  0.68788  0.45190  0.07002  1.0000 0.0722865792
C   C294      1.0  0.78679  0.50161  0.17581  1.0000 0.0852324148
C   C295      1.0  0.78982  0.49924  0.14520  1.0000 -0.1290228431
C   C296      1.0  0.76236  0.49358  0.14516  1.0000 -0.058461406
C   C297      1.0  0.73183  0.49165  0.17643  1.0000 -0.0327305448
C   C298      1.0  0.73087  0.49497  0.20565  1.0000 0.0722865792
C   C299      1.0  0.70095  0.48825  0.17741  1.0000 0.3777637816
C   C300      1.0  0.67659  0.47463  0.15455  1.0000 0.3777637816
C   C301      1.0  0.64195  0.49285  0.20281  1.0000 0.3611029889
C   C302      1.0  0.60627  0.50287  0.22959  1.0000 -0.0211846221
C   C303      1.0  0.60000  0.51588  0.25490  1.0000 -0.058461406
C   C304      1.0  0.56550  0.52414  0.27908  1.0000 -0.1290228431
C   C305      1.0  0.53822  0.52016  0.27720  1.0000 0.0852324148
C   C306      1.0  0.42907  0.53837  0.23543  1.0000 0.0722865792
C   C307      1.0  0.40068  0.54398  0.22764  1.0000 -0.1246313507
C   C308      1.0  0.39897  0.51649  0.22439  1.0000 -0.0543152985
C   C309      1.0  0.57743  0.50031  0.22893  1.0000 0.0542346145
C   C310      1.0  0.42624  0.48304  0.22912  1.0000 -0.0327305448
C   C311      1.0  0.45353  0.47953  0.23793  1.0000 0.0611520301
C   C312      1.0  0.42498  0.45242  0.22738  1.0000 0.3611029889
C   C313      1.0  0.16355  0.03931  0.52001  1.0000 0.2424770163
C   C314      1.0  0.20545  0.05803  0.29113  1.0000 0.2424770163
C   C315      1.0  0.27163  0.02777  0.40739  1.0000 0.0611520301
C   C316      1.0  0.27111  0.03557  0.37391  1.0000 -0.0211846221
C   C317      1.0  0.23839  0.04917  0.36927  1.0000 -0.058461406
C   C318      1.0  0.20722  0.05664  0.39726  1.0000 -0.1290228431
C   C319      1.0  0.20980  0.04810  0.42998  1.0000 0.0722865792
C   C320      1.0  0.46421  0.99839  0.32419  1.0000 0.0844448283
C   C321      1.0  0.43426  0.00076  0.35480  1.0000 -0.1290228431
C   C322      1.0  0.40110  0.00642  0.35484  1.0000 -0.058461406
C   C323      1.0  0.39991  0.00835  0.32357  1.0000 -0.0327305448
C   C324      1.0  0.43149  0.00503  0.29435  1.0000 0.0722865792
C   C325      1.0  0.36661  0.01175  0.32259  1.0000 0.3777637816
C   C326      1.0  0.30577  0.02537  0.34545  1.0000 0.3777637816
C   C327      1.0  0.33761  0.00715  0.29719  1.0000 0.3611029889
C   C328      1.0  0.33873  0.99713  0.27041  1.0000 -0.0211846221
C   C329      1.0  0.37078  0.98412  0.24510  1.0000 -0.058461406
C   C330      1.0  0.36872  0.97586  0.22092  1.0000 -0.1290228431
C   C331      1.0  0.33558  0.97984  0.22280  1.0000 0.0852324148
C   C332      1.0  0.20287  0.96163  0.26457  1.0000 0.0722865792
C   C333      1.0  0.17230  0.95602  0.27236  1.0000 -0.1246313507
C   C334      1.0  0.13985  0.98351  0.27561  1.0000 -0.0543152985
C   C335      1.0  0.30667  0.99969  0.27107  1.0000 0.0542346145
C   C336      1.0  0.13840  0.01696  0.27088  1.0000 -0.0327305448
C   C337      1.0  0.17099  0.02047  0.26207  1.0000 0.0611520301
C   C338      1.0  0.10478  0.04758  0.27262  1.0000 0.3611029889
C   C339      1.0  0.03931  0.16355  0.77713  1.0000 0.2424770163
C   C340      1.0  0.05803  0.20545  0.94539  1.0000 0.2424770163
C   C341      1.0  0.02777  0.27163  0.79321  1.0000 0.0611520301
C   C342      1.0  0.03557  0.27111  0.81941  1.0000 -0.0211846221
C   C343      1.0  0.04917  0.23839  0.84317  1.0000 -0.058461406
C   C344      1.0  0.05664  0.20722  0.83888  1.0000 -0.1290228431
C   C345      1.0  0.04810  0.20980  0.81212  1.0000 0.0722865792
C   C346      1.0  0.99839  0.46421  0.71321  1.0000 0.0852324148
C   C347      1.0  0.00076  0.43426  0.71018  1.0000 -0.1290228431
C   C348      1.0  0.00642  0.40110  0.73764  1.0000 -0.058461406
C   C349      1.0  0.00835  0.39991  0.76817  1.0000 -0.0327305448
C   C350      1.0  0.00503  0.43149  0.76913  1.0000 0.0722865792
C   C351      1.0  0.01175  0.36661  0.79905  1.0000 0.3777637816
C   C352      1.0  0.02537  0.30577  0.82341  1.0000 0.3777637816
C   C353      1.0  0.00715  0.33761  0.85805  1.0000 0.3611029889
C   C354      1.0  0.99713  0.33873  0.89373  1.0000 -0.0211846221
C   C355      1.0  0.98412  0.37078  0.90000  1.0000 -0.0543152985
C   C356      1.0  0.97586  0.36872  0.93450  1.0000 -0.1290228431
C   C357      1.0  0.97984  0.33558  0.96178  1.0000 0.0852324148
C   C358      1.0  0.96163  0.20287  0.07093  1.0000 0.0722865792
C   C359      1.0  0.95602  0.17230  0.09932  1.0000 -0.1246313507
C   C360      1.0  0.98351  0.13985  0.10103  1.0000 -0.0543152985
C   C361      1.0  0.99969  0.30667  0.92257  1.0000 0.0542346145
C   C362      1.0  0.01696  0.13840  0.07376  1.0000 -0.0327305448
C   C363      1.0  0.02047  0.17099  0.04647  1.0000 0.0611520301
C   C364      1.0  0.04758  0.10478  0.07502  1.0000 0.3611029889
C   C365      1.0  0.77713  0.52001  0.03931  1.0000 0.2424770163
C   C366      1.0  0.94539  0.29113  0.05803  1.0000 0.2424770163
C   C367      1.0  0.79321  0.40739  0.02777  1.0000 0.0611520301
C   C368      1.0  0.81941  0.37391  0.03557  1.0000 -0.0211846221
C   C369      1.0  0.84317  0.36927  0.04917  1.0000 -0.058461406
C   C370      1.0  0.83888  0.39726  0.05664  1.0000 -0.1290228431
C   C371      1.0  0.81212  0.42998  0.04810  1.0000 0.0722865792
C   C372      1.0  0.71321  0.32419  0.99839  1.0000 0.0852324148
C   C373      1.0  0.71018  0.35480  0.00076  1.0000 -0.1290228431
C   C374      1.0  0.73764  0.35484  0.00642  1.0000 -0.058461406
C   C375      1.0  0.76817  0.32357  0.00835  1.0000 -0.0327305448
C   C376      1.0  0.76913  0.29435  0.00503  1.0000 0.0722865792
C   C377      1.0  0.79905  0.32259  0.01175  1.0000 0.3777637816
C   C378      1.0  0.82341  0.34545  0.02537  1.0000 0.3777637816
C   C379      1.0  0.85805  0.29719  0.00715  1.0000 0.3611029889
C   C380      1.0  0.89373  0.27041  0.99713  1.0000 -0.0211846221
C   C381      1.0  0.90000  0.24510  0.98412  1.0000 -0.0543152985
C   C382      1.0  0.93450  0.22092  0.97586  1.0000 -0.1290228431
C   C383      1.0  0.96178  0.22280  0.97984  1.0000 0.0852324148
C   C384      1.0  0.07093  0.26457  0.96163  1.0000 0.0722865792
C   C385      1.0  0.09932  0.27236  0.95602  1.0000 -0.1246313507
C   C386      1.0  0.10103  0.27561  0.98351  1.0000 -0.0543152985
C   C387      1.0  0.92257  0.27107  0.99969  1.0000 0.0542346145
C   C388      1.0  0.07376  0.27088  0.01696  1.0000 -0.0327305448
C   C389      1.0  0.04647  0.26207  0.02047  1.0000 0.0611520301
C   C390      1.0  0.07502  0.27262  0.04758  1.0000 0.3611029889
C   C391      1.0  0.52001  0.77713  0.16355  1.0000 0.2424770163
C   C392      1.0  0.29113  0.94539  0.20545  1.0000 0.2424770163
C   C393      1.0  0.40739  0.79321  0.27163  1.0000 0.0611520301
C   C394      1.0  0.37391  0.81941  0.27111  1.0000 -0.0211846221
C   C395      1.0  0.36927  0.84317  0.23839  1.0000 -0.058461406
C   C396      1.0  0.39726  0.83888  0.20722  1.0000 -0.1290228431
C   C397      1.0  0.42998  0.81212  0.20980  1.0000 0.0722865792
C   C398      1.0  0.32419  0.71321  0.46421  1.0000 0.0844448283
C   C399      1.0  0.35480  0.71018  0.43426  1.0000 -0.1290228431
C   C400      1.0  0.35484  0.73764  0.40110  1.0000 -0.058461406
C   C401      1.0  0.32357  0.76817  0.39991  1.0000 -0.0327305448
C   C402      1.0  0.29435  0.76913  0.43149  1.0000 0.0722865792
C   C403      1.0  0.32259  0.79905  0.36661  1.0000 0.3777637816
C   C404      1.0  0.34545  0.82341  0.30577  1.0000 0.3777637816
C   C405      1.0  0.29719  0.85805  0.33761  1.0000 0.3611029889
C   C406      1.0  0.27041  0.89373  0.33873  1.0000 -0.0211846221
C   C407      1.0  0.24510  0.90000  0.37078  1.0000 -0.0543152985
C   C408      1.0  0.22092  0.93450  0.36872  1.0000 -0.1290228431
C   C409      1.0  0.22280  0.96178  0.33558  1.0000 0.0852324148
C   C410      1.0  0.26457  0.07093  0.20287  1.0000 0.0722865792
C   C411      1.0  0.27236  0.09932  0.17230  1.0000 -0.1246313507
C   C412      1.0  0.27561  0.10103  0.13985  1.0000 -0.0543152985
C   C413      1.0  0.27107  0.92257  0.30667  1.0000 0.0542346145
C   C414      1.0  0.27088  0.07376  0.13840  1.0000 -0.0327305448
C   C415      1.0  0.26207  0.04647  0.17099  1.0000 0.0611520301
C   C416      1.0  0.27262  0.07502  0.10478  1.0000 0.3611029889
C   C417      1.0  0.77713  0.16355  0.52001  1.0000 0.2424770163
C   C418      1.0  0.94539  0.20545  0.29113  1.0000 0.2424770163
C   C419      1.0  0.79321  0.27163  0.40739  1.0000 0.0611520301
C   C420      1.0  0.81941  0.27111  0.37391  1.0000 -0.0211846221
C   C421      1.0  0.84317  0.23839  0.36927  1.0000 -0.058461406
C   C422      1.0  0.83888  0.20722  0.39726  1.0000 -0.1290228431
C   C423      1.0  0.81212  0.20980  0.42998  1.0000 0.0722865792
C   C424      1.0  0.71321  0.46421  0.32419  1.0000 0.0852324148
C   C425      1.0  0.71018  0.43426  0.35480  1.0000 -0.1290228431
C   C426      1.0  0.73764  0.40110  0.35484  1.0000 -0.058461406
C   C427      1.0  0.76817  0.39991  0.32357  1.0000 -0.0327305448
C   C428      1.0  0.76913  0.43149  0.29435  1.0000 0.0722865792
C   C429      1.0  0.79905  0.36661  0.32259  1.0000 0.3777637816
C   C430      1.0  0.82341  0.30577  0.34545  1.0000 0.3777637816
C   C431      1.0  0.85805  0.33761  0.29719  1.0000 0.3611029889
C   C432      1.0  0.89373  0.33873  0.27041  1.0000 -0.0211846221
C   C433      1.0  0.90000  0.37078  0.24510  1.0000 -0.0543152985
C   C434      1.0  0.93450  0.36872  0.22092  1.0000 -0.1290228431
C   C435      1.0  0.96178  0.33558  0.22280  1.0000 0.0852324148
C   C436      1.0  0.07093  0.20287  0.26457  1.0000 0.0722865792
C   C437      1.0  0.09932  0.17230  0.27236  1.0000 -0.1246313507
C   C438      1.0  0.10103  0.13985  0.27561  1.0000 -0.0543152985
C   C439      1.0  0.92257  0.30667  0.27107  1.0000 0.0542346145
C   C440      1.0  0.07376  0.13840  0.27088  1.0000 -0.0327305448
C   C441      1.0  0.04647  0.17099  0.26207  1.0000 0.0611520301
C   C442      1.0  0.07502  0.10478  0.27262  1.0000 0.3611029889
C   C443      1.0  0.52001  0.03931  0.77713  1.0000 0.2424770163
C   C444      1.0  0.29113  0.05803  0.94539  1.0000 0.2424770163
C   C445      1.0  0.40739  0.02777  0.79321  1.0000 0.0611520301
C   C446      1.0  0.37391  0.03557  0.81941  1.0000 -0.0211846221
C   C447      1.0  0.36927  0.04917  0.84317  1.0000 -0.058461406
C   C448      1.0  0.39726  0.05664  0.83888  1.0000 -0.1290228431
C   C449      1.0  0.42998  0.04810  0.81212  1.0000 0.0722865792
C   C450      1.0  0.32419  0.99839  0.71321  1.0000 0.0844448283
C   C451      1.0  0.35480  0.00076  0.71018  1.0000 -0.1290228431
C   C452      1.0  0.35484  0.00642  0.73764  1.0000 -0.058461406
C   C453      1.0  0.32357  0.00835  0.76817  1.0000 -0.0327305448
C   C454      1.0  0.29435  0.00503  0.76913  1.0000 0.0722865792
C   C455      1.0  0.32259  0.01175  0.79905  1.0000 0.3777637816
C   C456      1.0  0.34545  0.02537  0.82341  1.0000 0.3777637816
C   C457      1.0  0.29719  0.00715  0.85805  1.0000 0.3611029889
C   C458      1.0  0.27041  0.99713  0.89373  1.0000 -0.0211846221
C   C459      1.0  0.24510  0.98412  0.90000  1.0000 -0.058461406
C   C460      1.0  0.22092  0.97586  0.93450  1.0000 -0.1290228431
C   C461      1.0  0.22280  0.97984  0.96178  1.0000 0.0852324148
C   C462      1.0  0.26457  0.96163  0.07093  1.0000 0.0722865792
C   C463      1.0  0.27236  0.95602  0.09932  1.0000 -0.1290228431
C   C464      1.0  0.27561  0.98351  0.10103  1.0000 -0.0543152985
C   C465      1.0  0.27107  0.99969  0.92257  1.0000 0.0542346145
C   C466      1.0  0.27088  0.01696  0.07376  1.0000 -0.0327305448
C   C467      1.0  0.26207  0.02047  0.04647  1.0000 0.0611520301
C   C468      1.0  0.27262  0.04758  0.07502  1.0000 0.3611029889
C   C469      1.0  0.16355  0.77713  0.03931  1.0000 0.2424770163
C   C470      1.0  0.20545  0.94539  0.05803  1.0000 0.2424770163
C   C471      1.0  0.27163  0.79321  0.02777  1.0000 0.0611520301
C   C472      1.0  0.27111  0.81941  0.03557  1.0000 -0.0211846221
C   C473      1.0  0.23839  0.84317  0.04917  1.0000 -0.058461406
C   C474      1.0  0.20722  0.83888  0.05664  1.0000 -0.1290228431
C   C475      1.0  0.20980  0.81212  0.04810  1.0000 0.0722865792
C   C476      1.0  0.46421  0.71321  0.99839  1.0000 0.0844448283
C   C477      1.0  0.43426  0.71018  0.00076  1.0000 -0.1290228431
C   C478      1.0  0.40110  0.73764  0.00642  1.0000 -0.058461406
C   C479      1.0  0.39991  0.76817  0.00835  1.0000 -0.0327305448
C   C480      1.0  0.43149  0.76913  0.00503  1.0000 0.0722865792
C   C481      1.0  0.36661  0.79905  0.01175  1.0000 0.3777637816
C   C482      1.0  0.30577  0.82341  0.02537  1.0000 0.3777637816
C   C483      1.0  0.33761  0.85805  0.00715  1.0000 0.3611029889
C   C484      1.0  0.33873  0.89373  0.99713  1.0000 -0.0211846221
C   C485      1.0  0.37078  0.90000  0.98412  1.0000 -0.0543152985
C   C486      1.0  0.36872  0.93450  0.97586  1.0000 -0.1290228431
C   C487      1.0  0.33558  0.96178  0.97984  1.0000 0.0852324148
C   C488      1.0  0.20287  0.07093  0.96163  1.0000 0.0722865792
C   C489      1.0  0.17230  0.09932  0.95602  1.0000 -0.1290228431
C   C490      1.0  0.13985  0.10103  0.98351  1.0000 -0.0543152985
C   C491      1.0  0.30667  0.92257  0.99969  1.0000 0.0542346145
C   C492      1.0  0.13840  0.07376  0.01696  1.0000 -0.0327305448
C   C493      1.0  0.17099  0.04647  0.02047  1.0000 0.0611520301
C   C494      1.0  0.10478  0.07502  0.04758  1.0000 0.3611029889
C   C495      1.0  0.03931  0.52001  0.16355  1.0000 0.2424770163
C   C496      1.0  0.05803  0.29113  0.20545  1.0000 0.2424770163
C   C497      1.0  0.02777  0.40739  0.27163  1.0000 0.0611520301
C   C498      1.0  0.03557  0.37391  0.27111  1.0000 -0.0211846221
C   C499      1.0  0.04917  0.36927  0.23839  1.0000 -0.058461406
C   C500      1.0  0.05664  0.39726  0.20722  1.0000 -0.1290228431
C   C501      1.0  0.04810  0.42998  0.20980  1.0000 0.0722865792
C   C502      1.0  0.99839  0.32419  0.46421  1.0000 0.0852324148
C   C503      1.0  0.00076  0.35480  0.43426  1.0000 -0.1290228431
C   C504      1.0  0.00642  0.35484  0.40110  1.0000 -0.058461406
C   C505      1.0  0.00835  0.32357  0.39991  1.0000 -0.0327305448
C   C506      1.0  0.00503  0.29435  0.43149  1.0000 0.0722865792
C   C507      1.0  0.01175  0.32259  0.36661  1.0000 0.3777637816
C   C508      1.0  0.02537  0.34545  0.30577  1.0000 0.3777637816
C   C509      1.0  0.00715  0.29719  0.33761  1.0000 0.3611029889
C   C510      1.0  0.99713  0.27041  0.33873  1.0000 -0.0211846221
C   C511      1.0  0.98412  0.24510  0.37078  1.0000 -0.0543152985
C   C512      1.0  0.97586  0.22092  0.36872  1.0000 -0.1290228431
C   C513      1.0  0.97984  0.22280  0.33558  1.0000 0.0852324148
C   C514      1.0  0.96163  0.26457  0.20287  1.0000 0.0722865792
C   C515      1.0  0.95602  0.27236  0.17230  1.0000 -0.1246313507
C   C516      1.0  0.98351  0.27561  0.13985  1.0000 -0.0543152985
C   C517      1.0  0.99969  0.27107  0.30667  1.0000 0.0542346145
C   C518      1.0  0.01696  0.27088  0.13840  1.0000 -0.0327305448
C   C519      1.0  0.02047  0.26207  0.17099  1.0000 0.0611520301
C   C520      1.0  0.04758  0.27262  0.10478  1.0000 0.3611029889
C   C521      1.0  0.03931  0.77713  0.52001  1.0000 0.2424770163
C   C522      1.0  0.05803  0.94539  0.29113  1.0000 0.2424770163
C   C523      1.0  0.02777  0.79321  0.40739  1.0000 0.0611520301
C   C524      1.0  0.03557  0.81941  0.37391  1.0000 -0.0211846221
C   C525      1.0  0.04917  0.84317  0.36927  1.0000 -0.058461406
C   C526      1.0  0.05664  0.83888  0.39726  1.0000 -0.1290228431
C   C527      1.0  0.04810  0.81212  0.42998  1.0000 0.0722865792
C   C528      1.0  0.99839  0.71321  0.32419  1.0000 0.0852324148
C   C529      1.0  0.00076  0.71018  0.35480  1.0000 -0.1290228431
C   C530      1.0  0.00642  0.73764  0.35484  1.0000 -0.058461406
C   C531      1.0  0.00835  0.76817  0.32357  1.0000 -0.0327305448
C   C532      1.0  0.00503  0.76913  0.29435  1.0000 0.0722865792
C   C533      1.0  0.01175  0.79905  0.32259  1.0000 0.3777637816
C   C534      1.0  0.02537  0.82341  0.34545  1.0000 0.3777637816
C   C535      1.0  0.00715  0.85805  0.29719  1.0000 0.3611029889
C   C536      1.0  0.99713  0.89373  0.27041  1.0000 -0.0211846221
C   C537      1.0  0.98412  0.90000  0.24510  1.0000 -0.058461406
C   C538      1.0  0.97586  0.93450  0.22092  1.0000 -0.1290228431
C   C539      1.0  0.97984  0.96178  0.22280  1.0000 0.0852324148
C   C540      1.0  0.96163  0.07093  0.26457  1.0000 0.0722865792
C   C541      1.0  0.95602  0.09932  0.27236  1.0000 -0.1246313507
C   C542      1.0  0.98351  0.10103  0.27561  1.0000 -0.0543152985
C   C543      1.0  0.99969  0.92257  0.27107  1.0000 0.0542346145
C   C544      1.0  0.01696  0.07376  0.27088  1.0000 -0.0327305448
C   C545      1.0  0.02047  0.04647  0.26207  1.0000 0.0611520301
C   C546      1.0  0.04758  0.07502  0.27262  1.0000 0.3611029889
C   C547      1.0  0.16355  0.52001  0.77713  1.0000 0.2424770163
C   C548      1.0  0.20545  0.29113  0.94539  1.0000 0.2424770163
C   C549      1.0  0.27163  0.40739  0.79321  1.0000 0.0611520301
C   C550      1.0  0.27111  0.37391  0.81941  1.0000 -0.0211846221
C   C551      1.0  0.23839  0.36927  0.84317  1.0000 -0.058461406
C   C552      1.0  0.20722  0.39726  0.83888  1.0000 -0.1290228431
C   C553      1.0  0.20980  0.42998  0.81212  1.0000 0.0722865792
C   C554      1.0  0.46421  0.32419  0.71321  1.0000 0.0852324148
C   C555      1.0  0.43426  0.35480  0.71018  1.0000 -0.1290228431
C   C556      1.0  0.40110  0.35484  0.73764  1.0000 -0.058461406
C   C557      1.0  0.39991  0.32357  0.76817  1.0000 -0.0327305448
C   C558      1.0  0.43149  0.29435  0.76913  1.0000 0.0722865792
C   C559      1.0  0.36661  0.32259  0.79905  1.0000 0.3777637816
C   C560      1.0  0.30577  0.34545  0.82341  1.0000 0.3777637816
C   C561      1.0  0.33761  0.29719  0.85805  1.0000 0.3611029889
C   C562      1.0  0.33873  0.27041  0.89373  1.0000 -0.0211846221
C   C563      1.0  0.37078  0.24510  0.90000  1.0000 -0.0543152985
C   C564      1.0  0.36872  0.22092  0.93450  1.0000 -0.1290228431
C   C565      1.0  0.33558  0.22280  0.96178  1.0000 0.0852324148
C   C566      1.0  0.20287  0.26457  0.07093  1.0000 0.0722865792
C   C567      1.0  0.17230  0.27236  0.09932  1.0000 -0.1246313507
C   C568      1.0  0.13985  0.27561  0.10103  1.0000 -0.0543152985
C   C569      1.0  0.30667  0.27107  0.92257  1.0000 0.0542346145
C   C570      1.0  0.13840  0.27088  0.07376  1.0000 -0.0327305448
C   C571      1.0  0.17099  0.26207  0.04647  1.0000 0.0611520301
C   C572      1.0  0.10478  0.27262  0.07502  1.0000 0.3611029889
C   C573      1.0  0.52001  0.16355  0.03931  1.0000 0.2424770163
C   C574      1.0  0.29113  0.20545  0.05803  1.0000 0.2424770163
C   C575      1.0  0.40739  0.27163  0.02777  1.0000 0.0611520301
C   C576      1.0  0.37391  0.27111  0.03557  1.0000 -0.0211846221
C   C577      1.0  0.36927  0.23839  0.04917  1.0000 -0.058461406
C   C578      1.0  0.39726  0.20722  0.05664  1.0000 -0.1290228431
C   C579      1.0  0.42998  0.20980  0.04810  1.0000 0.0722865792
C   C580      1.0  0.32419  0.46421  0.99839  1.0000 0.0852324148
C   C581      1.0  0.35480  0.43426  0.00076  1.0000 -0.1290228431
C   C582      1.0  0.35484  0.40110  0.00642  1.0000 -0.058461406
C   C583      1.0  0.32357  0.39991  0.00835  1.0000 -0.0327305448
C   C584      1.0  0.29435  0.43149  0.00503  1.0000 0.0722865792
C   C585      1.0  0.32259  0.36661  0.01175  1.0000 0.3777637816
C   C586      1.0  0.34545  0.30577  0.02537  1.0000 0.3777637816
C   C587      1.0  0.29719  0.33761  0.00715  1.0000 0.3611029889
C   C588      1.0  0.27041  0.33873  0.99713  1.0000 -0.0211846221
C   C589      1.0  0.24510  0.37078  0.98412  1.0000 -0.058461406
C   C590      1.0  0.22092  0.36872  0.97586  1.0000 -0.1290228431
C   C591      1.0  0.22280  0.33558  0.97984  1.0000 0.0852324148
C   C592      1.0  0.26457  0.20287  0.96163  1.0000 0.0722865792
C   C593      1.0  0.27236  0.17230  0.95602  1.0000 -0.1246313507
C   C594      1.0  0.27561  0.13985  0.98351  1.0000 -0.0543152985
C   C595      1.0  0.27107  0.30667  0.99969  1.0000 0.0542346145
C   C596      1.0  0.27088  0.13840  0.01696  1.0000 -0.0327305448
C   C597      1.0  0.26207  0.17099  0.02047  1.0000 0.0611520301
C   C598      1.0  0.27262  0.10478  0.04758  1.0000 0.3611029889
C   C599      1.0  0.77713  0.03931  0.16355  1.0000 0.2424770163
C   C600      1.0  0.94539  0.05803  0.20545  1.0000 0.2424770163
C   C601      1.0  0.79321  0.02777  0.27163  1.0000 0.0611520301
C   C602      1.0  0.81941  0.03557  0.27111  1.0000 -0.0211846221
C   C603      1.0  0.84317  0.04917  0.23839  1.0000 -0.058461406
C   C604      1.0  0.83888  0.05664  0.20722  1.0000 -0.1290228431
C   C605      1.0  0.81212  0.04810  0.20980  1.0000 0.0722865792
C   C606      1.0  0.71321  0.99839  0.46421  1.0000 0.0844448283
C   C607      1.0  0.71018  0.00076  0.43426  1.0000 -0.1290228431
C   C608      1.0  0.73764  0.00642  0.40110  1.0000 -0.058461406
C   C609      1.0  0.76817  0.00835  0.39991  1.0000 -0.0327305448
C   C610      1.0  0.76913  0.00503  0.43149  1.0000 0.0722865792
C   C611      1.0  0.79905  0.01175  0.36661  1.0000 0.3777637816
C   C612      1.0  0.82341  0.02537  0.30577  1.0000 0.3777637816
C   C613      1.0  0.85805  0.00715  0.33761  1.0000 0.3611029889
C   C614      1.0  0.89373  0.99713  0.33873  1.0000 -0.0211846221
C   C615      1.0  0.90000  0.98412  0.37078  1.0000 -0.0543152985
C   C616      1.0  0.93450  0.97586  0.36872  1.0000 -0.1290228431
C   C617      1.0  0.96178  0.97984  0.33558  1.0000 0.0852324148
C   C618      1.0  0.07093  0.96163  0.20287  1.0000 0.0722865792
C   C619      1.0  0.09932  0.95602  0.17230  1.0000 -0.1246313507
C   C620      1.0  0.10103  0.98351  0.13985  1.0000 -0.0543152985
C   C621      1.0  0.92257  0.99969  0.30667  1.0000 0.0542346145
C   C622      1.0  0.07376  0.01696  0.13840  1.0000 -0.0327305448
C   C623      1.0  0.04647  0.02047  0.17099  1.0000 0.0611520301
C   C624      1.0  0.07502  0.04758  0.10478  1.0000 0.3611029889
C   C625      1.0  0.66355  0.53931  0.27713  1.0000 0.2424770163
C   C626      1.0  0.70545  0.55803  0.44539  1.0000 0.2424770163
C   C627      1.0  0.77163  0.52777  0.29321  1.0000 0.0611520301
C   C628      1.0  0.77111  0.53557  0.31941  1.0000 -0.0211846221
C   C629      1.0  0.73839  0.54917  0.34317  1.0000 -0.058461406
C   C630      1.0  0.70722  0.55664  0.33888  1.0000 -0.1290228431
C   C631      1.0  0.70980  0.54810  0.31212  1.0000 0.0722865792
C   C632      1.0  0.96421  0.49839  0.21321  1.0000 0.0852324148
C   C633      1.0  0.93426  0.50076  0.21018  1.0000 -0.1290228431
C   C634      1.0  0.90110  0.50642  0.23764  1.0000 -0.058461406
C   C635      1.0  0.89991  0.50835  0.26817  1.0000 -0.0327305448
C   C636      1.0  0.93149  0.50503  0.26913  1.0000 0.0722865792
C   C637      1.0  0.86661  0.51175  0.29905  1.0000 0.3777637816
C   C638      1.0  0.80577  0.52537  0.32341  1.0000 0.3777637816
C   C639      1.0  0.83761  0.50715  0.35805  1.0000 0.3611029889
C   C640      1.0  0.83873  0.49713  0.39373  1.0000 -0.0211846221
C   C641      1.0  0.87078  0.48412  0.40000  1.0000 -0.0543152985
C   C642      1.0  0.86872  0.47586  0.43450  1.0000 -0.1290228431
C   C643      1.0  0.83558  0.47984  0.46178  1.0000 0.0852324148
C   C644      1.0  0.70287  0.46163  0.57093  1.0000 0.0722865792
C   C645      1.0  0.67230  0.45602  0.59932  1.0000 -0.1246313507
C   C646      1.0  0.63985  0.48351  0.60103  1.0000 -0.0543152985
C   C647      1.0  0.80667  0.49969  0.42257  1.0000 0.0542346145
C   C648      1.0  0.63840  0.51696  0.57376  1.0000 -0.0327305448
C   C649      1.0  0.67099  0.52047  0.54647  1.0000 0.0611520301
C   C650      1.0  0.60478  0.54758  0.57502  1.0000 0.3611029889
C   C651      1.0  0.53931  0.66355  0.02001  1.0000 0.2424770163
C   C652      1.0  0.55803  0.70545  0.79113  1.0000 0.2424770163
C   C653      1.0  0.52777  0.77163  0.90739  1.0000 0.0611520301
C   C654      1.0  0.53557  0.77111  0.87391  1.0000 -0.0211846221
C   C655      1.0  0.54917  0.73839  0.86927  1.0000 -0.058461406
C   C656      1.0  0.55664  0.70722  0.89726  1.0000 -0.1290228431
C   C657      1.0  0.54810  0.70980  0.92998  1.0000 0.0722865792
C   C658      1.0  0.49839  0.96421  0.82419  1.0000 0.0844448283
C   C659      1.0  0.50076  0.93426  0.85480  1.0000 -0.1290228431
C   C660      1.0  0.50642  0.90110  0.85484  1.0000 -0.058461406
C   C661      1.0  0.50835  0.89991  0.82357  1.0000 -0.0327305448
C   C662      1.0  0.50503  0.93149  0.79435  1.0000 0.0722865792
C   C663      1.0  0.51175  0.86661  0.82259  1.0000 0.3777637816
C   C664      1.0  0.52537  0.80577  0.84545  1.0000 0.3777637816
C   C665      1.0  0.50715  0.83761  0.79719  1.0000 0.3611029889
C   C666      1.0  0.49713  0.83873  0.77041  1.0000 -0.0211846221
C   C667      1.0  0.48412  0.87078  0.74510  1.0000 -0.0543152985
C   C668      1.0  0.47586  0.86872  0.72092  1.0000 -0.1290228431
C   C669      1.0  0.47984  0.83558  0.72280  1.0000 0.0852324148
C   C670      1.0  0.46163  0.70287  0.76457  1.0000 0.0722865792
C   C671      1.0  0.45602  0.67230  0.77236  1.0000 -0.1290228431
C   C672      1.0  0.48351  0.63985  0.77561  1.0000 -0.0543152985
C   C673      1.0  0.49969  0.80667  0.77107  1.0000 0.0542346145
C   C674      1.0  0.51696  0.63840  0.77088  1.0000 -0.0327305448
C   C675      1.0  0.52047  0.67099  0.76207  1.0000 0.0611520301
C   C676      1.0  0.54758  0.60478  0.77262  1.0000 0.3611029889
C   C677      1.0  0.27713  0.02001  0.66355  1.0000 0.2424770163
C   C678      1.0  0.44539  0.79113  0.70545  1.0000 0.2424770163
C   C679      1.0  0.29321  0.90739  0.77163  1.0000 0.0611520301
C   C680      1.0  0.31941  0.87391  0.77111  1.0000 -0.0211846221
C   C681      1.0  0.34317  0.86927  0.73839  1.0000 -0.058461406
C   C682      1.0  0.33888  0.89726  0.70722  1.0000 -0.1290228431
C   C683      1.0  0.31212  0.92998  0.70980  1.0000 0.0722865792
C   C684      1.0  0.21321  0.82419  0.96421  1.0000 0.0844448283
C   C685      1.0  0.21018  0.85480  0.93426  1.0000 -0.1290228431
C   C686      1.0  0.23764  0.85484  0.90110  1.0000 -0.058461406
C   C687      1.0  0.26817  0.82357  0.89991  1.0000 -0.0327305448
C   C688      1.0  0.26913  0.79435  0.93149  1.0000 0.0722865792
C   C689      1.0  0.29905  0.82259  0.86661  1.0000 0.3777637816
C   C690      1.0  0.32341  0.84545  0.80577  1.0000 0.3777637816
C   C691      1.0  0.35805  0.79719  0.83761  1.0000 0.3611029889
C   C692      1.0  0.39373  0.77041  0.83873  1.0000 -0.0211846221
C   C693      1.0  0.40000  0.74510  0.87078  1.0000 -0.058461406
C   C694      1.0  0.43450  0.72092  0.86872  1.0000 -0.1290228431
C   C695      1.0  0.46178  0.72280  0.83558  1.0000 0.0852324148
C   C696      1.0  0.57093  0.76457  0.70287  1.0000 0.0722865792
C   C697      1.0  0.59932  0.77236  0.67230  1.0000 -0.1246313507
C   C698      1.0  0.60103  0.77561  0.63985  1.0000 -0.0543152985
C   C699      1.0  0.42257  0.77107  0.80667  1.0000 0.0542346145
C   C700      1.0  0.57376  0.77088  0.63840  1.0000 -0.0327305448
C   C701      1.0  0.54647  0.76207  0.67099  1.0000 0.0611520301
C   C702      1.0  0.57502  0.77262  0.60478  1.0000 0.3611029889
C   C703      1.0  0.02001  0.27713  0.53931  1.0000 0.2424770163
C   C704      1.0  0.79113  0.44539  0.55803  1.0000 0.2424770163
C   C705      1.0  0.90739  0.29321  0.52777  1.0000 0.0611520301
C   C706      1.0  0.87391  0.31941  0.53557  1.0000 -0.0211846221
C   C707      1.0  0.86927  0.34317  0.54917  1.0000 -0.058461406
C   C708      1.0  0.89726  0.33888  0.55664  1.0000 -0.1290228431
C   C709      1.0  0.92998  0.31212  0.54810  1.0000 0.0722865792
C   C710      1.0  0.82419  0.21321  0.49839  1.0000 0.0852324148
C   C711      1.0  0.85480  0.21018  0.50076  1.0000 -0.1290228431
C   C712      1.0  0.85484  0.23764  0.50642  1.0000 -0.058461406
C   C713      1.0  0.82357  0.26817  0.50835  1.0000 -0.0327305448
C   C714      1.0  0.79435  0.26913  0.50503  1.0000 0.0722865792
C   C715      1.0  0.82259  0.29905  0.51175  1.0000 0.3777637816
C   C716      1.0  0.84545  0.32341  0.52537  1.0000 0.3777637816
C   C717      1.0  0.79719  0.35805  0.50715  1.0000 0.3611029889
C   C718      1.0  0.77041  0.39373  0.49713  1.0000 -0.0211846221
C   C719      1.0  0.74510  0.40000  0.48412  1.0000 -0.058461406
C   C720      1.0  0.72092  0.43450  0.47586  1.0000 -0.1290228431
C   C721      1.0  0.72280  0.46178  0.47984  1.0000 0.0852324148
C   C722      1.0  0.76457  0.57093  0.46163  1.0000 0.0722865792
C   C723      1.0  0.77236  0.59932  0.45602  1.0000 -0.1246313507
C   C724      1.0  0.77561  0.60103  0.48351  1.0000 -0.0543152985
C   C725      1.0  0.77107  0.42257  0.49969  1.0000 0.0542346145
C   C726      1.0  0.77088  0.57376  0.51696  1.0000 -0.0327305448
C   C727      1.0  0.76207  0.54647  0.52047  1.0000 0.0611520301
C   C728      1.0  0.77262  0.57502  0.54758  1.0000 0.3611029889
C   C729      1.0  0.27713  0.66355  0.53931  1.0000 0.2424770163
C   C730      1.0  0.44539  0.70545  0.55803  1.0000 0.2424770163
C   C731      1.0  0.29321  0.77163  0.52777  1.0000 0.0611520301
C   C732      1.0  0.31941  0.77111  0.53557  1.0000 -0.0211846221
C   C733      1.0  0.34317  0.73839  0.54917  1.0000 -0.058461406
C   C734      1.0  0.33888  0.70722  0.55664  1.0000 -0.1290228431
C   C735      1.0  0.31212  0.70980  0.54810  1.0000 0.0722865792
C   C736      1.0  0.21321  0.96421  0.49839  1.0000 0.0852324148
C   C737      1.0  0.21018  0.93426  0.50076  1.0000 -0.1290228431
C   C738      1.0  0.23764  0.90110  0.50642  1.0000 -0.058461406
C   C739      1.0  0.26817  0.89991  0.50835  1.0000 -0.0327305448
C   C740      1.0  0.26913  0.93149  0.50503  1.0000 0.0722865792
C   C741      1.0  0.29905  0.86661  0.51175  1.0000 0.3777637816
C   C742      1.0  0.32341  0.80577  0.52537  1.0000 0.3777637816
C   C743      1.0  0.35805  0.83761  0.50715  1.0000 0.3611029889
C   C744      1.0  0.39373  0.83873  0.49713  1.0000 -0.0211846221
C   C745      1.0  0.40000  0.87078  0.48412  1.0000 -0.058461406
C   C746      1.0  0.43450  0.86872  0.47586  1.0000 -0.1290228431
C   C747      1.0  0.46178  0.83558  0.47984  1.0000 0.0852324148
C   C748      1.0  0.57093  0.70287  0.46163  1.0000 0.0722865792
C   C749      1.0  0.59932  0.67230  0.45602  1.0000 -0.1246313507
C   C750      1.0  0.60103  0.63985  0.48351  1.0000 -0.0543152985
C   C751      1.0  0.42257  0.80667  0.49969  1.0000 0.0542346145
C   C752      1.0  0.57376  0.63840  0.51696  1.0000 -0.0327305448
C   C753      1.0  0.54647  0.67099  0.52047  1.0000 0.0611520301
C   C754      1.0  0.57502  0.60478  0.54758  1.0000 0.3611029889
C   C755      1.0  0.02001  0.53931  0.66355  1.0000 0.2424770163
C   C756      1.0  0.79113  0.55803  0.70545  1.0000 0.2424770163
C   C757      1.0  0.90739  0.52777  0.77163  1.0000 0.0611520301
C   C758      1.0  0.87391  0.53557  0.77111  1.0000 -0.0211846221
C   C759      1.0  0.86927  0.54917  0.73839  1.0000 -0.058461406
C   C760      1.0  0.89726  0.55664  0.70722  1.0000 -0.1290228431
C   C761      1.0  0.92998  0.54810  0.70980  1.0000 0.0722865792
C   C762      1.0  0.82419  0.49839  0.96421  1.0000 0.0852324148
C   C763      1.0  0.85480  0.50076  0.93426  1.0000 -0.1290228431
C   C764      1.0  0.85484  0.50642  0.90110  1.0000 -0.058461406
C   C765      1.0  0.82357  0.50835  0.89991  1.0000 -0.0327305448
C   C766      1.0  0.79435  0.50503  0.93149  1.0000 0.0722865792
C   C767      1.0  0.82259  0.51175  0.86661  1.0000 0.3777637816
C   C768      1.0  0.84545  0.52537  0.80577  1.0000 0.3777637816
C   C769      1.0  0.79719  0.50715  0.83761  1.0000 0.3611029889
C   C770      1.0  0.77041  0.49713  0.83873  1.0000 -0.0211846221
C   C771      1.0  0.74510  0.48412  0.87078  1.0000 -0.058461406
C   C772      1.0  0.72092  0.47586  0.86872  1.0000 -0.1290228431
C   C773      1.0  0.72280  0.47984  0.83558  1.0000 0.0852324148
C   C774      1.0  0.76457  0.46163  0.70287  1.0000 0.0722865792
C   C775      1.0  0.77236  0.45602  0.67230  1.0000 -0.1246313507
C   C776      1.0  0.77561  0.48351  0.63985  1.0000 -0.0543152985
C   C777      1.0  0.77107  0.49969  0.80667  1.0000 0.0542346145
C   C778      1.0  0.77088  0.51696  0.63840  1.0000 -0.0327305448
C   C779      1.0  0.76207  0.52047  0.67099  1.0000 0.0611520301
C   C780      1.0  0.77262  0.54758  0.60478  1.0000 0.3611029889
C   C781      1.0  0.66355  0.27713  0.02001  1.0000 0.2424770163
C   C782      1.0  0.70545  0.44539  0.79113  1.0000 0.2424770163
C   C783      1.0  0.77163  0.29321  0.90739  1.0000 0.0611520301
C   C784      1.0  0.77111  0.31941  0.87391  1.0000 -0.0211846221
C   C785      1.0  0.73839  0.34317  0.86927  1.0000 -0.058461406
C   C786      1.0  0.70722  0.33888  0.89726  1.0000 -0.1290228431
C   C787      1.0  0.70980  0.31212  0.92998  1.0000 0.0722865792
C   C788      1.0  0.96421  0.21321  0.82419  1.0000 0.0844448283
C   C789      1.0  0.93426  0.21018  0.85480  1.0000 -0.1290228431
C   C790      1.0  0.90110  0.23764  0.85484  1.0000 -0.058461406
C   C791      1.0  0.89991  0.26817  0.82357  1.0000 -0.0327305448
C   C792      1.0  0.93149  0.26913  0.79435  1.0000 0.0722865792
C   C793      1.0  0.86661  0.29905  0.82259  1.0000 0.3777637816
C   C794      1.0  0.80577  0.32341  0.84545  1.0000 0.3777637816
C   C795      1.0  0.83761  0.35805  0.79719  1.0000 0.3611029889
C   C796      1.0  0.83873  0.39373  0.77041  1.0000 -0.0211846221
C   C797      1.0  0.87078  0.40000  0.74510  1.0000 -0.0543152985
C   C798      1.0  0.86872  0.43450  0.72092  1.0000 -0.1290228431
C   C799      1.0  0.83558  0.46178  0.72280  1.0000 0.0852324148
C   C800      1.0  0.70287  0.57093  0.76457  1.0000 0.0722865792
C   C801      1.0  0.67230  0.59932  0.77236  1.0000 -0.1246313507
C   C802      1.0  0.63985  0.60103  0.77561  1.0000 -0.0543152985
C   C803      1.0  0.80667  0.42257  0.77107  1.0000 0.0542346145
C   C804      1.0  0.63840  0.57376  0.77088  1.0000 -0.0327305448
C   C805      1.0  0.67099  0.54647  0.76207  1.0000 0.0611520301
C   C806      1.0  0.60478  0.57502  0.77262  1.0000 0.3611029889
C   C807      1.0  0.53931  0.02001  0.27713  1.0000 0.2424770163
C   C808      1.0  0.55803  0.79113  0.44539  1.0000 0.2424770163
C   C809      1.0  0.52777  0.90739  0.29321  1.0000 0.0611520301
C   C810      1.0  0.53557  0.87391  0.31941  1.0000 -0.0211846221
C   C811      1.0  0.54917  0.86927  0.34317  1.0000 -0.058461406
C   C812      1.0  0.55664  0.89726  0.33888  1.0000 -0.1290228431
C   C813      1.0  0.54810  0.92998  0.31212  1.0000 0.0722865792
C   C814      1.0  0.49839  0.82419  0.21321  1.0000 0.0844448283
C   C815      1.0  0.50076  0.85480  0.21018  1.0000 -0.1290228431
C   C816      1.0  0.50642  0.85484  0.23764  1.0000 -0.058461406
C   C817      1.0  0.50835  0.82357  0.26817  1.0000 -0.0327305448
C   C818      1.0  0.50503  0.79435  0.26913  1.0000 0.0722865792
C   C819      1.0  0.51175  0.82259  0.29905  1.0000 0.3777637816
C   C820      1.0  0.52537  0.84545  0.32341  1.0000 0.3777637816
C   C821      1.0  0.50715  0.79719  0.35805  1.0000 0.3611029889
C   C822      1.0  0.49713  0.77041  0.39373  1.0000 -0.0211846221
C   C823      1.0  0.48412  0.74510  0.40000  1.0000 -0.058461406
C   C824      1.0  0.47586  0.72092  0.43450  1.0000 -0.1290228431
C   C825      1.0  0.47984  0.72280  0.46178  1.0000 0.0852324148
C   C826      1.0  0.46163  0.76457  0.57093  1.0000 0.0722865792
C   C827      1.0  0.45602  0.77236  0.59932  1.0000 -0.1246313507
C   C828      1.0  0.48351  0.77561  0.60103  1.0000 -0.0543152985
C   C829      1.0  0.49969  0.77107  0.42257  1.0000 0.0542346145
C   C830      1.0  0.51696  0.77088  0.57376  1.0000 -0.0327305448
C   C831      1.0  0.52047  0.76207  0.54647  1.0000 0.0611520301
C   C832      1.0  0.54758  0.77262  0.57502  1.0000 0.3611029889
C   C833      1.0  0.53931  0.27713  0.66355  1.0000 0.2424770163
C   C834      1.0  0.55803  0.44539  0.70545  1.0000 0.2424770163
C   C835      1.0  0.52777  0.29321  0.77163  1.0000 0.0611520301
C   C836      1.0  0.53557  0.31941  0.77111  1.0000 -0.0211846221
C   C837      1.0  0.54917  0.34317  0.73839  1.0000 -0.058461406
C   C838      1.0  0.55664  0.33888  0.70722  1.0000 -0.1290228431
C   C839      1.0  0.54810  0.31212  0.70980  1.0000 0.0722865792
C   C840      1.0  0.49839  0.21321  0.96421  1.0000 0.0852324148
C   C841      1.0  0.50076  0.21018  0.93426  1.0000 -0.1290228431
C   C842      1.0  0.50642  0.23764  0.90110  1.0000 -0.058461406
C   C843      1.0  0.50835  0.26817  0.89991  1.0000 -0.0327305448
C   C844      1.0  0.50503  0.26913  0.93149  1.0000 0.0722865792
C   C845      1.0  0.51175  0.29905  0.86661  1.0000 0.3777637816
C   C846      1.0  0.52537  0.32341  0.80577  1.0000 0.3777637816
C   C847      1.0  0.50715  0.35805  0.83761  1.0000 0.3611029889
C   C848      1.0  0.49713  0.39373  0.83873  1.0000 -0.0211846221
C   C849      1.0  0.48412  0.40000  0.87078  1.0000 -0.058461406
C   C850      1.0  0.47586  0.43450  0.86872  1.0000 -0.1290228431
C   C851      1.0  0.47984  0.46178  0.83558  1.0000 0.0852324148
C   C852      1.0  0.46163  0.57093  0.70287  1.0000 0.0722865792
C   C853      1.0  0.45602  0.59932  0.67230  1.0000 -0.1246313507
C   C854      1.0  0.48351  0.60103  0.63985  1.0000 -0.0543152985
C   C855      1.0  0.49969  0.42257  0.80667  1.0000 0.0542346145
C   C856      1.0  0.51696  0.57376  0.63840  1.0000 -0.0327305448
C   C857      1.0  0.52047  0.54647  0.67099  1.0000 0.0611520301
C   C858      1.0  0.54758  0.57502  0.60478  1.0000 0.3611029889
C   C859      1.0  0.66355  0.02001  0.53931  1.0000 0.2424770163
C   C860      1.0  0.70545  0.79113  0.55803  1.0000 0.2424770163
C   C861      1.0  0.77163  0.90739  0.52777  1.0000 0.0611520301
C   C862      1.0  0.77111  0.87391  0.53557  1.0000 -0.0211846221
C   C863      1.0  0.73839  0.86927  0.54917  1.0000 -0.058461406
C   C864      1.0  0.70722  0.89726  0.55664  1.0000 -0.1290228431
C   C865      1.0  0.70980  0.92998  0.54810  1.0000 0.0722865792
C   C866      1.0  0.96421  0.82419  0.49839  1.0000 0.0852324148
C   C867      1.0  0.93426  0.85480  0.50076  1.0000 -0.1290228431
C   C868      1.0  0.90110  0.85484  0.50642  1.0000 -0.058461406
C   C869      1.0  0.89991  0.82357  0.50835  1.0000 -0.0327305448
C   C870      1.0  0.93149  0.79435  0.50503  1.0000 0.0722865792
C   C871      1.0  0.86661  0.82259  0.51175  1.0000 0.3777637816
C   C872      1.0  0.80577  0.84545  0.52537  1.0000 0.3777637816
C   C873      1.0  0.83761  0.79719  0.50715  1.0000 0.3611029889
C   C874      1.0  0.83873  0.77041  0.49713  1.0000 -0.0211846221
C   C875      1.0  0.87078  0.74510  0.48412  1.0000 -0.058461406
C   C876      1.0  0.86872  0.72092  0.47586  1.0000 -0.1290228431
C   C877      1.0  0.83558  0.72280  0.47984  1.0000 0.0852324148
C   C878      1.0  0.70287  0.76457  0.46163  1.0000 0.0722865792
C   C879      1.0  0.67230  0.77236  0.45602  1.0000 -0.1246313507
C   C880      1.0  0.63985  0.77561  0.48351  1.0000 -0.0543152985
C   C881      1.0  0.80667  0.77107  0.49969  1.0000 0.0542346145
C   C882      1.0  0.63840  0.77088  0.51696  1.0000 -0.0327305448
C   C883      1.0  0.67099  0.76207  0.52047  1.0000 0.0611520301
C   C884      1.0  0.60478  0.77262  0.54758  1.0000 0.3611029889
C   C885      1.0  0.02001  0.66355  0.27713  1.0000 0.2424770163
C   C886      1.0  0.79113  0.70545  0.44539  1.0000 0.2424770163
C   C887      1.0  0.90739  0.77163  0.29321  1.0000 0.0611520301
C   C888      1.0  0.87391  0.77111  0.31941  1.0000 -0.0211846221
C   C889      1.0  0.86927  0.73839  0.34317  1.0000 -0.058461406
C   C890      1.0  0.89726  0.70722  0.33888  1.0000 -0.1290228431
C   C891      1.0  0.92998  0.70980  0.31212  1.0000 0.0722865792
C   C892      1.0  0.82419  0.96421  0.21321  1.0000 0.0844448283
C   C893      1.0  0.85480  0.93426  0.21018  1.0000 -0.1290228431
C   C894      1.0  0.85484  0.90110  0.23764  1.0000 -0.058461406
C   C895      1.0  0.82357  0.89991  0.26817  1.0000 -0.0327305448
C   C896      1.0  0.79435  0.93149  0.26913  1.0000 0.0722865792
C   C897      1.0  0.82259  0.86661  0.29905  1.0000 0.3777637816
C   C898      1.0  0.84545  0.80577  0.32341  1.0000 0.3777637816
C   C899      1.0  0.79719  0.83761  0.35805  1.0000 0.3611029889
C   C900      1.0  0.77041  0.83873  0.39373  1.0000 -0.0211846221
C   C901      1.0  0.74510  0.87078  0.40000  1.0000 -0.058461406
C   C902      1.0  0.72092  0.86872  0.43450  1.0000 -0.1290228431
C   C903      1.0  0.72280  0.83558  0.46178  1.0000 0.0852324148
C   C904      1.0  0.76457  0.70287  0.57093  1.0000 0.0722865792
C   C905      1.0  0.77236  0.67230  0.59932  1.0000 -0.1246313507
C   C906      1.0  0.77561  0.63985  0.60103  1.0000 -0.0543152985
C   C907      1.0  0.77107  0.80667  0.42257  1.0000 0.0542346145
C   C908      1.0  0.77088  0.63840  0.57376  1.0000 -0.0327305448
C   C909      1.0  0.76207  0.67099  0.54647  1.0000 0.0611520301
C   C910      1.0  0.77262  0.60478  0.57502  1.0000 0.3611029889
C   C911      1.0  0.27713  0.53931  0.02001  1.0000 0.2424770163
C   C912      1.0  0.44539  0.55803  0.79113  1.0000 0.2424770163
C   C913      1.0  0.29321  0.52777  0.90739  1.0000 0.0611520301
C   C914      1.0  0.31941  0.53557  0.87391  1.0000 -0.0211846221
C   C915      1.0  0.34317  0.54917  0.86927  1.0000 -0.058461406
C   C916      1.0  0.33888  0.55664  0.89726  1.0000 -0.1290228431
C   C917      1.0  0.31212  0.54810  0.92998  1.0000 0.0722865792
C   C918      1.0  0.21321  0.49839  0.82419  1.0000 0.0852324148
C   C919      1.0  0.21018  0.50076  0.85480  1.0000 -0.1290228431
C   C920      1.0  0.23764  0.50642  0.85484  1.0000 -0.058461406
C   C921      1.0  0.26817  0.50835  0.82357  1.0000 -0.0327305448
C   C922      1.0  0.26913  0.50503  0.79435  1.0000 0.0722865792
C   C923      1.0  0.29905  0.51175  0.82259  1.0000 0.3777637816
C   C924      1.0  0.32341  0.52537  0.84545  1.0000 0.3777637816
C   C925      1.0  0.35805  0.50715  0.79719  1.0000 0.3611029889
C   C926      1.0  0.39373  0.49713  0.77041  1.0000 -0.0211846221
C   C927      1.0  0.40000  0.48412  0.74510  1.0000 -0.0543152985
C   C928      1.0  0.43450  0.47586  0.72092  1.0000 -0.1290228431
C   C929      1.0  0.46178  0.47984  0.72280  1.0000 0.0852324148
C   C930      1.0  0.57093  0.46163  0.76457  1.0000 0.0722865792
C   C931      1.0  0.59932  0.45602  0.77236  1.0000 -0.1246313507
C   C932      1.0  0.60103  0.48351  0.77561  1.0000 -0.0543152985
C   C933      1.0  0.42257  0.49969  0.77107  1.0000 0.0542346145
C   C934      1.0  0.57376  0.51696  0.77088  1.0000 -0.0327305448
C   C935      1.0  0.54647  0.52047  0.76207  1.0000 0.0611520301
C   C936      1.0  0.57502  0.54758  0.77262  1.0000 0.3611029889
C   C937      1.0  0.83645  0.96069  0.47999  1.0000 0.2424770163
C   C938      1.0  0.79455  0.94197  0.70887  1.0000 0.2424770163
C   C939      1.0  0.72837  0.97223  0.59261  1.0000 0.0611520301
C   C940      1.0  0.72889  0.96443  0.62609  1.0000 -0.0211846221
C   C941      1.0  0.76161  0.95083  0.63073  1.0000 -0.058461406
C   C942      1.0  0.79278  0.94336  0.60274  1.0000 -0.1290228431
C   C943      1.0  0.79020  0.95190  0.57002  1.0000 0.0722865792
C   C944      1.0  0.53579  0.00161  0.67581  1.0000 0.0852324148
C   C945      1.0  0.56574  0.99924  0.64520  1.0000 -0.1290228431
C   C946      1.0  0.59890  0.99358  0.64516  1.0000 -0.058461406
C   C947      1.0  0.60009  0.99165  0.67643  1.0000 -0.0327305448
C   C948      1.0  0.56851  0.99497  0.70565  1.0000 0.0722865792
C   C949      1.0  0.63339  0.98825  0.67741  1.0000 0.3777637816
C   C950      1.0  0.69423  0.97463  0.65455  1.0000 0.3777637816
C   C951      1.0  0.66239  0.99285  0.70281  1.0000 0.3611029889
C   C952      1.0  0.66127  0.00287  0.72959  1.0000 -0.0211846221
C   C953      1.0  0.62922  0.01588  0.75490  1.0000 -0.0543152985
C   C954      1.0  0.63128  0.02414  0.77908  1.0000 -0.1290228431
C   C955      1.0  0.66442  0.02016  0.77720  1.0000 0.0852324148
C   C956      1.0  0.79713  0.03837  0.73543  1.0000 0.0722865792
C   C957      1.0  0.82770  0.04398  0.72764  1.0000 -0.1246313507
C   C958      1.0  0.86015  0.01649  0.72439  1.0000 -0.0543152985
C   C959      1.0  0.69333  0.00031  0.72893  1.0000 0.0542346145
C   C960      1.0  0.86160  0.98304  0.72912  1.0000 -0.0327305448
C   C961      1.0  0.82901  0.97953  0.73793  1.0000 0.0611520301
C   C962      1.0  0.89522  0.95242  0.72738  1.0000 0.3611029889
C   C963      1.0  0.96069  0.83645  0.22287  1.0000 0.2424770163
C   C964      1.0  0.94197  0.79455  0.05461  1.0000 0.2424770163
C   C965      1.0  0.97223  0.72837  0.20679  1.0000 0.0611520301
C   C966      1.0  0.96443  0.72889  0.18059  1.0000 -0.0211846221
C   C967      1.0  0.95083  0.76161  0.15683  1.0000 -0.058461406
C   C968      1.0  0.94336  0.79278  0.16112  1.0000 -0.1290228431
C   C969      1.0  0.95190  0.79020  0.18788  1.0000 0.0722865792
C   C970      1.0  0.00161  0.53579  0.28679  1.0000 0.0852324148
C   C971      1.0  0.99924  0.56574  0.28982  1.0000 -0.1290228431
C   C972      1.0  0.99358  0.59890  0.26236  1.0000 -0.058461406
C   C973      1.0  0.99165  0.60009  0.23183  1.0000 -0.0327305448
C   C974      1.0  0.99497  0.56851  0.23087  1.0000 0.0722865792
C   C975      1.0  0.98825  0.63339  0.20095  1.0000 0.3777637816
C   C976      1.0  0.97463  0.69423  0.17659  1.0000 0.3777637816
C   C977      1.0  0.99285  0.66239  0.14195  1.0000 0.3611029889
C   C978      1.0  0.00287  0.66127  0.10627  1.0000 -0.0211846221
C   C979      1.0  0.01588  0.62922  0.10000  1.0000 -0.058461406
C   C980      1.0  0.02414  0.63128  0.06550  1.0000 -0.1290228431
C   C981      1.0  0.02016  0.66442  0.03822  1.0000 0.0852324148
C   C982      1.0  0.03837  0.79713  0.92907  1.0000 0.0722865792
C   C983      1.0  0.04398  0.82770  0.90068  1.0000 -0.1246313507
C   C984      1.0  0.01649  0.86015  0.89897  1.0000 -0.0543152985
C   C985      1.0  0.00031  0.69333  0.07743  1.0000 0.0542346145
C   C986      1.0  0.98304  0.86160  0.92624  1.0000 -0.0327305448
C   C987      1.0  0.97953  0.82901  0.95353  1.0000 0.0611520301
C   C988      1.0  0.95242  0.89522  0.92498  1.0000 0.3611029889
C   C989      1.0  0.22287  0.47999  0.96069  1.0000 0.2424770163
C   C990      1.0  0.05461  0.70887  0.94197  1.0000 0.2424770163
C   C991      1.0  0.20679  0.59261  0.97223  1.0000 0.0611520301
C   C992      1.0  0.18059  0.62609  0.96443  1.0000 -0.0211846221
C   C993      1.0  0.15683  0.63073  0.95083  1.0000 -0.058461406
C   C994      1.0  0.16112  0.60274  0.94336  1.0000 -0.1290228431
C   C995      1.0  0.18788  0.57002  0.95190  1.0000 0.0722865792
C   C996      1.0  0.28679  0.67581  0.00161  1.0000 0.0844448283
C   C997      1.0  0.28982  0.64520  0.99924  1.0000 -0.1290228431
C   C998      1.0  0.26236  0.64516  0.99358  1.0000 -0.058461406
C   C999      1.0  0.23183  0.67643  0.99165  1.0000 -0.0327305448
C   C1000     1.0  0.23087  0.70565  0.99497  1.0000 0.0722865792
C   C1001     1.0  0.20095  0.67741  0.98825  1.0000 0.3777637816
C   C1002     1.0  0.17659  0.65455  0.97463  1.0000 0.3777637816
C   C1003     1.0  0.14195  0.70281  0.99285  1.0000 0.3611029889
C   C1004     1.0  0.10627  0.72959  0.00287  1.0000 -0.0211846221
C   C1005     1.0  0.10000  0.75490  0.01588  1.0000 -0.058461406
C   C1006     1.0  0.06550  0.77908  0.02414  1.0000 -0.1290228431
C   C1007     1.0  0.03822  0.77720  0.02016  1.0000 0.0852324148
C   C1008     1.0  0.92907  0.73543  0.03837  1.0000 0.0722865792
C   C1009     1.0  0.90068  0.72764  0.04398  1.0000 -0.1246313507
C   C1010     1.0  0.89897  0.72439  0.01649  1.0000 -0.0543152985
C   C1011     1.0  0.07743  0.72893  0.00031  1.0000 0.0542346145
C   C1012     1.0  0.92624  0.72912  0.98304  1.0000 -0.0327305448
C   C1013     1.0  0.95353  0.73793  0.97953  1.0000 0.0611520301
C   C1014     1.0  0.92498  0.72738  0.95242  1.0000 0.3611029889
C   C1015     1.0  0.47999  0.22287  0.83645  1.0000 0.2424770163
C   C1016     1.0  0.70887  0.05461  0.79455  1.0000 0.2424770163
C   C1017     1.0  0.59261  0.20679  0.72837  1.0000 0.0611520301
C   C1018     1.0  0.62609  0.18059  0.72889  1.0000 -0.0211846221
C   C1019     1.0  0.63073  0.15683  0.76161  1.0000 -0.058461406
C   C1020     1.0  0.60274  0.16112  0.79278  1.0000 -0.1290228431
C   C1021     1.0  0.57002  0.18788  0.79020  1.0000 0.0722865792
C   C1022     1.0  0.67581  0.28679  0.53579  1.0000 0.0852324148
C   C1023     1.0  0.64520  0.28982  0.56574  1.0000 -0.1290228431
C   C1024     1.0  0.64516  0.26236  0.59890  1.0000 -0.058461406
C   C1025     1.0  0.67643  0.23183  0.60009  1.0000 -0.0327305448
C   C1026     1.0  0.70565  0.23087  0.56851  1.0000 0.0722865792
C   C1027     1.0  0.67741  0.20095  0.63339  1.0000 0.3777637816
C   C1028     1.0  0.65455  0.17659  0.69423  1.0000 0.3777637816
C   C1029     1.0  0.70281  0.14195  0.66239  1.0000 0.3611029889
C   C1030     1.0  0.72959  0.10627  0.66127  1.0000 -0.0211846221
C   C1031     1.0  0.75490  0.10000  0.62922  1.0000 -0.058461406
C   C1032     1.0  0.77908  0.06550  0.63128  1.0000 -0.1290228431
C   C1033     1.0  0.77720  0.03822  0.66442  1.0000 0.0852324148
C   C1034     1.0  0.73543  0.92907  0.79713  1.0000 0.0722865792
C   C1035     1.0  0.72764  0.90068  0.82770  1.0000 -0.1290228431
C   C1036     1.0  0.72439  0.89897  0.86015  1.0000 -0.0543152985
C   C1037     1.0  0.72893  0.07743  0.69333  1.0000 0.0542346145
C   C1038     1.0  0.72912  0.92624  0.86160  1.0000 -0.0327305448
C   C1039     1.0  0.73793  0.95353  0.82901  1.0000 0.0611520301
C   C1040     1.0  0.72738  0.92498  0.89522  1.0000 0.3611029889
C   C1041     1.0  0.22287  0.83645  0.47999  1.0000 0.2424770163
C   C1042     1.0  0.05461  0.79455  0.70887  1.0000 0.2424770163
C   C1043     1.0  0.20679  0.72837  0.59261  1.0000 0.0611520301
C   C1044     1.0  0.18059  0.72889  0.62609  1.0000 -0.0211846221
C   C1045     1.0  0.15683  0.76161  0.63073  1.0000 -0.058461406
C   C1046     1.0  0.16112  0.79278  0.60274  1.0000 -0.1290228431
C   C1047     1.0  0.18788  0.79020  0.57002  1.0000 0.0722865792
C   C1048     1.0  0.28679  0.53579  0.67581  1.0000 0.0852324148
C   C1049     1.0  0.28982  0.56574  0.64520  1.0000 -0.1290228431
C   C1050     1.0  0.26236  0.59890  0.64516  1.0000 -0.058461406
C   C1051     1.0  0.23183  0.60009  0.67643  1.0000 -0.0327305448
C   C1052     1.0  0.23087  0.56851  0.70565  1.0000 0.0722865792
C   C1053     1.0  0.20095  0.63339  0.67741  1.0000 0.3777637816
C   C1054     1.0  0.17659  0.69423  0.65455  1.0000 0.3777637816
C   C1055     1.0  0.14195  0.66239  0.70281  1.0000 0.3611029889
C   C1056     1.0  0.10627  0.66127  0.72959  1.0000 -0.0211846221
C   C1057     1.0  0.10000  0.62922  0.75490  1.0000 -0.058461406
C   C1058     1.0  0.06550  0.63128  0.77908  1.0000 -0.1290228431
C   C1059     1.0  0.03822  0.66442  0.77720  1.0000 0.0852324148
C   C1060     1.0  0.92907  0.79713  0.73543  1.0000 0.0722865792
C   C1061     1.0  0.90068  0.82770  0.72764  1.0000 -0.1246313507
C   C1062     1.0  0.89897  0.86015  0.72439  1.0000 -0.0543152985
C   C1063     1.0  0.07743  0.69333  0.72893  1.0000 0.0542346145
C   C1064     1.0  0.92624  0.86160  0.72912  1.0000 -0.0327305448
C   C1065     1.0  0.95353  0.82901  0.73793  1.0000 0.0611520301
C   C1066     1.0  0.92498  0.89522  0.72738  1.0000 0.3611029889
C   C1067     1.0  0.47999  0.96069  0.22287  1.0000 0.2424770163
C   C1068     1.0  0.70887  0.94197  0.05461  1.0000 0.2424770163
C   C1069     1.0  0.59261  0.97223  0.20679  1.0000 0.0611520301
C   C1070     1.0  0.62609  0.96443  0.18059  1.0000 -0.0211846221
C   C1071     1.0  0.63073  0.95083  0.15683  1.0000 -0.058461406
C   C1072     1.0  0.60274  0.94336  0.16112  1.0000 -0.1290228431
C   C1073     1.0  0.57002  0.95190  0.18788  1.0000 0.0722865792
C   C1074     1.0  0.67581  0.00161  0.28679  1.0000 0.0852324148
C   C1075     1.0  0.64520  0.99924  0.28982  1.0000 -0.1290228431
C   C1076     1.0  0.64516  0.99358  0.26236  1.0000 -0.058461406
C   C1077     1.0  0.67643  0.99165  0.23183  1.0000 -0.0327305448
C   C1078     1.0  0.70565  0.99497  0.23087  1.0000 0.0722865792
C   C1079     1.0  0.67741  0.98825  0.20095  1.0000 0.3777637816
C   C1080     1.0  0.65455  0.97463  0.17659  1.0000 0.3777637816
C   C1081     1.0  0.70281  0.99285  0.14195  1.0000 0.3611029889
C   C1082     1.0  0.72959  0.00287  0.10627  1.0000 -0.0211846221
C   C1083     1.0  0.75490  0.01588  0.10000  1.0000 -0.0543152985
C   C1084     1.0  0.77908  0.02414  0.06550  1.0000 -0.1290228431
C   C1085     1.0  0.77720  0.02016  0.03822  1.0000 0.0852324148
C   C1086     1.0  0.73543  0.03837  0.92907  1.0000 0.0722865792
C   C1087     1.0  0.72764  0.04398  0.90068  1.0000 -0.1246313507
C   C1088     1.0  0.72439  0.01649  0.89897  1.0000 -0.0543152985
C   C1089     1.0  0.72893  0.00031  0.07743  1.0000 0.0542346145
C   C1090     1.0  0.72912  0.98304  0.92624  1.0000 -0.0327305448
C   C1091     1.0  0.73793  0.97953  0.95353  1.0000 0.0611520301
C   C1092     1.0  0.72738  0.95242  0.92498  1.0000 0.3611029889
C   C1093     1.0  0.83645  0.22287  0.96069  1.0000 0.2424770163
C   C1094     1.0  0.79455  0.05461  0.94197  1.0000 0.2424770163
C   C1095     1.0  0.72837  0.20679  0.97223  1.0000 0.0611520301
C   C1096     1.0  0.72889  0.18059  0.96443  1.0000 -0.0211846221
C   C1097     1.0  0.76161  0.15683  0.95083  1.0000 -0.058461406
C   C1098     1.0  0.79278  0.16112  0.94336  1.0000 -0.1290228431
C   C1099     1.0  0.79020  0.18788  0.95190  1.0000 0.0722865792
C   C1100     1.0  0.53579  0.28679  0.00161  1.0000 0.0852324148
C   C1101     1.0  0.56574  0.28982  0.99924  1.0000 -0.1290228431
C   C1102     1.0  0.59890  0.26236  0.99358  1.0000 -0.058461406
C   C1103     1.0  0.60009  0.23183  0.99165  1.0000 -0.0327305448
C   C1104     1.0  0.56851  0.23087  0.99497  1.0000 0.0722865792
C   C1105     1.0  0.63339  0.20095  0.98825  1.0000 0.3777637816
C   C1106     1.0  0.69423  0.17659  0.97463  1.0000 0.3777637816
C   C1107     1.0  0.66239  0.14195  0.99285  1.0000 0.3611029889
C   C1108     1.0  0.66127  0.10627  0.00287  1.0000 -0.0211846221
C   C1109     1.0  0.62922  0.10000  0.01588  1.0000 -0.0543152985
C   C1110     1.0  0.63128  0.06550  0.02414  1.0000 -0.1290228431
C   C1111     1.0  0.66442  0.03822  0.02016  1.0000 0.0852324148
C   C1112     1.0  0.79713  0.92907  0.03837  1.0000 0.0722865792
C   C1113     1.0  0.82770  0.90068  0.04398  1.0000 -0.1246313507
C   C1114     1.0  0.86015  0.89897  0.01649  1.0000 -0.0543152985
C   C1115     1.0  0.69333  0.07743  0.00031  1.0000 0.0542346145
C   C1116     1.0  0.86160  0.92624  0.98304  1.0000 -0.0327305448
C   C1117     1.0  0.82901  0.95353  0.97953  1.0000 0.0611520301
C   C1118     1.0  0.89522  0.92498  0.95242  1.0000 0.3611029889
C   C1119     1.0  0.96069  0.47999  0.83645  1.0000 0.2424770163
C   C1120     1.0  0.94197  0.70887  0.79455  1.0000 0.2424770163
C   C1121     1.0  0.97223  0.59261  0.72837  1.0000 0.0611520301
C   C1122     1.0  0.96443  0.62609  0.72889  1.0000 -0.0211846221
C   C1123     1.0  0.95083  0.63073  0.76161  1.0000 -0.058461406
C   C1124     1.0  0.94336  0.60274  0.79278  1.0000 -0.1290228431
C   C1125     1.0  0.95190  0.57002  0.79020  1.0000 0.0722865792
C   C1126     1.0  0.00161  0.67581  0.53579  1.0000 0.0844448283
C   C1127     1.0  0.99924  0.64520  0.56574  1.0000 -0.1290228431
C   C1128     1.0  0.99358  0.64516  0.59890  1.0000 -0.058461406
C   C1129     1.0  0.99165  0.67643  0.60009  1.0000 -0.0327305448
C   C1130     1.0  0.99497  0.70565  0.56851  1.0000 0.0722865792
C   C1131     1.0  0.98825  0.67741  0.63339  1.0000 0.3777637816
C   C1132     1.0  0.97463  0.65455  0.69423  1.0000 0.3777637816
C   C1133     1.0  0.99285  0.70281  0.66239  1.0000 0.3611029889
C   C1134     1.0  0.00287  0.72959  0.66127  1.0000 -0.0211846221
C   C1135     1.0  0.01588  0.75490  0.62922  1.0000 -0.0543152985
C   C1136     1.0  0.02414  0.77908  0.63128  1.0000 -0.1290228431
C   C1137     1.0  0.02016  0.77720  0.66442  1.0000 0.0852324148
C   C1138     1.0  0.03837  0.73543  0.79713  1.0000 0.0722865792
C   C1139     1.0  0.04398  0.72764  0.82770  1.0000 -0.1246313507
C   C1140     1.0  0.01649  0.72439  0.86015  1.0000 -0.0543152985
C   C1141     1.0  0.00031  0.72893  0.69333  1.0000 0.0542346145
C   C1142     1.0  0.98304  0.72912  0.86160  1.0000 -0.0327305448
C   C1143     1.0  0.97953  0.73793  0.82901  1.0000 0.0611520301
C   C1144     1.0  0.95242  0.72738  0.89522  1.0000 0.3611029889
C   C1145     1.0  0.96069  0.22287  0.47999  1.0000 0.2424770163
C   C1146     1.0  0.94197  0.05461  0.70887  1.0000 0.2424770163
C   C1147     1.0  0.97223  0.20679  0.59261  1.0000 0.0611520301
C   C1148     1.0  0.96443  0.18059  0.62609  1.0000 -0.0211846221
C   C1149     1.0  0.95083  0.15683  0.63073  1.0000 -0.058461406
C   C1150     1.0  0.94336  0.16112  0.60274  1.0000 -0.1290228431
C   C1151     1.0  0.95190  0.18788  0.57002  1.0000 0.0722865792
C   C1152     1.0  0.00161  0.28679  0.67581  1.0000 0.0844448283
C   C1153     1.0  0.99924  0.28982  0.64520  1.0000 -0.1290228431
C   C1154     1.0  0.99358  0.26236  0.64516  1.0000 -0.058461406
C   C1155     1.0  0.99165  0.23183  0.67643  1.0000 -0.0327305448
C   C1156     1.0  0.99497  0.23087  0.70565  1.0000 0.0722865792
C   C1157     1.0  0.98825  0.20095  0.67741  1.0000 0.3777637816
C   C1158     1.0  0.97463  0.17659  0.65455  1.0000 0.3777637816
C   C1159     1.0  0.99285  0.14195  0.70281  1.0000 0.3611029889
C   C1160     1.0  0.00287  0.10627  0.72959  1.0000 -0.0211846221
C   C1161     1.0  0.01588  0.10000  0.75490  1.0000 -0.0543152985
C   C1162     1.0  0.02414  0.06550  0.77908  1.0000 -0.1290228431
C   C1163     1.0  0.02016  0.03822  0.77720  1.0000 0.0852324148
C   C1164     1.0  0.03837  0.92907  0.73543  1.0000 0.0722865792
C   C1165     1.0  0.04398  0.90068  0.72764  1.0000 -0.1290228431
C   C1166     1.0  0.01649  0.89897  0.72439  1.0000 -0.0543152985
C   C1167     1.0  0.00031  0.07743  0.72893  1.0000 0.0542346145
C   C1168     1.0  0.98304  0.92624  0.72912  1.0000 -0.0327305448
C   C1169     1.0  0.97953  0.95353  0.73793  1.0000 0.0611520301
C   C1170     1.0  0.95242  0.92498  0.72738  1.0000 0.3611029889
C   C1171     1.0  0.83645  0.47999  0.22287  1.0000 0.2424770163
C   C1172     1.0  0.79455  0.70887  0.05461  1.0000 0.2424770163
C   C1173     1.0  0.72837  0.59261  0.20679  1.0000 0.0611520301
C   C1174     1.0  0.72889  0.62609  0.18059  1.0000 -0.0211846221
C   C1175     1.0  0.76161  0.63073  0.15683  1.0000 -0.058461406
C   C1176     1.0  0.79278  0.60274  0.16112  1.0000 -0.1290228431
C   C1177     1.0  0.79020  0.57002  0.18788  1.0000 0.0722865792
C   C1178     1.0  0.53579  0.67581  0.28679  1.0000 0.0852324148
C   C1179     1.0  0.56574  0.64520  0.28982  1.0000 -0.1290228431
C   C1180     1.0  0.59890  0.64516  0.26236  1.0000 -0.058461406
C   C1181     1.0  0.60009  0.67643  0.23183  1.0000 -0.0327305448
C   C1182     1.0  0.56851  0.70565  0.23087  1.0000 0.0722865792
C   C1183     1.0  0.63339  0.67741  0.20095  1.0000 0.3777637816
C   C1184     1.0  0.69423  0.65455  0.17659  1.0000 0.3777637816
C   C1185     1.0  0.66239  0.70281  0.14195  1.0000 0.3611029889
C   C1186     1.0  0.66127  0.72959  0.10627  1.0000 -0.0211846221
C   C1187     1.0  0.62922  0.75490  0.10000  1.0000 -0.058461406
C   C1188     1.0  0.63128  0.77908  0.06550  1.0000 -0.1290228431
C   C1189     1.0  0.66442  0.77720  0.03822  1.0000 0.0852324148
C   C1190     1.0  0.79713  0.73543  0.92907  1.0000 0.0722865792
C   C1191     1.0  0.82770  0.72764  0.90068  1.0000 -0.1246313507
C   C1192     1.0  0.86015  0.72439  0.89897  1.0000 -0.0543152985
C   C1193     1.0  0.69333  0.72893  0.07743  1.0000 0.0542346145
C   C1194     1.0  0.86160  0.72912  0.92624  1.0000 -0.0327305448
C   C1195     1.0  0.82901  0.73793  0.95353  1.0000 0.0611520301
C   C1196     1.0  0.89522  0.72738  0.92498  1.0000 0.3611029889
C   C1197     1.0  0.47999  0.83645  0.96069  1.0000 0.2424770163
C   C1198     1.0  0.70887  0.79455  0.94197  1.0000 0.2424770163
C   C1199     1.0  0.59261  0.72837  0.97223  1.0000 0.0611520301
C   C1200     1.0  0.62609  0.72889  0.96443  1.0000 -0.0211846221
C   C1201     1.0  0.63073  0.76161  0.95083  1.0000 -0.058461406
C   C1202     1.0  0.60274  0.79278  0.94336  1.0000 -0.1290228431
C   C1203     1.0  0.57002  0.79020  0.95190  1.0000 0.0722865792
C   C1204     1.0  0.67581  0.53579  0.00161  1.0000 0.0852324148
C   C1205     1.0  0.64520  0.56574  0.99924  1.0000 -0.1290228431
C   C1206     1.0  0.64516  0.59890  0.99358  1.0000 -0.058461406
C   C1207     1.0  0.67643  0.60009  0.99165  1.0000 -0.0327305448
C   C1208     1.0  0.70565  0.56851  0.99497  1.0000 0.0722865792
C   C1209     1.0  0.67741  0.63339  0.98825  1.0000 0.3777637816
C   C1210     1.0  0.65455  0.69423  0.97463  1.0000 0.3777637816
C   C1211     1.0  0.70281  0.66239  0.99285  1.0000 0.3611029889
C   C1212     1.0  0.72959  0.66127  0.00287  1.0000 -0.0211846221
C   C1213     1.0  0.75490  0.62922  0.01588  1.0000 -0.058461406
C   C1214     1.0  0.77908  0.63128  0.02414  1.0000 -0.1290228431
C   C1215     1.0  0.77720  0.66442  0.02016  1.0000 0.0852324148
C   C1216     1.0  0.73543  0.79713  0.03837  1.0000 0.0722865792
C   C1217     1.0  0.72764  0.82770  0.04398  1.0000 -0.1246313507
C   C1218     1.0  0.72439  0.86015  0.01649  1.0000 -0.0543152985
C   C1219     1.0  0.72893  0.69333  0.00031  1.0000 0.0542346145
C   C1220     1.0  0.72912  0.86160  0.98304  1.0000 -0.0327305448
C   C1221     1.0  0.73793  0.82901  0.97953  1.0000 0.0611520301
C   C1222     1.0  0.72738  0.89522  0.95242  1.0000 0.3611029889
C   C1223     1.0  0.22287  0.96069  0.83645  1.0000 0.2424770163
C   C1224     1.0  0.05461  0.94197  0.79455  1.0000 0.2424770163
C   C1225     1.0  0.20679  0.97223  0.72837  1.0000 0.0611520301
C   C1226     1.0  0.18059  0.96443  0.72889  1.0000 -0.0211846221
C   C1227     1.0  0.15683  0.95083  0.76161  1.0000 -0.058461406
C   C1228     1.0  0.16112  0.94336  0.79278  1.0000 -0.1290228431
C   C1229     1.0  0.18788  0.95190  0.79020  1.0000 0.0722865792
C   C1230     1.0  0.28679  0.00161  0.53579  1.0000 0.0852324148
C   C1231     1.0  0.28982  0.99924  0.56574  1.0000 -0.1290228431
C   C1232     1.0  0.26236  0.99358  0.59890  1.0000 -0.058461406
C   C1233     1.0  0.23183  0.99165  0.60009  1.0000 -0.0327305448
C   C1234     1.0  0.23087  0.99497  0.56851  1.0000 0.0722865792
C   C1235     1.0  0.20095  0.98825  0.63339  1.0000 0.3777637816
C   C1236     1.0  0.17659  0.97463  0.69423  1.0000 0.3777637816
C   C1237     1.0  0.14195  0.99285  0.66239  1.0000 0.3611029889
C   C1238     1.0  0.10627  0.00287  0.66127  1.0000 -0.0211846221
C   C1239     1.0  0.10000  0.01588  0.62922  1.0000 -0.0543152985
C   C1240     1.0  0.06550  0.02414  0.63128  1.0000 -0.1290228431
C   C1241     1.0  0.03822  0.02016  0.66442  1.0000 0.0852324148
C   C1242     1.0  0.92907  0.03837  0.79713  1.0000 0.0722865792
C   C1243     1.0  0.90068  0.04398  0.82770  1.0000 -0.1246313507
C   C1244     1.0  0.89897  0.01649  0.86015  1.0000 -0.0543152985
C   C1245     1.0  0.07743  0.00031  0.69333  1.0000 0.0542346145
C   C1246     1.0  0.92624  0.98304  0.86160  1.0000 -0.0327305448
C   C1247     1.0  0.95353  0.97953  0.82901  1.0000 0.0611520301
C   C1248     1.0  0.92498  0.95242  0.89522  1.0000 0.3611029889
S   S1        1.0  0.37879  0.45409  0.69791  1.0000 -0.4012234835
S   S2        1.0  0.31857  0.41045  0.58091  1.0000 -0.4101167008
S   S3        1.0  0.45409  0.37879  0.96921  1.0000 -0.4012234835
S   S4        1.0  0.41045  0.31857  0.19007  1.0000 -0.4101167008
S   S5        1.0  0.69791  0.96921  0.37879  1.0000 -0.4012234835
S   S6        1.0  0.58091  0.19007  0.31857  1.0000 -0.419688748
S   S7        1.0  0.96921  0.69791  0.45409  1.0000 -0.4012234835
S   S8        1.0  0.19007  0.58091  0.41045  1.0000 -0.4101167008
S   S9        1.0  0.69791  0.37879  0.45409  1.0000 -0.4012234835
S   S10       1.0  0.58091  0.31857  0.41045  1.0000 -0.4101167008
S   S11       1.0  0.96921  0.45409  0.37879  1.0000 -0.4012234835
S   S12       1.0  0.19007  0.41045  0.31857  1.0000 -0.4101167008
S   S13       1.0  0.37879  0.69791  0.96921  1.0000 -0.4012234835
S   S14       1.0  0.31857  0.58091  0.19007  1.0000 -0.4101167008
S   S15       1.0  0.45409  0.96921  0.69791  1.0000 -0.4012234835
S   S16       1.0  0.41045  0.19007  0.58091  1.0000 -0.419688748
S   S17       1.0  0.45409  0.69791  0.37879  1.0000 -0.4012234835
S   S18       1.0  0.41045  0.58091  0.31857  1.0000 -0.4101167008
S   S19       1.0  0.37879  0.96921  0.45409  1.0000 -0.4012234835
S   S20       1.0  0.31857  0.19007  0.41045  1.0000 -0.4101167008
S   S21       1.0  0.96921  0.37879  0.69791  1.0000 -0.4012234835
S   S22       1.0  0.19007  0.31857  0.58091  1.0000 -0.4101167008
S   S23       1.0  0.69791  0.45409  0.96921  1.0000 -0.4012234835
S   S24       1.0  0.58091  0.41045  0.19007  1.0000 -0.4101167008
S   S25       1.0  0.12121  0.04591  0.53079  1.0000 -0.4012234835
S   S26       1.0  0.18143  0.08955  0.30993  1.0000 -0.4101167008
S   S27       1.0  0.04591  0.12121  0.80209  1.0000 -0.4012234835
S   S28       1.0  0.08955  0.18143  0.91909  1.0000 -0.4101167008
S   S29       1.0  0.80209  0.53079  0.04591  1.0000 -0.4012234835
S   S30       1.0  0.91909  0.30993  0.08955  1.0000 -0.4101167008
S   S31       1.0  0.53079  0.80209  0.12121  1.0000 -0.4012234835
S   S32       1.0  0.30993  0.91909  0.18143  1.0000 -0.4101167008
S   S33       1.0  0.80209  0.12121  0.53079  1.0000 -0.4012234835
S   S34       1.0  0.91909  0.18143  0.30993  1.0000 -0.4101167008
S   S35       1.0  0.53079  0.04591  0.80209  1.0000 -0.4012234835
S   S36       1.0  0.30993  0.08955  0.91909  1.0000 -0.419688748
S   S37       1.0  0.12121  0.80209  0.04591  1.0000 -0.4012234835
S   S38       1.0  0.18143  0.91909  0.08955  1.0000 -0.4101167008
S   S39       1.0  0.04591  0.53079  0.12121  1.0000 -0.4012234835
S   S40       1.0  0.08955  0.30993  0.18143  1.0000 -0.4101167008
S   S41       1.0  0.04591  0.80209  0.53079  1.0000 -0.4012234835
S   S42       1.0  0.08955  0.91909  0.30993  1.0000 -0.4101167008
S   S43       1.0  0.12121  0.53079  0.80209  1.0000 -0.4012234835
S   S44       1.0  0.18143  0.30993  0.91909  1.0000 -0.419688748
S   S45       1.0  0.53079  0.12121  0.04591  1.0000 -0.4012234835
S   S46       1.0  0.30993  0.18143  0.08955  1.0000 -0.419688748
S   S47       1.0  0.80209  0.04591  0.12121  1.0000 -0.4012234835
S   S48       1.0  0.91909  0.08955  0.18143  1.0000 -0.4101167008
S   S49       1.0  0.62121  0.54591  0.30209  1.0000 -0.4012234835
S   S50       1.0  0.68143  0.58955  0.41909  1.0000 -0.4101167008
S   S51       1.0  0.54591  0.62121  0.03079  1.0000 -0.4012234835
S   S52       1.0  0.58955  0.68143  0.80993  1.0000 -0.4101167008
S   S53       1.0  0.30209  0.03079  0.62121  1.0000 -0.4012234835
S   S54       1.0  0.41909  0.80993  0.68143  1.0000 -0.4101167008
S   S55       1.0  0.03079  0.30209  0.54591  1.0000 -0.4012234835
S   S56       1.0  0.80993  0.41909  0.58955  1.0000 -0.4101167008
S   S57       1.0  0.30209  0.62121  0.54591  1.0000 -0.4012234835
S   S58       1.0  0.41909  0.68143  0.58955  1.0000 -0.4101167008
S   S59       1.0  0.03079  0.54591  0.62121  1.0000 -0.4012234835
S   S60       1.0  0.80993  0.58955  0.68143  1.0000 -0.4101167008
S   S61       1.0  0.62121  0.30209  0.03079  1.0000 -0.4012234835
S   S62       1.0  0.68143  0.41909  0.80993  1.0000 -0.419688748
S   S63       1.0  0.54591  0.03079  0.30209  1.0000 -0.4012234835
S   S64       1.0  0.58955  0.80993  0.41909  1.0000 -0.4101167008
S   S65       1.0  0.54591  0.30209  0.62121  1.0000 -0.4012234835
S   S66       1.0  0.58955  0.41909  0.68143  1.0000 -0.4101167008
S   S67       1.0  0.62121  0.03079  0.54591  1.0000 -0.4012234835
S   S68       1.0  0.68143  0.80993  0.58955  1.0000 -0.4101167008
S   S69       1.0  0.03079  0.62121  0.30209  1.0000 -0.4012234835
S   S70       1.0  0.80993  0.68143  0.41909  1.0000 -0.4101167008
S   S71       1.0  0.30209  0.54591  0.03079  1.0000 -0.4012234835
S   S72       1.0  0.41909  0.58955  0.80993  1.0000 -0.4101167008
S   S73       1.0  0.87879  0.95409  0.46921  1.0000 -0.4012234835
S   S74       1.0  0.81857  0.91045  0.69007  1.0000 -0.4101167008
S   S75       1.0  0.95409  0.87879  0.19791  1.0000 -0.4012234835
S   S76       1.0  0.91045  0.81857  0.08091  1.0000 -0.4101167008
S   S77       1.0  0.19791  0.46921  0.95409  1.0000 -0.4012234835
S   S78       1.0  0.08091  0.69007  0.91045  1.0000 -0.4101167008
S   S79       1.0  0.46921  0.19791  0.87879  1.0000 -0.4012234835
S   S80       1.0  0.69007  0.08091  0.81857  1.0000 -0.4101167008
S   S81       1.0  0.19791  0.87879  0.46921  1.0000 -0.4012234835
S   S82       1.0  0.08091  0.81857  0.69007  1.0000 -0.4101167008
S   S83       1.0  0.46921  0.95409  0.19791  1.0000 -0.4012234835
S   S84       1.0  0.69007  0.91045  0.08091  1.0000 -0.4101167008
S   S85       1.0  0.87879  0.19791  0.95409  1.0000 -0.4012234835
S   S86       1.0  0.81857  0.08091  0.91045  1.0000 -0.4101167008
S   S87       1.0  0.95409  0.46921  0.87879  1.0000 -0.4012234835
S   S88       1.0  0.91045  0.69007  0.81857  1.0000 -0.4101167008
S   S89       1.0  0.95409  0.19791  0.46921  1.0000 -0.4012234835
S   S90       1.0  0.91045  0.08091  0.69007  1.0000 -0.4101167008
S   S91       1.0  0.87879  0.46921  0.19791  1.0000 -0.4012234835
S   S92       1.0  0.81857  0.69007  0.08091  1.0000 -0.4101167008
S   S93       1.0  0.46921  0.87879  0.95409  1.0000 -0.4012234835
S   S94       1.0  0.69007  0.81857  0.91045  1.0000 -0.4101167008
S   S95       1.0  0.19791  0.95409  0.87879  1.0000 -0.4012234835
S   S96       1.0  0.08091  0.91045  0.81857  1.0000 -0.4101167008
N   N1        1.0  0.30547  0.46651  0.73945  1.0000 -0.4799014471
N   N2        1.0  0.27786  0.46462  0.53602  1.0000 -0.4799014471
N   N3        1.0  0.25847  0.46717  0.71019  1.0000 -0.2110366595
N   N4        1.0  0.03691  0.49967  0.75769  1.0000 -0.2034965214
N   N5        1.0  0.16435  0.47745  0.70665  1.0000 -0.419688748
N   N6        1.0  0.19478  0.48150  0.64474  1.0000 -0.4101167008
N   N7        1.0  0.13091  0.49607  0.66961  1.0000 -0.4101167008
N   N8        1.0  0.19511  0.50857  0.54401  1.0000 -0.2034965214
N   N9        1.0  0.29707  0.50627  0.45579  1.0000 -0.2110366595
N   N10       1.0  0.42236  0.45500  0.39472  1.0000 -0.4012234835
N   N11       1.0  0.46651  0.30547  0.98857  1.0000 -0.4799014471
N   N12       1.0  0.46462  0.27786  0.22150  1.0000 -0.4799014471
N   N13       1.0  0.46717  0.25847  0.06417  1.0000 -0.2110366595
N   N14       1.0  0.49967  0.03691  0.20573  1.0000 -0.2034965214
N   N15       1.0  0.47745  0.16435  0.15155  1.0000 -0.419688748
N   N16       1.0  0.48150  0.19478  0.17898  1.0000 -0.4012234835
N   N17       1.0  0.49607  0.13091  0.20341  1.0000 -0.4101167008
N   N18       1.0  0.50857  0.19511  0.25231  1.0000 -0.2034965214
N   N19       1.0  0.50627  0.29707  0.24087  1.0000 -0.2110366595
N   N20       1.0  0.45500  0.42236  0.22792  1.0000 -0.4012234835
N   N21       1.0  0.73945  0.98857  0.30547  1.0000 -0.4799014471
N   N22       1.0  0.53602  0.22150  0.27786  1.0000 -0.47499156
N   N23       1.0  0.71019  0.06417  0.25847  1.0000 -0.2110366595
N   N24       1.0  0.75769  0.20573  0.03691  1.0000 -0.2034965214
N   N25       1.0  0.70665  0.15155  0.16435  1.0000 -0.419688748
N   N26       1.0  0.64474  0.17898  0.19478  1.0000 -0.4012234835
N   N27       1.0  0.66961  0.20341  0.13091  1.0000 -0.4101167008
N   N28       1.0  0.54401  0.25231  0.19511  1.0000 -0.2034965214
N   N29       1.0  0.45579  0.24087  0.29707  1.0000 -0.2110366595
N   N30       1.0  0.39472  0.22792  0.42236  1.0000 -0.4012234835
N   N31       1.0  0.98857  0.73945  0.46651  1.0000 -0.4799014471
N   N32       1.0  0.22150  0.53602  0.46462  1.0000 -0.4799014471
N   N33       1.0  0.06417  0.71019  0.46717  1.0000 -0.2110366595
N   N34       1.0  0.20573  0.75769  0.49967  1.0000 -0.2034965214
N   N35       1.0  0.15155  0.70665  0.47745  1.0000 -0.419688748
N   N36       1.0  0.17898  0.64474  0.48150  1.0000 -0.4012234835
N   N37       1.0  0.20341  0.66961  0.49607  1.0000 -0.4101167008
N   N38       1.0  0.25231  0.54401  0.50857  1.0000 -0.2034965214
N   N39       1.0  0.24087  0.45579  0.50627  1.0000 -0.2110366595
N   N40       1.0  0.22792  0.39472  0.45500  1.0000 -0.4012234835
N   N41       1.0  0.73945  0.30547  0.46651  1.0000 -0.4799014471
N   N42       1.0  0.53602  0.27786  0.46462  1.0000 -0.4799014471
N   N43       1.0  0.71019  0.25847  0.46717  1.0000 -0.2110366595
N   N44       1.0  0.75769  0.03691  0.49967  1.0000 -0.2034965214
N   N45       1.0  0.70665  0.16435  0.47745  1.0000 -0.419688748
N   N46       1.0  0.64474  0.19478  0.48150  1.0000 -0.4012234835
N   N47       1.0  0.66961  0.13091  0.49607  1.0000 -0.4101167008
N   N48       1.0  0.54401  0.19511  0.50857  1.0000 -0.2034965214
N   N49       1.0  0.45579  0.29707  0.50627  1.0000 -0.2110366595
N   N50       1.0  0.39472  0.42236  0.45500  1.0000 -0.4012234835
N   N51       1.0  0.98857  0.46651  0.30547  1.0000 -0.4799014471
N   N52       1.0  0.22150  0.46462  0.27786  1.0000 -0.4799014471
N   N53       1.0  0.06417  0.46717  0.25847  1.0000 -0.2110366595
N   N54       1.0  0.20573  0.49967  0.03691  1.0000 -0.2034965214
N   N55       1.0  0.15155  0.47745  0.16435  1.0000 -0.419688748
N   N56       1.0  0.17898  0.48150  0.19478  1.0000 -0.4012234835
N   N57       1.0  0.20341  0.49607  0.13091  1.0000 -0.4101167008
N   N58       1.0  0.25231  0.50857  0.19511  1.0000 -0.2034965214
N   N59       1.0  0.24087  0.50627  0.29707  1.0000 -0.2110366595
N   N60       1.0  0.22792  0.45500  0.42236  1.0000 -0.4012234835
N   N61       1.0  0.30547  0.73945  0.98857  1.0000 -0.4799014471
N   N62       1.0  0.27786  0.53602  0.22150  1.0000 -0.47499156
N   N63       1.0  0.25847  0.71019  0.06417  1.0000 -0.2110366595
N   N64       1.0  0.03691  0.75769  0.20573  1.0000 -0.2034965214
N   N65       1.0  0.16435  0.70665  0.15155  1.0000 -0.419688748
N   N66       1.0  0.19478  0.64474  0.17898  1.0000 -0.4012234835
N   N67       1.0  0.13091  0.66961  0.20341  1.0000 -0.4101167008
N   N68       1.0  0.19511  0.54401  0.25231  1.0000 -0.2034965214
N   N69       1.0  0.29707  0.45579  0.24087  1.0000 -0.2110366595
N   N70       1.0  0.42236  0.39472  0.22792  1.0000 -0.4012234835
N   N71       1.0  0.46651  0.98857  0.73945  1.0000 -0.4799014471
N   N72       1.0  0.46462  0.22150  0.53602  1.0000 -0.47499156
N   N73       1.0  0.46717  0.06417  0.71019  1.0000 -0.2110366595
N   N74       1.0  0.49967  0.20573  0.75769  1.0000 -0.2034965214
N   N75       1.0  0.47745  0.15155  0.70665  1.0000 -0.419688748
N   N76       1.0  0.48150  0.17898  0.64474  1.0000 -0.4012234835
N   N77       1.0  0.49607  0.20341  0.66961  1.0000 -0.4101167008
N   N78       1.0  0.50857  0.25231  0.54401  1.0000 -0.2034965214
N   N79       1.0  0.50627  0.24087  0.45579  1.0000 -0.2110366595
N   N80       1.0  0.45500  0.22792  0.39472  1.0000 -0.4012234835
N   N81       1.0  0.46651  0.73945  0.30547  1.0000 -0.4799014471
N   N82       1.0  0.46462  0.53602  0.27786  1.0000 -0.4799014471
N   N83       1.0  0.46717  0.71019  0.25847  1.0000 -0.2110366595
N   N84       1.0  0.49967  0.75769  0.03691  1.0000 -0.2034965214
N   N85       1.0  0.47745  0.70665  0.16435  1.0000 -0.419688748
N   N86       1.0  0.48150  0.64474  0.19478  1.0000 -0.4012234835
N   N87       1.0  0.49607  0.66961  0.13091  1.0000 -0.4101167008
N   N88       1.0  0.50857  0.54401  0.19511  1.0000 -0.2034965214
N   N89       1.0  0.50627  0.45579  0.29707  1.0000 -0.2110366595
N   N90       1.0  0.45500  0.39472  0.42236  1.0000 -0.4012234835
N   N91       1.0  0.30547  0.98857  0.46651  1.0000 -0.4799014471
N   N92       1.0  0.27786  0.22150  0.46462  1.0000 -0.4799014471
N   N93       1.0  0.25847  0.06417  0.46717  1.0000 -0.2110366595
N   N94       1.0  0.03691  0.20573  0.49967  1.0000 -0.2034965214
N   N95       1.0  0.16435  0.15155  0.47745  1.0000 -0.419688748
N   N96       1.0  0.19478  0.17898  0.48150  1.0000 -0.4012234835
N   N97       1.0  0.13091  0.20341  0.49607  1.0000 -0.4101167008
N   N98       1.0  0.19511  0.25231  0.50857  1.0000 -0.2034965214
N   N99       1.0  0.29707  0.24087  0.50627  1.0000 -0.2110366595
N   N100      1.0  0.42236  0.22792  0.45500  1.0000 -0.4012234835
N   N101      1.0  0.98857  0.30547  0.73945  1.0000 -0.4799014471
N   N102      1.0  0.22150  0.27786  0.53602  1.0000 -0.4799014471
N   N103      1.0  0.06417  0.25847  0.71019  1.0000 -0.2110366595
N   N104      1.0  0.20573  0.03691  0.75769  1.0000 -0.2034965214
N   N105      1.0  0.15155  0.16435  0.70665  1.0000 -0.419688748
N   N106      1.0  0.17898  0.19478  0.64474  1.0000 -0.4012234835
N   N107      1.0  0.20341  0.13091  0.66961  1.0000 -0.4101167008
N   N108      1.0  0.25231  0.19511  0.54401  1.0000 -0.2034965214
N   N109      1.0  0.24087  0.29707  0.45579  1.0000 -0.2110366595
N   N110      1.0  0.22792  0.42236  0.39472  1.0000 -0.4012234835
N   N111      1.0  0.73945  0.46651  0.98857  1.0000 -0.4799014471
N   N112      1.0  0.53602  0.46462  0.22150  1.0000 -0.4799014471
N   N113      1.0  0.71019  0.46717  0.06417  1.0000 -0.2110366595
N   N114      1.0  0.75769  0.49967  0.20573  1.0000 -0.2034965214
N   N115      1.0  0.70665  0.47745  0.15155  1.0000 -0.419688748
N   N116      1.0  0.64474  0.48150  0.17898  1.0000 -0.4012234835
N   N117      1.0  0.66961  0.49607  0.20341  1.0000 -0.4101167008
N   N118      1.0  0.54401  0.50857  0.25231  1.0000 -0.2034965214
N   N119      1.0  0.45579  0.50627  0.24087  1.0000 -0.2110366595
N   N120      1.0  0.39472  0.45500  0.22792  1.0000 -0.4012234835
N   N121      1.0  0.19453  0.03349  0.51143  1.0000 -0.4799014471
N   N122      1.0  0.22214  0.03538  0.27850  1.0000 -0.47499156
N   N123      1.0  0.24153  0.03283  0.43583  1.0000 -0.2110366595
N   N124      1.0  0.46309  0.00033  0.29427  1.0000 -0.2034965214
N   N125      1.0  0.33565  0.02255  0.34845  1.0000 -0.419688748
N   N126      1.0  0.30522  0.01850  0.32102  1.0000 -0.4012234835
N   N127      1.0  0.36909  0.00393  0.29659  1.0000 -0.4101167008
N   N128      1.0  0.30489  0.99143  0.24769  1.0000 -0.2034965214
N   N129      1.0  0.20293  0.99373  0.25913  1.0000 -0.2110366595
N   N130      1.0  0.07764  0.04500  0.27208  1.0000 -0.4012234835
N   N131      1.0  0.03349  0.19453  0.76055  1.0000 -0.4799014471
N   N132      1.0  0.03538  0.22214  0.96398  1.0000 -0.4799014471
N   N133      1.0  0.03283  0.24153  0.78981  1.0000 -0.2110366595
N   N134      1.0  0.00033  0.46309  0.74231  1.0000 -0.2034965214
N   N135      1.0  0.02255  0.33565  0.79335  1.0000 -0.419688748
N   N136      1.0  0.01850  0.30522  0.85526  1.0000 -0.4012234835
N   N137      1.0  0.00393  0.36909  0.83039  1.0000 -0.4101167008
N   N138      1.0  0.99143  0.30489  0.95599  1.0000 -0.2034965214
N   N139      1.0  0.99373  0.20293  0.04421  1.0000 -0.2110366595
N   N140      1.0  0.04500  0.07764  0.10528  1.0000 -0.4012234835
N   N141      1.0  0.76055  0.51143  0.03349  1.0000 -0.4799014471
N   N142      1.0  0.96398  0.27850  0.03538  1.0000 -0.4799014471
N   N143      1.0  0.78981  0.43583  0.03283  1.0000 -0.2110366595
N   N144      1.0  0.74231  0.29427  0.00033  1.0000 -0.2034965214
N   N145      1.0  0.79335  0.34845  0.02255  1.0000 -0.419688748
N   N146      1.0  0.85526  0.32102  0.01850  1.0000 -0.4012234835
N   N147      1.0  0.83039  0.29659  0.00393  1.0000 -0.4101167008
N   N148      1.0  0.95599  0.24769  0.99143  1.0000 -0.2034965214
N   N149      1.0  0.04421  0.25913  0.99373  1.0000 -0.2110366595
N   N150      1.0  0.10528  0.27208  0.04500  1.0000 -0.4012234835
N   N151      1.0  0.51143  0.76055  0.19453  1.0000 -0.4799014471
N   N152      1.0  0.27850  0.96398  0.22214  1.0000 -0.4799014471
N   N153      1.0  0.43583  0.78981  0.24153  1.0000 -0.2110366595
N   N154      1.0  0.29427  0.74231  0.46309  1.0000 -0.2110366595
N   N155      1.0  0.34845  0.79335  0.33565  1.0000 -0.419688748
N   N156      1.0  0.32102  0.85526  0.30522  1.0000 -0.4012234835
N   N157      1.0  0.29659  0.83039  0.36909  1.0000 -0.4101167008
N   N158      1.0  0.24769  0.95599  0.30489  1.0000 -0.2034965214
N   N159      1.0  0.25913  0.04421  0.20293  1.0000 -0.2110366595
N   N160      1.0  0.27208  0.10528  0.07764  1.0000 -0.4012234835
N   N161      1.0  0.76055  0.19453  0.51143  1.0000 -0.4799014471
N   N162      1.0  0.96398  0.22214  0.27850  1.0000 -0.4799014471
N   N163      1.0  0.78981  0.24153  0.43583  1.0000 -0.2110366595
N   N164      1.0  0.74231  0.46309  0.29427  1.0000 -0.2034965214
N   N165      1.0  0.79335  0.33565  0.34845  1.0000 -0.419688748
N   N166      1.0  0.85526  0.30522  0.32102  1.0000 -0.4012234835
N   N167      1.0  0.83039  0.36909  0.29659  1.0000 -0.4101167008
N   N168      1.0  0.95599  0.30489  0.24769  1.0000 -0.2034965214
N   N169      1.0  0.04421  0.20293  0.25913  1.0000 -0.2110366595
N   N170      1.0  0.10528  0.07764  0.27208  1.0000 -0.4012234835
N   N171      1.0  0.51143  0.03349  0.76055  1.0000 -0.4799014471
N   N172      1.0  0.27850  0.03538  0.96398  1.0000 -0.4799014471
N   N173      1.0  0.43583  0.03283  0.78981  1.0000 -0.2110366595
N   N174      1.0  0.29427  0.00033  0.74231  1.0000 -0.2034965214
N   N175      1.0  0.34845  0.02255  0.79335  1.0000 -0.419688748
N   N176      1.0  0.32102  0.01850  0.85526  1.0000 -0.4012234835
N   N177      1.0  0.29659  0.00393  0.83039  1.0000 -0.4101167008
N   N178      1.0  0.24769  0.99143  0.95599  1.0000 -0.2034965214
N   N179      1.0  0.25913  0.99373  0.04421  1.0000 -0.2110366595
N   N180      1.0  0.27208  0.04500  0.10528  1.0000 -0.4012234835
N   N181      1.0  0.19453  0.76055  0.03349  1.0000 -0.4799014471
N   N182      1.0  0.22214  0.96398  0.03538  1.0000 -0.4799014471
N   N183      1.0  0.24153  0.78981  0.03283  1.0000 -0.2110366595
N   N184      1.0  0.46309  0.74231  0.00033  1.0000 -0.2034965214
N   N185      1.0  0.33565  0.79335  0.02255  1.0000 -0.419688748
N   N186      1.0  0.30522  0.85526  0.01850  1.0000 -0.4012234835
N   N187      1.0  0.36909  0.83039  0.00393  1.0000 -0.4101167008
N   N188      1.0  0.30489  0.95599  0.99143  1.0000 -0.2034965214
N   N189      1.0  0.20293  0.04421  0.99373  1.0000 -0.2110366595
N   N190      1.0  0.07764  0.10528  0.04500  1.0000 -0.4012234835
N   N191      1.0  0.03349  0.51143  0.19453  1.0000 -0.4799014471
N   N192      1.0  0.03538  0.27850  0.22214  1.0000 -0.4799014471
N   N193      1.0  0.03283  0.43583  0.24153  1.0000 -0.2110366595
N   N194      1.0  0.00033  0.29427  0.46309  1.0000 -0.2110366595
N   N195      1.0  0.02255  0.34845  0.33565  1.0000 -0.419688748
N   N196      1.0  0.01850  0.32102  0.30522  1.0000 -0.4012234835
N   N197      1.0  0.00393  0.29659  0.36909  1.0000 -0.4101167008
N   N198      1.0  0.99143  0.24769  0.30489  1.0000 -0.2034965214
N   N199      1.0  0.99373  0.25913  0.20293  1.0000 -0.2110366595
N   N200      1.0  0.04500  0.27208  0.07764  1.0000 -0.4012234835
N   N201      1.0  0.03349  0.76055  0.51143  1.0000 -0.4799014471
N   N202      1.0  0.03538  0.96398  0.27850  1.0000 -0.4799014471
N   N203      1.0  0.03283  0.78981  0.43583  1.0000 -0.2110366595
N   N204      1.0  0.00033  0.74231  0.29427  1.0000 -0.2034965214
N   N205      1.0  0.02255  0.79335  0.34845  1.0000 -0.419688748
N   N206      1.0  0.01850  0.85526  0.32102  1.0000 -0.4012234835
N   N207      1.0  0.00393  0.83039  0.29659  1.0000 -0.4101167008
N   N208      1.0  0.99143  0.95599  0.24769  1.0000 -0.2034965214
N   N209      1.0  0.99373  0.04421  0.25913  1.0000 -0.2110366595
N   N210      1.0  0.04500  0.10528  0.27208  1.0000 -0.4012234835
N   N211      1.0  0.19453  0.51143  0.76055  1.0000 -0.4799014471
N   N212      1.0  0.22214  0.27850  0.96398  1.0000 -0.4799014471
N   N213      1.0  0.24153  0.43583  0.78981  1.0000 -0.2110366595
N   N214      1.0  0.46309  0.29427  0.74231  1.0000 -0.2110366595
N   N215      1.0  0.33565  0.34845  0.79335  1.0000 -0.419688748
N   N216      1.0  0.30522  0.32102  0.85526  1.0000 -0.4012234835
N   N217      1.0  0.36909  0.29659  0.83039  1.0000 -0.4101167008
N   N218      1.0  0.30489  0.24769  0.95599  1.0000 -0.2034965214
N   N219      1.0  0.20293  0.25913  0.04421  1.0000 -0.2110366595
N   N220      1.0  0.07764  0.27208  0.10528  1.0000 -0.4012234835
N   N221      1.0  0.51143  0.19453  0.03349  1.0000 -0.4799014471
N   N222      1.0  0.27850  0.22214  0.03538  1.0000 -0.47499156
N   N223      1.0  0.43583  0.24153  0.03283  1.0000 -0.2110366595
N   N224      1.0  0.29427  0.46309  0.00033  1.0000 -0.2034965214
N   N225      1.0  0.34845  0.33565  0.02255  1.0000 -0.419688748
N   N226      1.0  0.32102  0.30522  0.01850  1.0000 -0.4012234835
N   N227      1.0  0.29659  0.36909  0.00393  1.0000 -0.4101167008
N   N228      1.0  0.24769  0.30489  0.99143  1.0000 -0.2034965214
N   N229      1.0  0.25913  0.20293  0.99373  1.0000 -0.2110366595
N   N230      1.0  0.27208  0.07764  0.04500  1.0000 -0.4012234835
N   N231      1.0  0.76055  0.03349  0.19453  1.0000 -0.4799014471
N   N232      1.0  0.96398  0.03538  0.22214  1.0000 -0.4799014471
N   N233      1.0  0.78981  0.03283  0.24153  1.0000 -0.2110366595
N   N234      1.0  0.74231  0.00033  0.46309  1.0000 -0.2034965214
N   N235      1.0  0.79335  0.02255  0.33565  1.0000 -0.419688748
N   N236      1.0  0.85526  0.01850  0.30522  1.0000 -0.4101167008
N   N237      1.0  0.83039  0.00393  0.36909  1.0000 -0.4101167008
N   N238      1.0  0.95599  0.99143  0.30489  1.0000 -0.2034965214
N   N239      1.0  0.04421  0.99373  0.20293  1.0000 -0.2110366595
N   N240      1.0  0.10528  0.04500  0.07764  1.0000 -0.4012234835
N   N241      1.0  0.69453  0.53349  0.26055  1.0000 -0.4799014471
N   N242      1.0  0.72214  0.53538  0.46398  1.0000 -0.4799014471
N   N243      1.0  0.74153  0.53283  0.28981  1.0000 -0.2110366595
N   N244      1.0  0.96309  0.50033  0.24231  1.0000 -0.2034965214
N   N245      1.0  0.83565  0.52255  0.29335  1.0000 -0.419688748
N   N246      1.0  0.80522  0.51850  0.35526  1.0000 -0.4012234835
N   N247      1.0  0.86909  0.50393  0.33039  1.0000 -0.4101167008
N   N248      1.0  0.80489  0.49143  0.45599  1.0000 -0.2034965214
N   N249      1.0  0.70293  0.49373  0.54421  1.0000 -0.2110366595
N   N250      1.0  0.57764  0.54500  0.60528  1.0000 -0.4012234835
N   N251      1.0  0.53349  0.69453  0.01143  1.0000 -0.4799014471
N   N252      1.0  0.53538  0.72214  0.77850  1.0000 -0.4799014471
N   N253      1.0  0.53283  0.74153  0.93583  1.0000 -0.2110366595
N   N254      1.0  0.50033  0.96309  0.79427  1.0000 -0.2034965214
N   N255      1.0  0.52255  0.83565  0.84845  1.0000 -0.419688748
N   N256      1.0  0.51850  0.80522  0.82102  1.0000 -0.4012234835
N   N257      1.0  0.50393  0.86909  0.79659  1.0000 -0.4101167008
N   N258      1.0  0.49143  0.80489  0.74769  1.0000 -0.2034965214
N   N259      1.0  0.49373  0.70293  0.75913  1.0000 -0.2110366595
N   N260      1.0  0.54500  0.57764  0.77208  1.0000 -0.4012234835
N   N261      1.0  0.26055  0.01143  0.69453  1.0000 -0.4799014471
N   N262      1.0  0.46398  0.77850  0.72214  1.0000 -0.4799014471
N   N263      1.0  0.28981  0.93583  0.74153  1.0000 -0.2110366595
N   N264      1.0  0.24231  0.79427  0.96309  1.0000 -0.2034965214
N   N265      1.0  0.29335  0.84845  0.83565  1.0000 -0.419688748
N   N266      1.0  0.35526  0.82102  0.80522  1.0000 -0.4012234835
N   N267      1.0  0.33039  0.79659  0.86909  1.0000 -0.4101167008
N   N268      1.0  0.45599  0.74769  0.80489  1.0000 -0.2034965214
N   N269      1.0  0.54421  0.75913  0.70293  1.0000 -0.2110366595
N   N270      1.0  0.60528  0.77208  0.57764  1.0000 -0.4012234835
N   N271      1.0  0.01143  0.26055  0.53349  1.0000 -0.4799014471
N   N272      1.0  0.77850  0.46398  0.53538  1.0000 -0.4799014471
N   N273      1.0  0.93583  0.28981  0.53283  1.0000 -0.2110366595
N   N274      1.0  0.79427  0.24231  0.50033  1.0000 -0.2034965214
N   N275      1.0  0.84845  0.29335  0.52255  1.0000 -0.419688748
N   N276      1.0  0.82102  0.35526  0.51850  1.0000 -0.4012234835
N   N277      1.0  0.79659  0.33039  0.50393  1.0000 -0.4101167008
N   N278      1.0  0.74769  0.45599  0.49143  1.0000 -0.2034965214
N   N279      1.0  0.75913  0.54421  0.49373  1.0000 -0.2110366595
N   N280      1.0  0.77208  0.60528  0.54500  1.0000 -0.4012234835
N   N281      1.0  0.26055  0.69453  0.53349  1.0000 -0.4799014471
N   N282      1.0  0.46398  0.72214  0.53538  1.0000 -0.4799014471
N   N283      1.0  0.28981  0.74153  0.53283  1.0000 -0.2110366595
N   N284      1.0  0.24231  0.96309  0.50033  1.0000 -0.2034965214
N   N285      1.0  0.29335  0.83565  0.52255  1.0000 -0.419688748
N   N286      1.0  0.35526  0.80522  0.51850  1.0000 -0.4012234835
N   N287      1.0  0.33039  0.86909  0.50393  1.0000 -0.4101167008
N   N288      1.0  0.45599  0.80489  0.49143  1.0000 -0.2034965214
N   N289      1.0  0.54421  0.70293  0.49373  1.0000 -0.2110366595
N   N290      1.0  0.60528  0.57764  0.54500  1.0000 -0.4012234835
N   N291      1.0  0.01143  0.53349  0.69453  1.0000 -0.4799014471
N   N292      1.0  0.77850  0.53538  0.72214  1.0000 -0.4799014471
N   N293      1.0  0.93583  0.53283  0.74153  1.0000 -0.2110366595
N   N294      1.0  0.79427  0.50033  0.96309  1.0000 -0.2034965214
N   N295      1.0  0.84845  0.52255  0.83565  1.0000 -0.419688748
N   N296      1.0  0.82102  0.51850  0.80522  1.0000 -0.4012234835
N   N297      1.0  0.79659  0.50393  0.86909  1.0000 -0.4101167008
N   N298      1.0  0.74769  0.49143  0.80489  1.0000 -0.2034965214
N   N299      1.0  0.75913  0.49373  0.70293  1.0000 -0.2110366595
N   N300      1.0  0.77208  0.54500  0.57764  1.0000 -0.4012234835
N   N301      1.0  0.69453  0.26055  0.01143  1.0000 -0.4799014471
N   N302      1.0  0.72214  0.46398  0.77850  1.0000 -0.4799014471
N   N303      1.0  0.74153  0.28981  0.93583  1.0000 -0.2110366595
N   N304      1.0  0.96309  0.24231  0.79427  1.0000 -0.2034965214
N   N305      1.0  0.83565  0.29335  0.84845  1.0000 -0.419688748
N   N306      1.0  0.80522  0.35526  0.82102  1.0000 -0.4012234835
N   N307      1.0  0.86909  0.33039  0.79659  1.0000 -0.4101167008
N   N308      1.0  0.80489  0.45599  0.74769  1.0000 -0.2034965214
N   N309      1.0  0.70293  0.54421  0.75913  1.0000 -0.2110366595
N   N310      1.0  0.57764  0.60528  0.77208  1.0000 -0.4012234835
N   N311      1.0  0.53349  0.01143  0.26055  1.0000 -0.4799014471
N   N312      1.0  0.53538  0.77850  0.46398  1.0000 -0.4799014471
N   N313      1.0  0.53283  0.93583  0.28981  1.0000 -0.2110366595
N   N314      1.0  0.50033  0.79427  0.24231  1.0000 -0.2034965214
N   N315      1.0  0.52255  0.84845  0.29335  1.0000 -0.419688748
N   N316      1.0  0.51850  0.82102  0.35526  1.0000 -0.4101167008
N   N317      1.0  0.50393  0.79659  0.33039  1.0000 -0.4101167008
N   N318      1.0  0.49143  0.74769  0.45599  1.0000 -0.2034965214
N   N319      1.0  0.49373  0.75913  0.54421  1.0000 -0.2110366595
N   N320      1.0  0.54500  0.77208  0.60528  1.0000 -0.4012234835
N   N321      1.0  0.53349  0.26055  0.69453  1.0000 -0.4799014471
N   N322      1.0  0.53538  0.46398  0.72214  1.0000 -0.4799014471
N   N323      1.0  0.53283  0.28981  0.74153  1.0000 -0.2110366595
N   N324      1.0  0.50033  0.24231  0.96309  1.0000 -0.2034965214
N   N325      1.0  0.52255  0.29335  0.83565  1.0000 -0.419688748
N   N326      1.0  0.51850  0.35526  0.80522  1.0000 -0.4012234835
N   N327      1.0  0.50393  0.33039  0.86909  1.0000 -0.4101167008
N   N328      1.0  0.49143  0.45599  0.80489  1.0000 -0.2034965214
N   N329      1.0  0.49373  0.54421  0.70293  1.0000 -0.2110366595
N   N330      1.0  0.54500  0.60528  0.57764  1.0000 -0.4012234835
N   N331      1.0  0.69453  0.01143  0.53349  1.0000 -0.4799014471
N   N332      1.0  0.72214  0.77850  0.53538  1.0000 -0.4799014471
N   N333      1.0  0.74153  0.93583  0.53283  1.0000 -0.2110366595
N   N334      1.0  0.96309  0.79427  0.50033  1.0000 -0.2034965214
N   N335      1.0  0.83565  0.84845  0.52255  1.0000 -0.419688748
N   N336      1.0  0.80522  0.82102  0.51850  1.0000 -0.4012234835
N   N337      1.0  0.86909  0.79659  0.50393  1.0000 -0.4101167008
N   N338      1.0  0.80489  0.74769  0.49143  1.0000 -0.2034965214
N   N339      1.0  0.70293  0.75913  0.49373  1.0000 -0.2110366595
N   N340      1.0  0.57764  0.77208  0.54500  1.0000 -0.4012234835
N   N341      1.0  0.01143  0.69453  0.26055  1.0000 -0.4799014471
N   N342      1.0  0.77850  0.72214  0.46398  1.0000 -0.4799014471
N   N343      1.0  0.93583  0.74153  0.28981  1.0000 -0.2110366595
N   N344      1.0  0.79427  0.96309  0.24231  1.0000 -0.2034965214
N   N345      1.0  0.84845  0.83565  0.29335  1.0000 -0.419688748
N   N346      1.0  0.82102  0.80522  0.35526  1.0000 -0.4012234835
N   N347      1.0  0.79659  0.86909  0.33039  1.0000 -0.4101167008
N   N348      1.0  0.74769  0.80489  0.45599  1.0000 -0.2034965214
N   N349      1.0  0.75913  0.70293  0.54421  1.0000 -0.2110366595
N   N350      1.0  0.77208  0.57764  0.60528  1.0000 -0.4012234835
N   N351      1.0  0.26055  0.53349  0.01143  1.0000 -0.4799014471
N   N352      1.0  0.46398  0.53538  0.77850  1.0000 -0.4799014471
N   N353      1.0  0.28981  0.53283  0.93583  1.0000 -0.2110366595
N   N354      1.0  0.24231  0.50033  0.79427  1.0000 -0.2034965214
N   N355      1.0  0.29335  0.52255  0.84845  1.0000 -0.419688748
N   N356      1.0  0.35526  0.51850  0.82102  1.0000 -0.4012234835
N   N357      1.0  0.33039  0.50393  0.79659  1.0000 -0.4101167008
N   N358      1.0  0.45599  0.49143  0.74769  1.0000 -0.2034965214
N   N359      1.0  0.54421  0.49373  0.75913  1.0000 -0.2110366595
N   N360      1.0  0.60528  0.54500  0.77208  1.0000 -0.4012234835
N   N361      1.0  0.80547  0.96651  0.48857  1.0000 -0.4799014471
N   N362      1.0  0.77786  0.96462  0.72150  1.0000 -0.4799014471
N   N363      1.0  0.75847  0.96717  0.56417  1.0000 -0.2110366595
N   N364      1.0  0.53691  0.99967  0.70573  1.0000 -0.2110366595
N   N365      1.0  0.66435  0.97745  0.65155  1.0000 -0.419688748
N   N366      1.0  0.69478  0.98150  0.67898  1.0000 -0.4012234835
N   N367      1.0  0.63091  0.99607  0.70341  1.0000 -0.4101167008
N   N368      1.0  0.69511  0.00857  0.75231  1.0000 -0.2034965214
N   N369      1.0  0.79707  0.00627  0.74087  1.0000 -0.2110366595
N   N370      1.0  0.92236  0.95500  0.72792  1.0000 -0.4012234835
N   N371      1.0  0.96651  0.80547  0.23945  1.0000 -0.4799014471
N   N372      1.0  0.96462  0.77786  0.03602  1.0000 -0.4799014471
N   N373      1.0  0.96717  0.75847  0.21019  1.0000 -0.2110366595
N   N374      1.0  0.99967  0.53691  0.25769  1.0000 -0.2034965214
N   N375      1.0  0.97745  0.66435  0.20665  1.0000 -0.419688748
N   N376      1.0  0.98150  0.69478  0.14474  1.0000 -0.4012234835
N   N377      1.0  0.99607  0.63091  0.16961  1.0000 -0.4101167008
N   N378      1.0  0.00857  0.69511  0.04401  1.0000 -0.2034965214
N   N379      1.0  0.00627  0.79707  0.95579  1.0000 -0.2110366595
N   N380      1.0  0.95500  0.92236  0.89472  1.0000 -0.4012234835
N   N381      1.0  0.23945  0.48857  0.96651  1.0000 -0.4799014471
N   N382      1.0  0.03602  0.72150  0.96462  1.0000 -0.4799014471
N   N383      1.0  0.21019  0.56417  0.96717  1.0000 -0.2110366595
N   N384      1.0  0.25769  0.70573  0.99967  1.0000 -0.2034965214
N   N385      1.0  0.20665  0.65155  0.97745  1.0000 -0.419688748
N   N386      1.0  0.14474  0.67898  0.98150  1.0000 -0.4012234835
N   N387      1.0  0.16961  0.70341  0.99607  1.0000 -0.4101167008
N   N388      1.0  0.04401  0.75231  0.00857  1.0000 -0.2034965214
N   N389      1.0  0.95579  0.74087  0.00627  1.0000 -0.2110366595
N   N390      1.0  0.89472  0.72792  0.95500  1.0000 -0.4012234835
N   N391      1.0  0.48857  0.23945  0.80547  1.0000 -0.4799014471
N   N392      1.0  0.72150  0.03602  0.77786  1.0000 -0.4799014471
N   N393      1.0  0.56417  0.21019  0.75847  1.0000 -0.2110366595
N   N394      1.0  0.70573  0.25769  0.53691  1.0000 -0.2034965214
N   N395      1.0  0.65155  0.20665  0.66435  1.0000 -0.419688748
N   N396      1.0  0.67898  0.14474  0.69478  1.0000 -0.4012234835
N   N397      1.0  0.70341  0.16961  0.63091  1.0000 -0.4101167008
N   N398      1.0  0.75231  0.04401  0.69511  1.0000 -0.2034965214
N   N399      1.0  0.74087  0.95579  0.79707  1.0000 -0.2110366595
N   N400      1.0  0.72792  0.89472  0.92236  1.0000 -0.4012234835
N   N401      1.0  0.23945  0.80547  0.48857  1.0000 -0.4799014471
N   N402      1.0  0.03602  0.77786  0.72150  1.0000 -0.4799014471
N   N403      1.0  0.21019  0.75847  0.56417  1.0000 -0.2110366595
N   N404      1.0  0.25769  0.53691  0.70573  1.0000 -0.2034965214
N   N405      1.0  0.20665  0.66435  0.65155  1.0000 -0.419688748
N   N406      1.0  0.14474  0.69478  0.67898  1.0000 -0.4012234835
N   N407      1.0  0.16961  0.63091  0.70341  1.0000 -0.4101167008
N   N408      1.0  0.04401  0.69511  0.75231  1.0000 -0.2034965214
N   N409      1.0  0.95579  0.79707  0.74087  1.0000 -0.2110366595
N   N410      1.0  0.89472  0.92236  0.72792  1.0000 -0.4012234835
N   N411      1.0  0.48857  0.96651  0.23945  1.0000 -0.4799014471
N   N412      1.0  0.72150  0.96462  0.03602  1.0000 -0.4799014471
N   N413      1.0  0.56417  0.96717  0.21019  1.0000 -0.2110366595
N   N414      1.0  0.70573  0.99967  0.25769  1.0000 -0.2034965214
N   N415      1.0  0.65155  0.97745  0.20665  1.0000 -0.419688748
N   N416      1.0  0.67898  0.98150  0.14474  1.0000 -0.4012234835
N   N417      1.0  0.70341  0.99607  0.16961  1.0000 -0.4101167008
N   N418      1.0  0.75231  0.00857  0.04401  1.0000 -0.2034965214
N   N419      1.0  0.74087  0.00627  0.95579  1.0000 -0.2110366595
N   N420      1.0  0.72792  0.95500  0.89472  1.0000 -0.4012234835
N   N421      1.0  0.80547  0.23945  0.96651  1.0000 -0.4799014471
N   N422      1.0  0.77786  0.03602  0.96462  1.0000 -0.4799014471
N   N423      1.0  0.75847  0.21019  0.96717  1.0000 -0.2110366595
N   N424      1.0  0.53691  0.25769  0.99967  1.0000 -0.2034965214
N   N425      1.0  0.66435  0.20665  0.97745  1.0000 -0.419688748
N   N426      1.0  0.69478  0.14474  0.98150  1.0000 -0.4012234835
N   N427      1.0  0.63091  0.16961  0.99607  1.0000 -0.4101167008
N   N428      1.0  0.69511  0.04401  0.00857  1.0000 -0.2034965214
N   N429      1.0  0.79707  0.95579  0.00627  1.0000 -0.2110366595
N   N430      1.0  0.92236  0.89472  0.95500  1.0000 -0.4012234835
N   N431      1.0  0.96651  0.48857  0.80547  1.0000 -0.4799014471
N   N432      1.0  0.96462  0.72150  0.77786  1.0000 -0.4799014471
N   N433      1.0  0.96717  0.56417  0.75847  1.0000 -0.2110366595
N   N434      1.0  0.99967  0.70573  0.53691  1.0000 -0.2034965214
N   N435      1.0  0.97745  0.65155  0.66435  1.0000 -0.419688748
N   N436      1.0  0.98150  0.67898  0.69478  1.0000 -0.4012234835
N   N437      1.0  0.99607  0.70341  0.63091  1.0000 -0.4101167008
N   N438      1.0  0.00857  0.75231  0.69511  1.0000 -0.2034965214
N   N439      1.0  0.00627  0.74087  0.79707  1.0000 -0.2110366595
N   N440      1.0  0.95500  0.72792  0.92236  1.0000 -0.4012234835
N   N441      1.0  0.96651  0.23945  0.48857  1.0000 -0.4799014471
N   N442      1.0  0.96462  0.03602  0.72150  1.0000 -0.4799014471
N   N443      1.0  0.96717  0.21019  0.56417  1.0000 -0.2110366595
N   N444      1.0  0.99967  0.25769  0.70573  1.0000 -0.2034965214
N   N445      1.0  0.97745  0.20665  0.65155  1.0000 -0.419688748
N   N446      1.0  0.98150  0.14474  0.67898  1.0000 -0.4012234835
N   N447      1.0  0.99607  0.16961  0.70341  1.0000 -0.4101167008
N   N448      1.0  0.00857  0.04401  0.75231  1.0000 -0.2034965214
N   N449      1.0  0.00627  0.95579  0.74087  1.0000 -0.2110366595
N   N450      1.0  0.95500  0.89472  0.72792  1.0000 -0.4012234835
N   N451      1.0  0.80547  0.48857  0.23945  1.0000 -0.4799014471
N   N452      1.0  0.77786  0.72150  0.03602  1.0000 -0.4799014471
N   N453      1.0  0.75847  0.56417  0.21019  1.0000 -0.2110366595
N   N454      1.0  0.53691  0.70573  0.25769  1.0000 -0.2034965214
N   N455      1.0  0.66435  0.65155  0.20665  1.0000 -0.419688748
N   N456      1.0  0.69478  0.67898  0.14474  1.0000 -0.4012234835
N   N457      1.0  0.63091  0.70341  0.16961  1.0000 -0.4101167008
N   N458      1.0  0.69511  0.75231  0.04401  1.0000 -0.2034965214
N   N459      1.0  0.79707  0.74087  0.95579  1.0000 -0.2110366595
N   N460      1.0  0.92236  0.72792  0.89472  1.0000 -0.4012234835
N   N461      1.0  0.48857  0.80547  0.96651  1.0000 -0.4799014471
N   N462      1.0  0.72150  0.77786  0.96462  1.0000 -0.4799014471
N   N463      1.0  0.56417  0.75847  0.96717  1.0000 -0.2110366595
N   N464      1.0  0.70573  0.53691  0.99967  1.0000 -0.2034965214
N   N465      1.0  0.65155  0.66435  0.97745  1.0000 -0.419688748
N   N466      1.0  0.67898  0.69478  0.98150  1.0000 -0.4012234835
N   N467      1.0  0.70341  0.63091  0.99607  1.0000 -0.4101167008
N   N468      1.0  0.75231  0.69511  0.00857  1.0000 -0.2034965214
N   N469      1.0  0.74087  0.79707  0.00627  1.0000 -0.2110366595
N   N470      1.0  0.72792  0.92236  0.95500  1.0000 -0.4012234835
N   N471      1.0  0.23945  0.96651  0.80547  1.0000 -0.4799014471
N   N472      1.0  0.03602  0.96462  0.77786  1.0000 -0.4799014471
N   N473      1.0  0.21019  0.96717  0.75847  1.0000 -0.2110366595
N   N474      1.0  0.25769  0.99967  0.53691  1.0000 -0.2110366595
N   N475      1.0  0.20665  0.97745  0.66435  1.0000 -0.419688748
N   N476      1.0  0.14474  0.98150  0.69478  1.0000 -0.4012234835
N   N477      1.0  0.16961  0.99607  0.63091  1.0000 -0.4101167008
N   N478      1.0  0.04401  0.00857  0.69511  1.0000 -0.2034965214
N   N479      1.0  0.95579  0.00627  0.79707  1.0000 -0.2110366595
N   N480      1.0  0.89472  0.95500  0.92236  1.0000 -0.4012234835
