# DDEC6 charges by PACMAN v1.1 (https://github.com/mtap-research/PACMAN-charge/)
data_0000[Gd][pcu]3[ASR]2
_chemical_formula_sum              "Gd4 H24 C48 O28"
_cell_length_a       8.783
_cell_length_b       18.952
_cell_length_c       9.285
_cell_angle_alpha    90
_cell_angle_beta     109.398
_cell_angle_gamma    90

_symmetry_space_group_name_H-M    "P 1"
_symmetry_Int_Tables_number       1

loop_
  _symmetry_equiv_pos_as_xyz
  'x, y, z'

loop_
  _atom_site_type_symbol
  _atom_site_label
  _atom_site_symmetry_multiplicity
  _atom_site_fract_x
  _atom_site_fract_y
  _atom_site_fract_z
  _atom_site_occupancy
  _atom_site_charge
Gd  Gd1       1.0  0.21026  0.55312  0.48489  1.0000 2.0296691361
Gd  Gd2       1.0  0.78974  0.05312  0.01511  1.0000 2.0296691361
Gd  Gd3       1.0  0.78974  0.44688  0.51511  1.0000 2.0296691361
Gd  Gd4       1.0  0.21026  0.94688  0.98489  1.0000 2.0296691361
H   H1        1.0  0.36140  0.43760  0.73910  1.0000 0.427087486
H   H2        1.0  0.63860  0.93760  0.76090  1.0000 0.427087486
H   H3        1.0  0.63860  0.56240  0.26090  1.0000 0.427087486
H   H4        1.0  0.36140  0.06240  0.23910  1.0000 0.427087486
H   H5        1.0  0.24620  0.41990  0.56010  1.0000 0.39511624
H   H6        1.0  0.75380  0.91990  0.93990  1.0000 0.39511624
H   H7        1.0  0.75380  0.58010  0.43990  1.0000 0.39511624
H   H8        1.0  0.24620  0.08010  0.06010  1.0000 0.39511624
H   H9        1.0  0.20140  0.44110  0.94090  1.0000 0.1316326821
H   H10       1.0  0.79860  0.94110  0.55910  1.0000 0.1316326821
H   H11       1.0  0.79860  0.55890  0.05910  1.0000 0.1316326821
H   H12       1.0  0.20140  0.05890  0.44090  1.0000 0.1316326821
H   H13       1.0  0.06150  0.68710  0.98370  1.0000 0.1316326821
H   H14       1.0  0.93850  0.18710  0.51630  1.0000 0.1316326821
H   H15       1.0  0.93850  0.31290  0.01630  1.0000 0.1316326821
H   H16       1.0  0.06150  0.81290  0.48370  1.0000 0.1316326821
H   H17       1.0  0.74510  0.80820  0.66900  1.0000 0.1145596432
H   H18       1.0  0.25490  0.30820  0.83100  1.0000 0.1145596432
H   H19       1.0  0.25490  0.19180  0.33100  1.0000 0.1145596432
H   H20       1.0  0.74510  0.69180  0.16900  1.0000 0.1145596432
H   H21       1.0  0.58970  0.70950  0.57410  1.0000 0.1316326821
H   H22       1.0  0.41030  0.20950  0.92590  1.0000 0.1316326821
H   H23       1.0  0.41030  0.29050  0.42590  1.0000 0.1316326821
H   H24       1.0  0.58970  0.79050  0.07410  1.0000 0.1316326821
C   C1        1.0  0.10370  0.54860  0.75510  1.0000 0.6047412457
C   C2        1.0  0.89630  0.04860  0.74490  1.0000 0.6047412457
C   C3        1.0  0.89630  0.45140  0.24490  1.0000 0.6047412457
C   C4        1.0  0.10370  0.95140  0.25510  1.0000 0.6047412457
C   C5        1.0  0.05610  0.52590  0.88700  1.0000 -0.0693295391
C   C6        1.0  0.94390  0.02590  0.61300  1.0000 -0.0693295391
C   C7        1.0  0.94390  0.47410  0.11300  1.0000 -0.0693295391
C   C8        1.0  0.05610  0.97410  0.38700  1.0000 -0.0693295391
C   C9        1.0  0.12030  0.46460  0.96530  1.0000 -0.1402228025
C   C10       1.0  0.87970  0.96460  0.53470  1.0000 -0.1402228025
C   C11       1.0  0.87970  0.53540  0.03470  1.0000 -0.1402228025
C   C12       1.0  0.12030  0.03540  0.46530  1.0000 -0.1402228025
C   C13       1.0  0.93270  0.56260  0.92150  1.0000 0.0623072798
C   C14       1.0  0.06730  0.06260  0.57850  1.0000 0.0623072798
C   C15       1.0  0.06730  0.43740  0.07850  1.0000 0.0623072798
C   C16       1.0  0.93270  0.93740  0.42150  1.0000 0.0623072798
C   C17       1.0  0.87220  0.63160  0.84490  1.0000 0.0465382927
C   C18       1.0  0.12780  0.13160  0.65510  1.0000 0.0465382927
C   C19       1.0  0.12780  0.36840  0.15510  1.0000 0.0465382927
C   C20       1.0  0.87220  0.86840  0.34490  1.0000 0.0465382927
C   C21       1.0  0.96580  0.69150  0.90220  1.0000 -0.1402228025
C   C22       1.0  0.03420  0.19150  0.59780  1.0000 -0.1402228025
C   C23       1.0  0.03420  0.30850  0.09780  1.0000 -0.1402228025
C   C24       1.0  0.96580  0.80850  0.40220  1.0000 -0.1402228025
C   C25       1.0  0.91730  0.75760  0.83860  1.0000 -0.0047414645
C   C26       1.0  0.08270  0.25760  0.66140  1.0000 -0.0047414645
C   C27       1.0  0.08270  0.24240  0.16140  1.0000 -0.0047414645
C   C28       1.0  0.91730  0.74240  0.33860  1.0000 -0.0047414645
C   C29       1.0  0.77650  0.76430  0.71410  1.0000 -0.1177856491
C   C30       1.0  0.22350  0.26430  0.78590  1.0000 -0.1177856491
C   C31       1.0  0.22350  0.23570  0.28590  1.0000 -0.1177856491
C   C32       1.0  0.77650  0.73570  0.21410  1.0000 -0.1177856491
C   C33       1.0  0.68350  0.70510  0.65790  1.0000 -0.1014376988
C   C34       1.0  0.31650  0.20510  0.84210  1.0000 -0.1014376988
C   C35       1.0  0.31650  0.29490  0.34210  1.0000 -0.1014376988
C   C36       1.0  0.68350  0.79490  0.15790  1.0000 -0.1014376988
C   C37       1.0  0.72780  0.63900  0.72480  1.0000 -0.0818976162
C   C38       1.0  0.27220  0.13900  0.77520  1.0000 -0.0818976162
C   C39       1.0  0.27220  0.36100  0.27520  1.0000 -0.0818976162
C   C40       1.0  0.72780  0.86100  0.22480  1.0000 -0.0818976162
C   C41       1.0  0.61640  0.57740  0.66000  1.0000 0.6595670881
C   C42       1.0  0.38360  0.07740  0.84000  1.0000 0.6595670881
C   C43       1.0  0.38360  0.42260  0.34000  1.0000 0.6595670881
C   C44       1.0  0.61640  0.92260  0.16000  1.0000 0.6595670881
C   C45       1.0  0.01780  0.82180  0.90060  1.0000 0.5599529447
C   C46       1.0  0.98220  0.32180  0.59940  1.0000 0.5599529447
C   C47       1.0  0.98220  0.17820  0.09940  1.0000 0.5599529447
C   C48       1.0  0.01780  0.67820  0.40060  1.0000 0.5599529447
O   O1        1.0  0.30320  0.44540  0.63280  1.0000 -0.7966242282
O   O2        1.0  0.69680  0.94540  0.86720  1.0000 -0.7966242282
O   O3        1.0  0.69680  0.55460  0.36720  1.0000 -0.7966242282
O   O4        1.0  0.30320  0.05460  0.13280  1.0000 -0.7966242282
O   O5        1.0  0.00520  0.53540  0.62160  1.0000 -0.7206271586
O   O6        1.0  0.99480  0.03540  0.87840  1.0000 -0.7206271586
O   O7        1.0  0.99480  0.46460  0.37840  1.0000 -0.7206271586
O   O8        1.0  0.00520  0.96460  0.12160  1.0000 -0.7206271586
O   O9        1.0  0.23910  0.57500  0.77120  1.0000 -0.5559400318
O   O10       1.0  0.76090  0.07500  0.72880  1.0000 -0.5559400318
O   O11       1.0  0.76090  0.42500  0.22880  1.0000 -0.5559400318
O   O12       1.0  0.23910  0.92500  0.27120  1.0000 -0.5559400318
O   O13       1.0  0.15180  0.81740  0.00270  1.0000 -0.5816287694
O   O14       1.0  0.84820  0.31740  0.49730  1.0000 -0.5816287694
O   O15       1.0  0.84820  0.18260  0.99730  1.0000 -0.5816287694
O   O16       1.0  0.15180  0.68260  0.50270  1.0000 -0.5816287694
O   O17       1.0  0.96310  0.88180  0.84490  1.0000 -0.6586218027
O   O18       1.0  0.03690  0.38180  0.65510  1.0000 -0.6586218027
O   O19       1.0  0.03690  0.11820  0.15510  1.0000 -0.6586218027
O   O20       1.0  0.96310  0.61820  0.34490  1.0000 -0.6586218027
O   O21       1.0  0.67450  0.51670  0.66000  1.0000 -0.6727315483
O   O22       1.0  0.32550  0.01670  0.84000  1.0000 -0.6727315483
O   O23       1.0  0.32550  0.48330  0.34000  1.0000 -0.6727315483
O   O24       1.0  0.67450  0.98330  0.16000  1.0000 -0.6727315483
O   O25       1.0  0.46800  0.59200  0.61170  1.0000 -0.6526262907
O   O26       1.0  0.53200  0.09200  0.88830  1.0000 -0.6526262907
O   O27       1.0  0.53200  0.40800  0.38830  1.0000 -0.6526262907
O   O28       1.0  0.46800  0.90800  0.11170  1.0000 -0.6526262907
