# DDEC6 charges by PACMAN v1.1 (https://github.com/mtap-research/PACMAN-charge/)
data_0000[Cu][dia]3[ASR]2
_chemical_formula_sum              "Cu4 H56 C80 N16 O16"
_cell_length_a       12.809
_cell_length_b       10.2279
_cell_length_c       21.515
_cell_angle_alpha    90
_cell_angle_beta     125.751
_cell_angle_gamma    90

_symmetry_space_group_name_H-M    "P 1"
_symmetry_Int_Tables_number       1

loop_
  _symmetry_equiv_pos_as_xyz
  'x, y, z'

loop_
  _atom_site_type_symbol
  _atom_site_label
  _atom_site_symmetry_multiplicity
  _atom_site_fract_x
  _atom_site_fract_y
  _atom_site_fract_z
  _atom_site_occupancy
  _atom_site_charge
Cu  Cu1       1.0  0.41672  0.49371  0.66364  1.0000 0.7424508903
Cu  Cu2       1.0  0.41672  0.00629  0.16364  1.0000 0.7424508903
Cu  Cu3       1.0  0.58328  0.99371  0.83636  1.0000 0.7424508903
Cu  Cu4       1.0  0.58328  0.50629  0.33636  1.0000 0.7424508903
H   H1        1.0  0.65324  0.11390  0.32467  1.0000 0.1293585216
H   H2        1.0  0.21840  0.08482  0.52512  1.0000 0.1105075378
H   H3        1.0  0.47060  0.76550  0.89269  1.0000 0.1293585216
H   H4        1.0  0.46187  0.64966  0.80385  1.0000 0.1235527324
H   H5        1.0  0.99245  0.38747  0.49175  1.0000 0.1293585216
H   H6        1.0  0.81761  0.27940  0.38979  1.0000 0.1412592058
H   H7        1.0  0.47434  0.88802  0.98285  1.0000 0.1293585216
H   H8        1.0  0.66568  0.91177  0.17467  1.0000 0.1235527324
H   H9        1.0  0.04211  0.97894  0.42093  1.0000 0.1293585216
H   H10       1.0  0.30083  0.47421  0.92437  1.0000 0.1235527324
H   H11       1.0  0.31169  0.30149  0.73206  1.0000 0.1235527324
H   H12       1.0  0.88679  0.96739  0.27782  1.0000 0.1293585216
H   H13       1.0  0.29293  0.35729  0.83462  1.0000 0.1293585216
H   H14       1.0  0.31191  0.59460  0.01825  1.0000 0.1105075378
H   H15       1.0  0.65324  0.38610  0.82467  1.0000 0.1293585216
H   H16       1.0  0.21840  0.41518  0.02512  1.0000 0.1105075378
H   H17       1.0  0.47060  0.73450  0.39269  1.0000 0.1293585216
H   H18       1.0  0.46187  0.85034  0.30385  1.0000 0.1235527324
H   H19       1.0  0.99245  0.11253  0.99175  1.0000 0.1293585216
H   H20       1.0  0.81761  0.22060  0.88979  1.0000 0.1412592058
H   H21       1.0  0.47434  0.61198  0.48285  1.0000 0.1293585216
H   H22       1.0  0.66568  0.58823  0.67467  1.0000 0.1235527324
H   H23       1.0  0.04211  0.52106  0.92093  1.0000 0.1293585216
H   H24       1.0  0.30083  0.02579  0.42437  1.0000 0.1235527324
H   H25       1.0  0.31169  0.19851  0.23206  1.0000 0.1235527324
H   H26       1.0  0.88679  0.53261  0.77782  1.0000 0.1293585216
H   H27       1.0  0.29293  0.14271  0.33462  1.0000 0.1293585216
H   H28       1.0  0.31191  0.90540  0.51825  1.0000 0.1105075378
H   H29       1.0  0.34676  0.61390  0.17533  1.0000 0.1293585216
H   H30       1.0  0.78160  0.58482  0.97488  1.0000 0.1105075378
H   H31       1.0  0.52940  0.26550  0.60731  1.0000 0.1293585216
H   H32       1.0  0.53813  0.14966  0.69615  1.0000 0.1235527324
H   H33       1.0  0.00755  0.88747  0.00825  1.0000 0.1293585216
H   H34       1.0  0.18239  0.77940  0.11021  1.0000 0.1412592058
H   H35       1.0  0.52566  0.38802  0.51715  1.0000 0.1293585216
H   H36       1.0  0.33432  0.41177  0.32533  1.0000 0.1235527324
H   H37       1.0  0.95789  0.47894  0.07907  1.0000 0.1293585216
H   H38       1.0  0.69917  0.97421  0.57563  1.0000 0.1235527324
H   H39       1.0  0.68831  0.80149  0.76794  1.0000 0.1235527324
H   H40       1.0  0.11321  0.46739  0.22218  1.0000 0.1293585216
H   H41       1.0  0.70707  0.85729  0.66538  1.0000 0.1293585216
H   H42       1.0  0.68809  0.09460  0.48175  1.0000 0.1105075378
H   H43       1.0  0.34676  0.88610  0.67533  1.0000 0.1293585216
H   H44       1.0  0.78160  0.91518  0.47488  1.0000 0.1105075378
H   H45       1.0  0.52940  0.23450  0.10731  1.0000 0.1293585216
H   H46       1.0  0.53813  0.35034  0.19615  1.0000 0.1235527324
H   H47       1.0  0.00755  0.61253  0.50825  1.0000 0.1293585216
H   H48       1.0  0.18239  0.72060  0.61021  1.0000 0.1412592058
H   H49       1.0  0.52566  0.11198  0.01715  1.0000 0.1293585216
H   H50       1.0  0.33432  0.08823  0.82533  1.0000 0.1235527324
H   H51       1.0  0.95789  0.02106  0.57907  1.0000 0.1293585216
H   H52       1.0  0.69917  0.52579  0.07563  1.0000 0.1235527324
H   H53       1.0  0.68831  0.69851  0.26794  1.0000 0.1235527324
H   H54       1.0  0.11321  0.03261  0.72218  1.0000 0.1293585216
H   H55       1.0  0.70707  0.64271  0.16538  1.0000 0.1293585216
H   H56       1.0  0.68809  0.40540  0.98175  1.0000 0.1105075378
C   C1        1.0  0.39360  0.75420  0.01110  1.0000 -0.0142015895
C   C2        1.0  0.12480  0.24820  0.51880  1.0000 -0.0142015895
C   C3        1.0  0.24320  0.32100  0.58070  1.0000 0.5369365711
C   C4        1.0  0.39750  0.83150  0.07230  1.0000 0.5369365711
C   C5        1.0  0.38440  0.60860  0.89920  1.0000 0.1586582821
C   C6        1.0  0.91450  0.12110  0.39540  1.0000 0.1586582821
C   C7        1.0  0.68310  0.06980  0.30010  1.0000 0.1105075378
C   C8        1.0  0.13820  0.12510  0.49760  1.0000 -0.1010870075
C   C9        1.0  0.43690  0.73130  0.91750  1.0000 -0.1634840842
C   C10       1.0  0.42130  0.57060  0.79830  1.0000 0.1105075378
C   C11       1.0  0.00320  0.30530  0.47770  1.0000 -0.0798093153
C   C12       1.0  0.89870  0.24110  0.41660  1.0000 -0.1634840842
C   C13       1.0  0.44020  0.80400  0.97200  1.0000 -0.0798093153
C   C14       1.0  0.69090  0.95930  0.21820  1.0000 -0.0207953315
C   C15       1.0  0.03270  0.06140  0.43540  1.0000 -0.1908886756
C   C16       1.0  0.33690  0.55740  0.93650  1.0000 -0.1827100243
C   C17       1.0  0.33900  0.37940  0.75950  1.0000 -0.0207953315
C   C18       1.0  0.81350  0.98940  0.27480  1.0000 -0.1114301241
C   C19       1.0  0.32830  0.40950  0.81600  1.0000 -0.1114301241
C   C20       1.0  0.34310  0.63050  0.99240  1.0000 -0.1010870075
C   C21       1.0  0.39360  0.74580  0.51110  1.0000 -0.0142015895
C   C22       1.0  0.12480  0.25180  0.01880  1.0000 -0.0142015895
C   C23       1.0  0.24320  0.17900  0.08070  1.0000 0.5369365711
C   C24       1.0  0.39750  0.66850  0.57230  1.0000 0.5369365711
C   C25       1.0  0.38440  0.89140  0.39920  1.0000 0.1586582821
C   C26       1.0  0.91450  0.37890  0.89540  1.0000 0.1586582821
C   C27       1.0  0.68310  0.43020  0.80010  1.0000 0.1105075378
C   C28       1.0  0.13820  0.37490  0.99760  1.0000 -0.1010870075
C   C29       1.0  0.43690  0.76870  0.41750  1.0000 -0.1634840842
C   C30       1.0  0.42130  0.92940  0.29830  1.0000 0.1105075378
C   C31       1.0  0.00320  0.19470  0.97770  1.0000 -0.0798093153
C   C32       1.0  0.89870  0.25890  0.91660  1.0000 -0.1634840842
C   C33       1.0  0.44020  0.69600  0.47200  1.0000 -0.0798093153
C   C34       1.0  0.69090  0.54070  0.71820  1.0000 -0.0207953315
C   C35       1.0  0.03270  0.43860  0.93540  1.0000 -0.1908886756
C   C36       1.0  0.33690  0.94260  0.43650  1.0000 -0.1827100243
C   C37       1.0  0.33900  0.12060  0.25950  1.0000 -0.0207953315
C   C38       1.0  0.81350  0.51060  0.77480  1.0000 -0.1114301241
C   C39       1.0  0.32830  0.09050  0.31600  1.0000 -0.1114301241
C   C40       1.0  0.34310  0.86950  0.49240  1.0000 -0.1010870075
C   C41       1.0  0.60640  0.25420  0.48890  1.0000 -0.0142015895
C   C42       1.0  0.87520  0.74820  0.98120  1.0000 -0.0142015895
C   C43       1.0  0.75680  0.82100  0.91930  1.0000 0.5369365711
C   C44       1.0  0.60250  0.33150  0.42770  1.0000 0.5369365711
C   C45       1.0  0.61560  0.10860  0.60080  1.0000 0.1586582821
C   C46       1.0  0.08550  0.62110  0.10460  1.0000 0.1586582821
C   C47       1.0  0.31690  0.56980  0.19990  1.0000 0.1105075378
C   C48       1.0  0.86180  0.62510  0.00240  1.0000 -0.1010870075
C   C49       1.0  0.56310  0.23130  0.58250  1.0000 -0.1634840842
C   C50       1.0  0.57870  0.07060  0.70170  1.0000 0.1105075378
C   C51       1.0  0.99680  0.80530  0.02230  1.0000 -0.0798093153
C   C52       1.0  0.10130  0.74110  0.08340  1.0000 -0.1634840842
C   C53       1.0  0.55980  0.30400  0.52800  1.0000 -0.0798093153
C   C54       1.0  0.30910  0.45930  0.28180  1.0000 -0.0207953315
C   C55       1.0  0.96730  0.56140  0.06460  1.0000 -0.1908886756
C   C56       1.0  0.66310  0.05740  0.56350  1.0000 -0.1827100243
C   C57       1.0  0.66100  0.87940  0.74050  1.0000 -0.0142015895
C   C58       1.0  0.18650  0.48940  0.22520  1.0000 -0.1114301241
C   C59       1.0  0.67170  0.90950  0.68400  1.0000 -0.1114301241
C   C60       1.0  0.65690  0.13050  0.50760  1.0000 -0.1010870075
C   C61       1.0  0.60640  0.24580  0.98890  1.0000 -0.0142015895
C   C62       1.0  0.87520  0.75180  0.48120  1.0000 -0.0142015895
C   C63       1.0  0.75680  0.67900  0.41930  1.0000 0.5369365711
C   C64       1.0  0.60250  0.16850  0.92770  1.0000 0.5369365711
C   C65       1.0  0.61560  0.39140  0.10080  1.0000 0.1586582821
C   C66       1.0  0.08550  0.87890  0.60460  1.0000 0.1586582821
C   C67       1.0  0.31690  0.93020  0.69990  1.0000 0.1105075378
C   C68       1.0  0.86180  0.87490  0.50240  1.0000 -0.1010870075
C   C69       1.0  0.56310  0.26870  0.08250  1.0000 -0.1634840842
C   C70       1.0  0.57870  0.42940  0.20170  1.0000 0.1105075378
C   C71       1.0  0.99680  0.69470  0.52230  1.0000 -0.0798093153
C   C72       1.0  0.10130  0.75890  0.58340  1.0000 -0.1634840842
C   C73       1.0  0.55980  0.19600  0.02800  1.0000 -0.0798093153
C   C74       1.0  0.30910  0.04070  0.78180  1.0000 -0.0207953315
C   C75       1.0  0.96730  0.93860  0.56460  1.0000 -0.1908886756
C   C76       1.0  0.66310  0.44260  0.06350  1.0000 -0.1827100243
C   C77       1.0  0.66100  0.62060  0.24050  1.0000 -0.0207953315
C   C78       1.0  0.18650  0.01060  0.72520  1.0000 -0.1114301241
C   C79       1.0  0.67170  0.59050  0.18400  1.0000 -0.1114301241
C   C80       1.0  0.65690  0.36950  0.00760  1.0000 -0.1010870075
N   N1        1.0  0.60810  0.00810  0.23310  1.0000 -0.3007075813
N   N2        1.0  0.37980  0.53310  0.84140  1.0000 0.0047132878
N   N3        1.0  0.39640  0.48080  0.74820  1.0000 -0.2876331832
N   N4        1.0  0.80760  0.05950  0.32740  1.0000 0.0118277904
N   N5        1.0  0.60810  0.49190  0.73310  1.0000 -0.3007075813
N   N6        1.0  0.37980  0.96690  0.34140  1.0000 0.0047132878
N   N7        1.0  0.39640  0.01920  0.24820  1.0000 -0.2876331832
N   N8        1.0  0.80760  0.44050  0.82740  1.0000 0.0118277904
N   N9        1.0  0.39190  0.50810  0.26690  1.0000 -0.3007075813
N   N10       1.0  0.62020  0.03310  0.65860  1.0000 0.0047132878
N   N11       1.0  0.60360  0.98080  0.75180  1.0000 -0.2876331832
N   N12       1.0  0.19240  0.55950  0.17260  1.0000 0.0118277904
N   N13       1.0  0.39190  0.99190  0.76690  1.0000 -0.3007075813
N   N14       1.0  0.62020  0.46690  0.15860  1.0000 0.0047132878
N   N15       1.0  0.60360  0.51920  0.25180  1.0000 -0.2876331832
N   N16       1.0  0.19240  0.94050  0.67260  1.0000 0.0118277904
O   O1        1.0  0.42270  0.95430  0.07680  1.0000 -0.5196982648
O   O2        1.0  0.23160  0.44350  0.58820  1.0000 -0.5131302502
O   O3        1.0  0.37740  0.77570  0.11580  1.0000 -0.5792285826
O   O4        1.0  0.34760  0.26270  0.62040  1.0000 -0.5792285826
O   O5        1.0  0.42270  0.54570  0.57680  1.0000 -0.5196982648
O   O6        1.0  0.23160  0.05650  0.08820  1.0000 -0.5131302502
O   O7        1.0  0.37740  0.72430  0.61580  1.0000 -0.5792285826
O   O8        1.0  0.34760  0.23730  0.12040  1.0000 -0.5792285826
O   O9        1.0  0.57730  0.45430  0.42320  1.0000 -0.5196982648
O   O10       1.0  0.76840  0.94350  0.91180  1.0000 -0.5131302502
O   O11       1.0  0.62260  0.27570  0.38420  1.0000 -0.5792285826
O   O12       1.0  0.65240  0.76270  0.87960  1.0000 -0.5792285826
O   O13       1.0  0.57730  0.04570  0.92320  1.0000 -0.5196982648
O   O14       1.0  0.76840  0.55650  0.41180  1.0000 -0.5131302502
O   O15       1.0  0.62260  0.22430  0.88420  1.0000 -0.5792285826
O   O16       1.0  0.65240  0.73730  0.37960  1.0000 -0.5792285826
