# DDEC6 charges by PACMAN v1.1 (https://github.com/mtap-research/PACMAN-charge/)
data_1998[Ni][pcu]3[ASR]1
_chemical_formula_sum              "Ni2 H72 C72 S12 N12"
_cell_length_a       15.1045
_cell_length_b       15.1045
_cell_length_c       15.1045
_cell_angle_alpha    63.5784
_cell_angle_beta     63.5784
_cell_angle_gamma    63.5784

_symmetry_space_group_name_H-M    "P 1"
_symmetry_Int_Tables_number       1

loop_
  _symmetry_equiv_pos_as_xyz
  'x, y, z'

loop_
  _atom_site_type_symbol
  _atom_site_label
  _atom_site_symmetry_multiplicity
  _atom_site_fract_x
  _atom_site_fract_y
  _atom_site_fract_z
  _atom_site_occupancy
  _atom_site_charge
Ni  Ni1       1.0  0.25000  0.25000  0.25000  1.0000 0.3133011907
Ni  Ni2       1.0  0.75000  0.75000  0.75000  1.0000 0.3133011907
H   H1        1.0  0.48543  0.81790  0.85150  1.0000 0.1282916931
H   H2        1.0  0.81790  0.85150  0.48543  1.0000 0.1282916931
H   H3        1.0  0.01457  0.64850  0.68210  1.0000 0.1282916931
H   H4        1.0  0.85150  0.48543  0.81790  1.0000 0.1282916931
H   H5        1.0  0.64850  0.68210  0.01457  1.0000 0.1282916931
H   H6        1.0  0.68210  0.01457  0.64850  1.0000 0.1282916931
H   H7        1.0  0.51457  0.18210  0.14850  1.0000 0.1282916931
H   H8        1.0  0.18210  0.14850  0.51457  1.0000 0.1282916931
H   H9        1.0  0.98543  0.35150  0.31790  1.0000 0.1282916931
H   H10       1.0  0.14850  0.51457  0.18210  1.0000 0.1282916931
H   H11       1.0  0.35150  0.31790  0.98543  1.0000 0.1282916931
H   H12       1.0  0.31790  0.98543  0.35150  1.0000 0.1282916931
H   H13       1.0  0.31783  0.90920  0.91790  1.0000 0.1189756922
H   H14       1.0  0.90920  0.91790  0.31783  1.0000 0.1189756922
H   H15       1.0  0.18217  0.58210  0.59080  1.0000 0.1189756922
H   H16       1.0  0.91790  0.31783  0.90920  1.0000 0.1189756922
H   H17       1.0  0.58210  0.59080  0.18217  1.0000 0.1189756922
H   H18       1.0  0.59080  0.18217  0.58210  1.0000 0.1189756922
H   H19       1.0  0.68217  0.09080  0.08210  1.0000 0.1189756922
H   H20       1.0  0.09080  0.08210  0.68217  1.0000 0.1189756922
H   H21       1.0  0.81783  0.41790  0.40920  1.0000 0.1189756922
H   H22       1.0  0.08210  0.68217  0.09080  1.0000 0.1189756922
H   H23       1.0  0.41790  0.40920  0.81783  1.0000 0.1189756922
H   H24       1.0  0.40920  0.81783  0.41790  1.0000 0.1189756922
H   H25       1.0  0.23023  0.05650  0.80870  1.0000 0.1189756922
H   H26       1.0  0.05650  0.80870  0.23023  1.0000 0.1189756922
H   H27       1.0  0.26977  0.69130  0.44350  1.0000 0.1189756922
H   H28       1.0  0.80870  0.23023  0.05650  1.0000 0.1189756922
H   H29       1.0  0.69130  0.44350  0.26977  1.0000 0.1282916931
H   H30       1.0  0.44350  0.26977  0.69130  1.0000 0.1189756922
H   H31       1.0  0.76977  0.94350  0.19130  1.0000 0.1189756922
H   H32       1.0  0.94350  0.19130  0.76977  1.0000 0.1189756922
H   H33       1.0  0.73023  0.30870  0.55650  1.0000 0.1189756922
H   H34       1.0  0.19130  0.76977  0.94350  1.0000 0.1189756922
H   H35       1.0  0.30870  0.55650  0.73023  1.0000 0.1189756922
H   H36       1.0  0.55650  0.73023  0.30870  1.0000 0.1282916931
H   H37       1.0  0.31893  0.10670  0.63320  1.0000 0.1189756922
H   H38       1.0  0.10670  0.63320  0.31893  1.0000 0.1189756922
H   H39       1.0  0.18107  0.86680  0.39330  1.0000 0.1189756922
H   H40       1.0  0.63320  0.31893  0.10670  1.0000 0.1189756922
H   H41       1.0  0.86680  0.39330  0.18107  1.0000 0.1189756922
H   H42       1.0  0.39330  0.18107  0.86680  1.0000 0.1189756922
H   H43       1.0  0.68107  0.89330  0.36680  1.0000 0.1189756922
H   H44       1.0  0.89330  0.36680  0.68107  1.0000 0.1189756922
H   H45       1.0  0.81893  0.13320  0.60670  1.0000 0.1189756922
H   H46       1.0  0.36680  0.68107  0.89330  1.0000 0.1189756922
H   H47       1.0  0.13320  0.60670  0.81893  1.0000 0.1189756922
H   H48       1.0  0.60670  0.81893  0.13320  1.0000 0.1189756922
H   H49       1.0  0.46753  0.10440  0.49980  1.0000 0.1146466806
H   H50       1.0  0.10440  0.49980  0.46753  1.0000 0.1146466806
H   H51       1.0  0.03247  0.00020  0.39560  1.0000 0.1146466806
H   H52       1.0  0.49980  0.46753  0.10440  1.0000 0.1146466806
H   H53       1.0  0.00020  0.39560  0.03247  1.0000 0.1146466806
H   H54       1.0  0.39560  0.03247  0.00020  1.0000 0.1146466806
H   H55       1.0  0.53247  0.89560  0.50020  1.0000 0.1146466806
H   H56       1.0  0.89560  0.50020  0.53247  1.0000 0.1146466806
H   H57       1.0  0.96753  0.99980  0.60440  1.0000 0.1146466806
H   H58       1.0  0.50020  0.53247  0.89560  1.0000 0.1146466806
H   H59       1.0  0.99980  0.60440  0.96753  1.0000 0.1146466806
H   H60       1.0  0.60440  0.96753  0.99980  1.0000 0.1146466806
H   H61       1.0  0.57453  0.02280  0.51340  1.0000 0.1189756922
H   H62       1.0  0.02280  0.51340  0.57453  1.0000 0.1146466806
H   H63       1.0  0.92547  0.98660  0.47720  1.0000 0.1146466806
H   H64       1.0  0.51340  0.57453  0.02280  1.0000 0.1189756922
H   H65       1.0  0.98660  0.47720  0.92547  1.0000 0.1189756922
H   H66       1.0  0.47720  0.92547  0.98660  1.0000 0.1146466806
H   H67       1.0  0.42547  0.97720  0.48660  1.0000 0.1189756922
H   H68       1.0  0.97720  0.48660  0.42547  1.0000 0.1189756922
H   H69       1.0  0.07453  0.01340  0.52280  1.0000 0.1189756922
H   H70       1.0  0.48660  0.42547  0.97720  1.0000 0.1189756922
H   H71       1.0  0.01340  0.52280  0.07453  1.0000 0.1189756922
H   H72       1.0  0.52280  0.07453  0.01340  1.0000 0.1189756922
C   C1        1.0  0.50563  0.90710  0.70130  1.0000 0.1890886277
C   C2        1.0  0.90710  0.70130  0.50563  1.0000 0.1890886277
C   C3        1.0  0.99437  0.79870  0.59290  1.0000 0.1890886277
C   C4        1.0  0.70130  0.50563  0.90710  1.0000 0.1890886277
C   C5        1.0  0.79870  0.59290  0.99437  1.0000 0.1890886277
C   C6        1.0  0.59290  0.99437  0.79870  1.0000 0.1890886277
C   C7        1.0  0.49437  0.09290  0.29870  1.0000 0.1890886277
C   C8        1.0  0.09290  0.29870  0.49437  1.0000 0.1890886277
C   C9        1.0  0.00563  0.20130  0.40710  1.0000 0.1890886277
C   C10       1.0  0.29870  0.49437  0.09290  1.0000 0.1890886277
C   C11       1.0  0.20130  0.40710  0.00563  1.0000 0.1890886277
C   C12       1.0  0.40710  0.00563  0.20130  1.0000 0.1890886277
C   C13       1.0  0.45193  0.87660  0.80710  1.0000 -0.180471121
C   C14       1.0  0.87660  0.80710  0.45193  1.0000 -0.180471121
C   C15       1.0  0.04807  0.69290  0.62340  1.0000 -0.180471121
C   C16       1.0  0.80710  0.45193  0.87660  1.0000 -0.180471121
C   C17       1.0  0.69290  0.62340  0.04807  1.0000 -0.180471121
C   C18       1.0  0.62340  0.04807  0.69290  1.0000 -0.180471121
C   C19       1.0  0.54807  0.12340  0.19290  1.0000 -0.180471121
C   C20       1.0  0.12340  0.19290  0.54807  1.0000 -0.180471121
C   C21       1.0  0.95193  0.30710  0.37660  1.0000 -0.180471121
C   C22       1.0  0.19290  0.54807  0.12340  1.0000 -0.180471121
C   C23       1.0  0.30710  0.37660  0.95193  1.0000 -0.180471121
C   C24       1.0  0.37660  0.95193  0.30710  1.0000 -0.180471121
C   C25       1.0  0.35163  0.93100  0.84700  1.0000 -0.0568702582
C   C26       1.0  0.93100  0.84700  0.35163  1.0000 -0.0568702582
C   C27       1.0  0.14837  0.65300  0.56900  1.0000 -0.0568702582
C   C28       1.0  0.84700  0.35163  0.93100  1.0000 -0.0568702582
C   C29       1.0  0.65300  0.56900  0.14837  1.0000 -0.0568702582
C   C30       1.0  0.56900  0.14837  0.65300  1.0000 -0.0568702582
C   C31       1.0  0.64837  0.06900  0.15300  1.0000 -0.0568702582
C   C32       1.0  0.06900  0.15300  0.64837  1.0000 -0.0568702582
C   C33       1.0  0.85163  0.34700  0.43100  1.0000 -0.0568702582
C   C34       1.0  0.15300  0.64837  0.06900  1.0000 -0.0568702582
C   C35       1.0  0.34700  0.43100  0.85163  1.0000 -0.0568702582
C   C36       1.0  0.43100  0.85163  0.34700  1.0000 -0.0568702582
C   C37       1.0  0.29903  0.01900  0.78220  1.0000 -0.180471121
C   C38       1.0  0.01900  0.78220  0.29903  1.0000 -0.180471121
C   C39       1.0  0.20097  0.71780  0.48100  1.0000 -0.180471121
C   C40       1.0  0.78220  0.29903  0.01900  1.0000 -0.180471121
C   C41       1.0  0.71780  0.48100  0.20097  1.0000 -0.180471121
C   C42       1.0  0.48100  0.20097  0.71780  1.0000 -0.180471121
C   C43       1.0  0.70097  0.98100  0.21780  1.0000 -0.180471121
C   C44       1.0  0.98100  0.21780  0.70097  1.0000 -0.180471121
C   C45       1.0  0.79903  0.28220  0.51900  1.0000 -0.180471121
C   C46       1.0  0.21780  0.70097  0.98100  1.0000 -0.180471121
C   C47       1.0  0.28220  0.51900  0.79903  1.0000 -0.180471121
C   C48       1.0  0.51900  0.79903  0.28220  1.0000 -0.180471121
C   C49       1.0  0.35223  0.04840  0.67800  1.0000 -0.0568702582
C   C50       1.0  0.04840  0.67800  0.35223  1.0000 -0.0568702582
C   C51       1.0  0.14777  0.82200  0.45160  1.0000 -0.0568702582
C   C52       1.0  0.67800  0.35223  0.04840  1.0000 -0.0548200086
C   C53       1.0  0.82200  0.45160  0.14777  1.0000 -0.0568702582
C   C54       1.0  0.45160  0.14777  0.82200  1.0000 -0.0568702582
C   C55       1.0  0.64777  0.95160  0.32200  1.0000 -0.0568702582
C   C56       1.0  0.95160  0.32200  0.64777  1.0000 -0.0568702582
C   C57       1.0  0.85223  0.17800  0.54840  1.0000 -0.0568702582
C   C58       1.0  0.32200  0.64777  0.95160  1.0000 -0.0568702582
C   C59       1.0  0.17800  0.54840  0.85223  1.0000 -0.0568702582
C   C60       1.0  0.54840  0.85223  0.17800  1.0000 -0.0568702582
C   C61       1.0  0.50263  0.03110  0.52690  1.0000 -0.1501004585
C   C62       1.0  0.03110  0.52690  0.50263  1.0000 -0.1501004585
C   C63       1.0  0.99737  0.97310  0.46890  1.0000 -0.1501004585
C   C64       1.0  0.52690  0.50263  0.03110  1.0000 -0.1501004585
C   C65       1.0  0.97310  0.46890  0.99737  1.0000 -0.1501004585
C   C66       1.0  0.46890  0.99737  0.97310  1.0000 -0.1501004585
C   C67       1.0  0.49737  0.96890  0.47310  1.0000 -0.1501004585
C   C68       1.0  0.96890  0.47310  0.49737  1.0000 -0.1501004585
C   C69       1.0  0.00263  0.02690  0.53110  1.0000 -0.1501004585
C   C70       1.0  0.47310  0.49737  0.96890  1.0000 -0.1501004585
C   C71       1.0  0.02690  0.53110  0.00263  1.0000 -0.1501004585
C   C72       1.0  0.53110  0.00263  0.02690  1.0000 -0.1501004585
S   S1        1.0  0.63163  0.84200  0.64400  1.0000 -0.3785331175
S   S2        1.0  0.84200  0.64400  0.63163  1.0000 -0.3785331175
S   S3        1.0  0.86837  0.85600  0.65800  1.0000 -0.3785331175
S   S4        1.0  0.64400  0.63163  0.84200  1.0000 -0.3785331175
S   S5        1.0  0.85600  0.65800  0.86837  1.0000 -0.3785331175
S   S6        1.0  0.65800  0.86837  0.85600  1.0000 -0.3785331175
S   S7        1.0  0.36837  0.15800  0.35600  1.0000 -0.3785331175
S   S8        1.0  0.15800  0.35600  0.36837  1.0000 -0.3785331175
S   S9        1.0  0.13163  0.14400  0.34200  1.0000 -0.3785331175
S   S10       1.0  0.35600  0.36837  0.15800  1.0000 -0.3785331175
S   S11       1.0  0.14400  0.34200  0.13163  1.0000 -0.3785331175
S   S12       1.0  0.34200  0.13163  0.14400  1.0000 -0.3785331175
N   N1        1.0  0.45273  0.99400  0.63910  1.0000 0.0425284312
N   N2        1.0  0.99400  0.63910  0.45273  1.0000 0.0425284312
N   N3        1.0  0.04727  0.86090  0.50600  1.0000 0.0425284312
N   N4        1.0  0.63910  0.45273  0.99400  1.0000 0.0425284312
N   N5        1.0  0.86090  0.50600  0.04727  1.0000 0.0425284312
N   N6        1.0  0.50600  0.04727  0.86090  1.0000 0.0425284312
N   N7        1.0  0.54727  0.00600  0.36090  1.0000 0.0425284312
N   N8        1.0  0.00600  0.36090  0.54727  1.0000 0.0425284312
N   N9        1.0  0.95273  0.13910  0.49400  1.0000 0.0425284312
N   N10       1.0  0.36090  0.54727  0.00600  1.0000 0.0425284312
N   N11       1.0  0.13910  0.49400  0.95273  1.0000 0.0425284312
N   N12       1.0  0.49400  0.95273  0.13910  1.0000 0.0425284312
