# DDEC6 charges by PACMAN v1.1 (https://github.com/mtap-research/PACMAN-charge/)
data_1999[Cd][dia]3[ASR]1
_chemical_formula_sum              "Cd8 H64 C96 N16 O32"
_cell_length_a       12.691
_cell_length_b       15.545
_cell_length_c       18.342
_cell_angle_alpha    90
_cell_angle_beta     90
_cell_angle_gamma    90

_symmetry_space_group_name_H-M    "P 1"
_symmetry_Int_Tables_number       1

loop_
  _symmetry_equiv_pos_as_xyz
  'x, y, z'

loop_
  _atom_site_type_symbol
  _atom_site_label
  _atom_site_symmetry_multiplicity
  _atom_site_fract_x
  _atom_site_fract_y
  _atom_site_fract_z
  _atom_site_occupancy
  _atom_site_charge
Cd  Cd1       1.0  0.18286  0.71257  0.68312  1.0000 0.8201478511
Cd  Cd2       1.0  0.31714  0.28743  0.18312  1.0000 0.8201478511
Cd  Cd3       1.0  0.81714  0.21257  0.81688  1.0000 0.8201478511
Cd  Cd4       1.0  0.68286  0.78743  0.31688  1.0000 0.8201478511
Cd  Cd5       1.0  0.81714  0.28743  0.31688  1.0000 0.8201478511
Cd  Cd6       1.0  0.68286  0.71257  0.81688  1.0000 0.8201478511
Cd  Cd7       1.0  0.18286  0.78743  0.18312  1.0000 0.8201478511
Cd  Cd8       1.0  0.31714  0.21257  0.68312  1.0000 0.8201478511
H   H1        1.0  0.09874  0.41824  0.67664  1.0000 0.1204037086
H   H2        1.0  0.00172  0.27896  0.70985  1.0000 0.0820101776
H   H3        1.0  0.77583  0.41588  0.83282  1.0000 0.0820101776
H   H4        1.0  0.86612  0.55871  0.80580  1.0000 0.1331957966
H   H5        1.0  0.91317  0.61237  0.46776  1.0000 0.114405708
H   H6        1.0  0.04532  0.59440  0.57020  1.0000 0.0695323782
H   H7        1.0  0.12030  0.85956  0.56727  1.0000 0.0695323782
H   H8        1.0  0.98185  0.88869  0.46924  1.0000 0.1204037086
H   H9        1.0  0.40126  0.58176  0.17664  1.0000 0.1204037086
H   H10       1.0  0.49828  0.72104  0.20985  1.0000 0.0820101776
H   H11       1.0  0.72417  0.58412  0.33282  1.0000 0.0820101776
H   H12       1.0  0.63388  0.44129  0.30580  1.0000 0.1331957966
H   H13       1.0  0.58683  0.38763  0.96776  1.0000 0.114405708
H   H14       1.0  0.45468  0.40560  0.07020  1.0000 0.0695323782
H   H15       1.0  0.37970  0.14044  0.06727  1.0000 0.0695323782
H   H16       1.0  0.51815  0.11131  0.96924  1.0000 0.1204037086
H   H17       1.0  0.90126  0.91824  0.82336  1.0000 0.1204037086
H   H18       1.0  0.99828  0.77896  0.79015  1.0000 0.0820101776
H   H19       1.0  0.22417  0.91588  0.66718  1.0000 0.0820101776
H   H20       1.0  0.13388  0.05871  0.69420  1.0000 0.1331957966
H   H21       1.0  0.08683  0.11237  0.03224  1.0000 0.114405708
H   H22       1.0  0.95468  0.09440  0.92980  1.0000 0.0695323782
H   H23       1.0  0.87970  0.35956  0.93273  1.0000 0.0695323782
H   H24       1.0  0.01815  0.38869  0.03076  1.0000 0.1204037086
H   H25       1.0  0.59874  0.08176  0.32336  1.0000 0.1204037086
H   H26       1.0  0.50172  0.22104  0.29015  1.0000 0.0820101776
H   H27       1.0  0.27583  0.08412  0.16718  1.0000 0.0820101776
H   H28       1.0  0.36612  0.94129  0.19420  1.0000 0.1331957966
H   H29       1.0  0.41317  0.88763  0.53224  1.0000 0.114405708
H   H30       1.0  0.54532  0.90560  0.42980  1.0000 0.0695323782
H   H31       1.0  0.62030  0.64044  0.43273  1.0000 0.0695323782
H   H32       1.0  0.48185  0.61131  0.53076  1.0000 0.1204037086
H   H33       1.0  0.90126  0.58176  0.32336  1.0000 0.1204037086
H   H34       1.0  0.99828  0.72104  0.29015  1.0000 0.0820101776
H   H35       1.0  0.22417  0.58412  0.16718  1.0000 0.0820101776
H   H36       1.0  0.13388  0.44129  0.19420  1.0000 0.1331957966
H   H37       1.0  0.08683  0.38763  0.53224  1.0000 0.114405708
H   H38       1.0  0.95468  0.40560  0.42980  1.0000 0.0695323782
H   H39       1.0  0.87970  0.14044  0.43273  1.0000 0.0695323782
H   H40       1.0  0.01815  0.11131  0.53076  1.0000 0.1204037086
H   H41       1.0  0.59874  0.41824  0.82336  1.0000 0.1204037086
H   H42       1.0  0.50172  0.27896  0.79015  1.0000 0.0820101776
H   H43       1.0  0.27583  0.41588  0.66718  1.0000 0.0820101776
H   H44       1.0  0.36612  0.55871  0.69420  1.0000 0.1331957966
H   H45       1.0  0.41317  0.61237  0.03224  1.0000 0.114405708
H   H46       1.0  0.54532  0.59440  0.92980  1.0000 0.0695323782
H   H47       1.0  0.62030  0.85956  0.93273  1.0000 0.0695323782
H   H48       1.0  0.48185  0.88869  0.03076  1.0000 0.1204037086
H   H49       1.0  0.09874  0.08176  0.17664  1.0000 0.1204037086
H   H50       1.0  0.00172  0.22104  0.20985  1.0000 0.0820101776
H   H51       1.0  0.77583  0.08412  0.33282  1.0000 0.0820101776
H   H52       1.0  0.86612  0.94129  0.30580  1.0000 0.1331957966
H   H53       1.0  0.91317  0.88763  0.96776  1.0000 0.114405708
H   H54       1.0  0.04532  0.90560  0.07020  1.0000 0.0695323782
H   H55       1.0  0.12030  0.64044  0.06727  1.0000 0.0695323782
H   H56       1.0  0.98185  0.61131  0.96924  1.0000 0.1204037086
H   H57       1.0  0.40126  0.91824  0.67664  1.0000 0.1204037086
H   H58       1.0  0.49828  0.77896  0.70985  1.0000 0.0820101776
H   H59       1.0  0.72417  0.91588  0.83282  1.0000 0.0820101776
H   H60       1.0  0.63388  0.05871  0.80580  1.0000 0.1331957966
H   H61       1.0  0.58683  0.11237  0.46776  1.0000 0.114405708
H   H62       1.0  0.45468  0.09440  0.57020  1.0000 0.0695323782
H   H63       1.0  0.37970  0.35956  0.56727  1.0000 0.0695323782
H   H64       1.0  0.51815  0.38869  0.46924  1.0000 0.1204037086
C   C1        1.0  0.04880  0.57850  0.72450  1.0000 0.5407516301
C   C2        1.0  0.98890  0.49570  0.74080  1.0000 0.03192112
C   C3        1.0  0.02600  0.41890  0.71310  1.0000 -0.1368299484
C   C4        1.0  0.97230  0.34360  0.73100  1.0000 0.0992598468
C   C5        1.0  0.85010  0.41790  0.79790  1.0000 0.087768355
C   C6        1.0  0.89860  0.49560  0.78350  1.0000 -0.1242025405
C   C7        1.0  0.85210  0.76690  0.40810  1.0000 0.5407516301
C   C8        1.0  0.93660  0.75190  0.46420  1.0000 0.03192112
C   C9        1.0  0.95660  0.67030  0.49120  1.0000 -0.1308846589
C   C10       1.0  0.02920  0.66080  0.54630  1.0000 0.0992598468
C   C11       1.0  0.06910  0.80500  0.54560  1.0000 0.0992598468
C   C12       1.0  0.99530  0.82110  0.49150  1.0000 -0.1308846589
C   C13       1.0  0.45120  0.42150  0.22450  1.0000 0.5407516301
C   C14       1.0  0.51110  0.50430  0.24080  1.0000 0.03192112
C   C15       1.0  0.47400  0.58110  0.21310  1.0000 -0.1368299484
C   C16       1.0  0.52770  0.65640  0.23100  1.0000 0.0992598468
C   C17       1.0  0.64990  0.58210  0.29790  1.0000 0.087768355
C   C18       1.0  0.60140  0.50440  0.28350  1.0000 -0.1242025405
C   C19       1.0  0.64790  0.23310  0.90810  1.0000 0.5407516301
C   C20       1.0  0.56340  0.24810  0.96420  1.0000 0.03192112
C   C21       1.0  0.54340  0.32970  0.99120  1.0000 -0.1308846589
C   C22       1.0  0.47080  0.33920  0.04630  1.0000 0.0992598468
C   C23       1.0  0.43090  0.19500  0.04560  1.0000 0.0992598468
C   C24       1.0  0.50470  0.17890  0.99150  1.0000 -0.1308846589
C   C25       1.0  0.95120  0.07850  0.77550  1.0000 0.5407516301
C   C26       1.0  0.01110  0.99570  0.75920  1.0000 0.03192112
C   C27       1.0  0.97400  0.91890  0.78690  1.0000 -0.1368299484
C   C28       1.0  0.02770  0.84360  0.76900  1.0000 0.0992598468
C   C29       1.0  0.14990  0.91790  0.70210  1.0000 0.087768355
C   C30       1.0  0.10140  0.99560  0.71650  1.0000 -0.1242025405
C   C31       1.0  0.14790  0.26690  0.09190  1.0000 0.5407516301
C   C32       1.0  0.06340  0.25190  0.03580  1.0000 0.03192112
C   C33       1.0  0.04340  0.17030  0.00880  1.0000 -0.1308846589
C   C34       1.0  0.97080  0.16080  0.95370  1.0000 0.0992598468
C   C35       1.0  0.93090  0.30500  0.95440  1.0000 0.0992598468
C   C36       1.0  0.00470  0.32110  0.00850  1.0000 -0.1308846589
C   C37       1.0  0.54880  0.92150  0.27550  1.0000 0.5407516301
C   C38       1.0  0.48890  0.00430  0.25920  1.0000 0.03192112
C   C39       1.0  0.52600  0.08110  0.28690  1.0000 -0.1368299484
C   C40       1.0  0.47230  0.15640  0.26900  1.0000 0.0992598468
C   C41       1.0  0.35010  0.08210  0.20210  1.0000 0.087768355
C   C42       1.0  0.39860  0.00440  0.21650  1.0000 -0.1242025405
C   C43       1.0  0.35210  0.73310  0.59190  1.0000 0.5407516301
C   C44       1.0  0.43660  0.74810  0.53580  1.0000 0.03192112
C   C45       1.0  0.45660  0.82970  0.50880  1.0000 -0.1308846589
C   C46       1.0  0.52920  0.83920  0.45370  1.0000 0.0992598468
C   C47       1.0  0.56910  0.69500  0.45440  1.0000 0.0992598468
C   C48       1.0  0.49530  0.67890  0.50850  1.0000 -0.1308846589
C   C49       1.0  0.95120  0.42150  0.27550  1.0000 0.5407516301
C   C50       1.0  0.01110  0.50430  0.25920  1.0000 0.03192112
C   C51       1.0  0.97400  0.58110  0.28690  1.0000 -0.1368299484
C   C52       1.0  0.02770  0.65640  0.26900  1.0000 0.0992598468
C   C53       1.0  0.14990  0.58210  0.20210  1.0000 0.087768355
C   C54       1.0  0.10140  0.50440  0.21650  1.0000 -0.1242025405
C   C55       1.0  0.14790  0.23310  0.59190  1.0000 0.5407516301
C   C56       1.0  0.06340  0.24810  0.53580  1.0000 0.03192112
C   C57       1.0  0.04340  0.32970  0.50880  1.0000 -0.1308846589
C   C58       1.0  0.97080  0.33920  0.45370  1.0000 0.0992598468
C   C59       1.0  0.93090  0.19500  0.45440  1.0000 0.0992598468
C   C60       1.0  0.00470  0.17890  0.50850  1.0000 -0.1308846589
C   C61       1.0  0.54880  0.57850  0.77550  1.0000 0.5407516301
C   C62       1.0  0.48890  0.49570  0.75920  1.0000 0.03192112
C   C63       1.0  0.52600  0.41890  0.78690  1.0000 -0.1368299484
C   C64       1.0  0.47230  0.34360  0.76900  1.0000 0.0992598468
C   C65       1.0  0.35010  0.41790  0.70210  1.0000 0.087768355
C   C66       1.0  0.39860  0.49560  0.71650  1.0000 -0.1242025405
C   C67       1.0  0.35210  0.76690  0.09190  1.0000 0.5407516301
C   C68       1.0  0.43660  0.75190  0.03580  1.0000 0.03192112
C   C69       1.0  0.45660  0.67030  0.00880  1.0000 -0.1308846589
C   C70       1.0  0.52920  0.66080  0.95370  1.0000 0.0992598468
C   C71       1.0  0.56910  0.80500  0.95440  1.0000 0.0992598468
C   C72       1.0  0.49530  0.82110  0.00850  1.0000 -0.1308846589
C   C73       1.0  0.04880  0.92150  0.22450  1.0000 0.5407516301
C   C74       1.0  0.98890  0.00430  0.24080  1.0000 0.03192112
C   C75       1.0  0.02600  0.08110  0.21310  1.0000 -0.1368299484
C   C76       1.0  0.97230  0.15640  0.23100  1.0000 0.0992598468
C   C77       1.0  0.85010  0.08210  0.29790  1.0000 0.087768355
C   C78       1.0  0.89860  0.00440  0.28350  1.0000 -0.1242025405
C   C79       1.0  0.85210  0.73310  0.90810  1.0000 0.5407516301
C   C80       1.0  0.93660  0.74810  0.96420  1.0000 0.03192112
C   C81       1.0  0.95660  0.82970  0.99120  1.0000 -0.1308846589
C   C82       1.0  0.02920  0.83920  0.04630  1.0000 0.0992598468
C   C83       1.0  0.06910  0.69500  0.04560  1.0000 0.0992598468
C   C84       1.0  0.99530  0.67890  0.99150  1.0000 -0.1308846589
C   C85       1.0  0.45120  0.07850  0.72450  1.0000 0.5407516301
C   C86       1.0  0.51110  0.99570  0.74080  1.0000 0.03192112
C   C87       1.0  0.47400  0.91890  0.71310  1.0000 -0.1368299484
C   C88       1.0  0.52770  0.84360  0.73100  1.0000 0.0992598468
C   C89       1.0  0.64990  0.91790  0.79790  1.0000 0.087768355
C   C90       1.0  0.60140  0.99560  0.78350  1.0000 -0.1242025405
C   C91       1.0  0.64790  0.26690  0.40810  1.0000 0.5407516301
C   C92       1.0  0.56340  0.25190  0.46420  1.0000 0.03192112
C   C93       1.0  0.54340  0.17030  0.49120  1.0000 -0.1308846589
C   C94       1.0  0.47080  0.16080  0.54630  1.0000 0.0992598468
C   C95       1.0  0.43090  0.30500  0.54560  1.0000 0.0992598468
C   C96       1.0  0.50470  0.32110  0.49150  1.0000 -0.1308846589
N   N1        1.0  0.88580  0.34240  0.77270  1.0000 -0.2591361612
N   N2        1.0  0.08390  0.72700  0.57450  1.0000 -0.2329313367
N   N3        1.0  0.61420  0.65760  0.27270  1.0000 -0.2591361612
N   N4        1.0  0.41610  0.27300  0.07450  1.0000 -0.2329313367
N   N5        1.0  0.11420  0.84240  0.72730  1.0000 -0.2591361612
N   N6        1.0  0.91610  0.22700  0.92550  1.0000 -0.2329313367
N   N7        1.0  0.38580  0.15760  0.22730  1.0000 -0.2591361612
N   N8        1.0  0.58390  0.77300  0.42550  1.0000 -0.2329313367
N   N9        1.0  0.11420  0.65760  0.22730  1.0000 -0.2591361612
N   N10       1.0  0.91610  0.27300  0.42550  1.0000 -0.2329313367
N   N11       1.0  0.38580  0.34240  0.72730  1.0000 -0.2591361612
N   N12       1.0  0.58390  0.72700  0.92550  1.0000 -0.2329313367
N   N13       1.0  0.88580  0.15760  0.27270  1.0000 -0.2591361612
N   N14       1.0  0.08390  0.77300  0.07450  1.0000 -0.2329313367
N   N15       1.0  0.61420  0.84240  0.77270  1.0000 -0.2591361612
N   N16       1.0  0.41610  0.22700  0.57450  1.0000 -0.2329313367
O   O1        1.0  0.00550  0.64940  0.73940  1.0000 -0.5471378475
O   O2        1.0  0.13770  0.57160  0.69670  1.0000 -0.5187460169
O   O3        1.0  0.82300  0.84280  0.39510  1.0000 -0.5187460169
O   O4        1.0  0.81170  0.70260  0.37840  1.0000 -0.5430360943
O   O5        1.0  0.49450  0.35060  0.23940  1.0000 -0.5471378475
O   O6        1.0  0.36230  0.42840  0.19670  1.0000 -0.5187460169
O   O7        1.0  0.67700  0.15720  0.89510  1.0000 -0.5187460169
O   O8        1.0  0.68830  0.29740  0.87840  1.0000 -0.5430360943
O   O9        1.0  0.99450  0.14940  0.76060  1.0000 -0.5471378475
O   O10       1.0  0.86230  0.07160  0.80330  1.0000 -0.5187460169
O   O11       1.0  0.17700  0.34280  0.10490  1.0000 -0.5187460169
O   O12       1.0  0.18830  0.20260  0.12160  1.0000 -0.5430360943
O   O13       1.0  0.50550  0.85060  0.26060  1.0000 -0.5471378475
O   O14       1.0  0.63770  0.92840  0.30330  1.0000 -0.5187460169
O   O15       1.0  0.32300  0.65720  0.60490  1.0000 -0.5187460169
O   O16       1.0  0.31170  0.79740  0.62160  1.0000 -0.5430360943
O   O17       1.0  0.99450  0.35060  0.26060  1.0000 -0.5471378475
O   O18       1.0  0.86230  0.42840  0.30330  1.0000 -0.5187460169
O   O19       1.0  0.17700  0.15720  0.60490  1.0000 -0.5187460169
O   O20       1.0  0.18830  0.29740  0.62160  1.0000 -0.5430360943
O   O21       1.0  0.50550  0.64940  0.76060  1.0000 -0.5471378475
O   O22       1.0  0.63770  0.57160  0.80330  1.0000 -0.5187460169
O   O23       1.0  0.32300  0.84280  0.10490  1.0000 -0.5187460169
O   O24       1.0  0.31170  0.70260  0.12160  1.0000 -0.5430360943
O   O25       1.0  0.00550  0.85060  0.23940  1.0000 -0.5471378475
O   O26       1.0  0.13770  0.92840  0.19670  1.0000 -0.5187460169
O   O27       1.0  0.82300  0.65720  0.89510  1.0000 -0.5187460169
O   O28       1.0  0.81170  0.79740  0.87840  1.0000 -0.5430360943
O   O29       1.0  0.49450  0.14940  0.73940  1.0000 -0.5471378475
O   O30       1.0  0.36230  0.07160  0.69670  1.0000 -0.5187460169
O   O31       1.0  0.67700  0.34280  0.39510  1.0000 -0.5187460169
O   O32       1.0  0.68830  0.20260  0.37840  1.0000 -0.5430360943
