# DDEC6 charges by PACMAN v1.1 (https://github.com/mtap-research/PACMAN-charge/)
data_1999[Fe][nan]3[ASR]2
_chemical_formula_sum              "Fe8 P4 C12 O40"
_cell_length_a       7.569
_cell_length_b       7.821
_cell_length_c       18.033
_cell_angle_alpha    90
_cell_angle_beta     98.8
_cell_angle_gamma    90

_symmetry_space_group_name_H-M    "P 1"
_symmetry_Int_Tables_number       1

loop_
  _symmetry_equiv_pos_as_xyz
  'x, y, z'

loop_
  _atom_site_type_symbol
  _atom_site_label
  _atom_site_symmetry_multiplicity
  _atom_site_fract_x
  _atom_site_fract_y
  _atom_site_fract_z
  _atom_site_occupancy
  _atom_site_charge
Fe  Fe1       1.0  0.63410  0.94350  0.36480  1.0000 1.1314171599
Fe  Fe2       1.0  0.36590  0.44350  0.13520  1.0000 1.1314171599
Fe  Fe3       1.0  0.36590  0.05650  0.63520  1.0000 1.1314171599
Fe  Fe4       1.0  0.63410  0.55650  0.86480  1.0000 1.1314171599
Fe  Fe5       1.0  0.28780  0.20200  0.30990  1.0000 1.1379420506
Fe  Fe6       1.0  0.71220  0.70200  0.19010  1.0000 1.1379420506
Fe  Fe7       1.0  0.71220  0.79800  0.69010  1.0000 1.1379420506
Fe  Fe8       1.0  0.28780  0.29800  0.80990  1.0000 1.1379420506
P   P1        1.0  0.44600  0.58290  0.30910  1.0000 1.5662276494
P   P2        1.0  0.55400  0.08290  0.19090  1.0000 1.5662276494
P   P3        1.0  0.55400  0.41710  0.69090  1.0000 1.5662276494
P   P4        1.0  0.44600  0.91710  0.80910  1.0000 1.5662276494
C   C1        1.0  0.94230  0.14750  0.35310  1.0000 0.5416387515
C   C2        1.0  0.05770  0.64750  0.14690  1.0000 0.5416387515
C   C3        1.0  0.05770  0.85250  0.64690  1.0000 0.5416387515
C   C4        1.0  0.94230  0.35250  0.85310  1.0000 0.5416387515
C   C5        1.0  0.97580  0.98680  0.30650  1.0000 0.5290008532
C   C6        1.0  0.02420  0.48680  0.19350  1.0000 0.5290008532
C   C7        1.0  0.02420  0.01320  0.69350  1.0000 0.5290008532
C   C8        1.0  0.97580  0.51320  0.80650  1.0000 0.5290008532
C   C9        1.0  0.41620  0.04440  0.47780  1.0000 0.5290008532
C   C10       1.0  0.58380  0.54440  0.02220  1.0000 0.5290008532
C   C11       1.0  0.58380  0.95560  0.52220  1.0000 0.5290008532
C   C12       1.0  0.41620  0.45560  0.97780  1.0000 0.5290008532
O   O1        1.0  0.57800  0.69350  0.36010  1.0000 -0.7438100828
O   O2        1.0  0.42200  0.19350  0.13990  1.0000 -0.7438100828
O   O3        1.0  0.42200  0.30650  0.63990  1.0000 -0.7438100828
O   O4        1.0  0.57800  0.80650  0.86010  1.0000 -0.7438100828
O   O5        1.0  0.80490  0.15160  0.38310  1.0000 -0.4174157633
O   O6        1.0  0.19510  0.65160  0.11690  1.0000 -0.4174157633
O   O7        1.0  0.19510  0.84840  0.61690  1.0000 -0.4174157633
O   O8        1.0  0.80490  0.34840  0.88310  1.0000 -0.4174157633
O   O9        1.0  0.41530  0.05350  0.40740  1.0000 -0.4862429751
O   O10       1.0  0.58470  0.55350  0.09260  1.0000 -0.4862429751
O   O11       1.0  0.58470  0.94650  0.59260  1.0000 -0.4862429751
O   O12       1.0  0.41530  0.44650  0.90740  1.0000 -0.4862429751
O   O13       1.0  0.49410  0.06610  0.26780  1.0000 -0.7935406966
O   O14       1.0  0.50590  0.56610  0.23220  1.0000 -0.7935406966
O   O15       1.0  0.50590  0.93390  0.73220  1.0000 -0.7935406966
O   O16       1.0  0.49410  0.43390  0.76780  1.0000 -0.7935406966
O   O17       1.0  0.70180  0.90230  0.48760  1.0000 -0.3985073073
O   O18       1.0  0.29820  0.40230  0.01240  1.0000 -0.3985073073
O   O19       1.0  0.29820  0.09770  0.51240  1.0000 -0.3985073073
O   O20       1.0  0.70180  0.59770  0.98760  1.0000 -0.3985073073
O   O21       1.0  0.86090  0.87010  0.30260  1.0000 -0.4674546821
O   O22       1.0  0.13910  0.37010  0.19740  1.0000 -0.4674546821
O   O23       1.0  0.13910  0.12990  0.69740  1.0000 -0.4674546821
O   O24       1.0  0.86090  0.62990  0.80260  1.0000 -0.4674546821
O   O25       1.0  0.42120  0.41120  0.34400  1.0000 -0.7291876031
O   O26       1.0  0.57880  0.91120  0.15600  1.0000 -0.7291876031
O   O27       1.0  0.57880  0.58880  0.65600  1.0000 -0.7291876031
O   O28       1.0  0.42120  0.08880  0.84400  1.0000 -0.7291876031
O   O29       1.0  0.05660  0.26420  0.35720  1.0000 -0.4056806518
O   O30       1.0  0.94340  0.76420  0.14280  1.0000 -0.4056806518
O   O31       1.0  0.94340  0.73580  0.64280  1.0000 -0.4056806518
O   O32       1.0  0.05660  0.23580  0.85720  1.0000 -0.4056806518
O   O33       1.0  0.11820  0.98810  0.27880  1.0000 -0.3818576289
O   O34       1.0  0.88180  0.48810  0.22120  1.0000 -0.3818576289
O   O35       1.0  0.88180  0.01190  0.72120  1.0000 -0.3818576289
O   O36       1.0  0.11820  0.51190  0.77880  1.0000 -0.3818576289
O   O37       1.0  0.25490  0.66930  0.29970  1.0000 -0.6115299268
O   O38       1.0  0.74510  0.16930  0.20030  1.0000 -0.6115299268
O   O39       1.0  0.74510  0.33070  0.70030  1.0000 -0.6115299268
O   O40       1.0  0.25490  0.83070  0.79970  1.0000 -0.6115299268
