# DDEC6 charges by PACMAN v1.1 (https://github.com/mtap-research/PACMAN-charge/)
data_2000[Al][nan]3[ASR]1
_chemical_formula_sum              "Al8 P8 C8 O48"
_cell_length_a       9.992
_cell_length_b       11.644
_cell_length_c       12.231
_cell_angle_alpha    90
_cell_angle_beta     90
_cell_angle_gamma    90

_symmetry_space_group_name_H-M    "P 1"
_symmetry_Int_Tables_number       1

loop_
  _symmetry_equiv_pos_as_xyz
  'x, y, z'

loop_
  _atom_site_type_symbol
  _atom_site_label
  _atom_site_symmetry_multiplicity
  _atom_site_fract_x
  _atom_site_fract_y
  _atom_site_fract_z
  _atom_site_occupancy
  _atom_site_charge
Al  Al1       1.0  0.04530  0.27510  0.00000  1.0000 1.7227142863
Al  Al2       1.0  0.95470  0.72490  0.00000  1.0000 1.7227142863
Al  Al3       1.0  0.04530  0.72490  0.50000  1.0000 1.7304556779
Al  Al4       1.0  0.95470  0.27510  0.50000  1.0000 1.7304556779
Al  Al5       1.0  0.76910  0.00000  0.25000  1.0000 1.7304556779
Al  Al6       1.0  0.23090  0.00000  0.25000  1.0000 1.7304556779
Al  Al7       1.0  0.23090  0.00000  0.75000  1.0000 1.7304556779
Al  Al8       1.0  0.76910  0.00000  0.75000  1.0000 1.7304556779
P   P1        1.0  0.27420  0.08810  0.00000  1.0000 1.5173366778
P   P2        1.0  0.72580  0.91190  0.00000  1.0000 1.5173366778
P   P3        1.0  0.27420  0.91190  0.50000  1.0000 1.5173366778
P   P4        1.0  0.72580  0.08810  0.50000  1.0000 1.5173366778
P   P5        1.0  0.00000  0.19770  0.25000  1.0000 1.5879333131
P   P6        1.0  0.00000  0.80230  0.25000  1.0000 1.5879333131
P   P7        1.0  0.00000  0.80230  0.75000  1.0000 1.5879333131
P   P8        1.0  0.00000  0.19770  0.75000  1.0000 1.5879333131
C   C1        1.0  0.07490  0.51020  0.00000  1.0000 0.5471700393
C   C2        1.0  0.92510  0.48980  0.00000  1.0000 0.5471700393
C   C3        1.0  0.07490  0.48980  0.50000  1.0000 0.5471700393
C   C4        1.0  0.92510  0.51020  0.50000  1.0000 0.5471700393
C   C5        1.0  0.50000  0.06590  0.25000  1.0000 0.5298921876
C   C6        1.0  0.50000  0.93410  0.25000  1.0000 0.5298921876
C   C7        1.0  0.50000  0.93410  0.75000  1.0000 0.5298921876
C   C8        1.0  0.50000  0.06590  0.75000  1.0000 0.5298921876
O   O1        1.0  0.21250  0.20680  0.00000  1.0000 -0.7783237882
O   O2        1.0  0.78750  0.79320  0.00000  1.0000 -0.7783237882
O   O3        1.0  0.21250  0.79320  0.50000  1.0000 -0.7783237882
O   O4        1.0  0.78750  0.20680  0.50000  1.0000 -0.7783237882
O   O5        1.0  0.03080  0.27510  0.15210  1.0000 -0.8015283458
O   O6        1.0  0.96920  0.72490  0.15210  1.0000 -0.8015283458
O   O7        1.0  0.03080  0.72490  0.34790  1.0000 -0.8015283458
O   O8        1.0  0.96920  0.27510  0.34790  1.0000 -0.8015283458
O   O9        1.0  0.96920  0.72490  0.84790  1.0000 -0.8015283458
O   O10       1.0  0.03080  0.27510  0.84790  1.0000 -0.8015283458
O   O11       1.0  0.96920  0.27510  0.65210  1.0000 -0.8015283458
O   O12       1.0  0.03080  0.72490  0.65210  1.0000 -0.8015283458
O   O13       1.0  0.14660  0.42160  0.00000  1.0000 -0.4038472362
O   O14       1.0  0.85340  0.57840  0.00000  1.0000 -0.4038472362
O   O15       1.0  0.14660  0.57840  0.50000  1.0000 -0.4038472362
O   O16       1.0  0.85340  0.42160  0.50000  1.0000 -0.4038472362
O   O17       1.0  0.88760  0.38630  0.00000  1.0000 -0.4309281521
O   O18       1.0  0.11240  0.61370  0.00000  1.0000 -0.4309281521
O   O19       1.0  0.88760  0.61370  0.50000  1.0000 -0.4309281521
O   O20       1.0  0.11240  0.38630  0.50000  1.0000 -0.4309281521
O   O21       1.0  0.88000  0.12200  0.22230  1.0000 -0.7618939467
O   O22       1.0  0.12000  0.87800  0.22230  1.0000 -0.7618939467
O   O23       1.0  0.88000  0.87800  0.27770  1.0000 -0.7618939467
O   O24       1.0  0.12000  0.12200  0.27770  1.0000 -0.7618939467
O   O25       1.0  0.12000  0.87800  0.77770  1.0000 -0.7618939467
O   O26       1.0  0.88000  0.12200  0.77770  1.0000 -0.7618939467
O   O27       1.0  0.12000  0.12200  0.72230  1.0000 -0.7618939467
O   O28       1.0  0.88000  0.87800  0.72230  1.0000 -0.7618939467
O   O29       1.0  0.23850  0.01950  0.10030  1.0000 -0.7618939467
O   O30       1.0  0.76150  0.98050  0.10030  1.0000 -0.7618939467
O   O31       1.0  0.23850  0.98050  0.39970  1.0000 -0.7618939467
O   O32       1.0  0.76150  0.01950  0.39970  1.0000 -0.7618939467
O   O33       1.0  0.76150  0.98050  0.89970  1.0000 -0.7618939467
O   O34       1.0  0.23850  0.01950  0.89970  1.0000 -0.7618939467
O   O35       1.0  0.76150  0.01950  0.60030  1.0000 -0.7618939467
O   O36       1.0  0.23850  0.98050  0.60030  1.0000 -0.7618939467
O   O37       1.0  0.61200  0.11230  0.24160  1.0000 -0.3801942058
O   O38       1.0  0.38800  0.88770  0.24160  1.0000 -0.3801942058
O   O39       1.0  0.61200  0.88770  0.25840  1.0000 -0.3801942058
O   O40       1.0  0.38800  0.11230  0.25840  1.0000 -0.3801942058
O   O41       1.0  0.38800  0.88770  0.75840  1.0000 -0.3801942058
O   O42       1.0  0.61200  0.11230  0.75840  1.0000 -0.3801942058
O   O43       1.0  0.38800  0.11230  0.74160  1.0000 -0.3801942058
O   O44       1.0  0.61200  0.88770  0.74160  1.0000 -0.3801942058
O   O45       1.0  0.43130  0.10930  0.00000  1.0000 -0.6152528115
O   O46       1.0  0.56870  0.89070  0.00000  1.0000 -0.6152528115
O   O47       1.0  0.43130  0.89070  0.50000  1.0000 -0.6152528115
O   O48       1.0  0.56870  0.10930  0.50000  1.0000 -0.6152528115
