# DDEC6 charges by PACMAN v1.1 (https://github.com/mtap-research/PACMAN-charge/)
data_2001[Ni][sni]3[ASR]1
_chemical_formula_sum              "Ni16 H128 C192 N32 O72"
_cell_length_a       20.089
_cell_length_b       20.089
_cell_length_c       14.0156
_cell_angle_alpha    90
_cell_angle_beta     90
_cell_angle_gamma    90

_symmetry_space_group_name_H-M    "P 1"
_symmetry_Int_Tables_number       1

loop_
  _symmetry_equiv_pos_as_xyz
  'x, y, z'

loop_
  _atom_site_type_symbol
  _atom_site_label
  _atom_site_symmetry_multiplicity
  _atom_site_fract_x
  _atom_site_fract_y
  _atom_site_fract_z
  _atom_site_occupancy
  _atom_site_charge
Ni  Ni1       1.0  0.78349  0.86829  0.15862  1.0000 0.8173278023
Ni  Ni2       1.0  0.36829  0.71651  0.15862  1.0000 0.8173278023
Ni  Ni3       1.0  0.63171  0.28349  0.15862  1.0000 0.8173278023
Ni  Ni4       1.0  0.86829  0.78349  0.34138  1.0000 0.8173278023
Ni  Ni5       1.0  0.28349  0.36829  0.84138  1.0000 0.8173278023
Ni  Ni6       1.0  0.21651  0.86829  0.65862  1.0000 0.8173278023
Ni  Ni7       1.0  0.78349  0.13171  0.65862  1.0000 0.8173278023
Ni  Ni8       1.0  0.36829  0.28349  0.65862  1.0000 0.8173278023
Ni  Ni9       1.0  0.71651  0.63171  0.84138  1.0000 0.8173278023
Ni  Ni10      1.0  0.13171  0.78349  0.84138  1.0000 0.8173278023
Ni  Ni11      1.0  0.86829  0.21651  0.84138  1.0000 0.8173278023
Ni  Ni12      1.0  0.63171  0.71651  0.65862  1.0000 0.8173278023
Ni  Ni13      1.0  0.21651  0.13171  0.15862  1.0000 0.8173278023
Ni  Ni14      1.0  0.28349  0.63171  0.34138  1.0000 0.8173278023
Ni  Ni15      1.0  0.71651  0.36829  0.34138  1.0000 0.8173278023
Ni  Ni16      1.0  0.13171  0.21651  0.34138  1.0000 0.8173278023
H   H1        1.0  0.84330  0.79810  0.87700  1.0000 0.1308937643
H   H2        1.0  0.29810  0.65670  0.87700  1.0000 0.1308937643
H   H3        1.0  0.70190  0.34330  0.87700  1.0000 0.1308937643
H   H4        1.0  0.79810  0.84330  0.62300  1.0000 0.1308937643
H   H5        1.0  0.34330  0.29810  0.12300  1.0000 0.1308937643
H   H6        1.0  0.15670  0.79810  0.37700  1.0000 0.1308937643
H   H7        1.0  0.84330  0.20190  0.37700  1.0000 0.1308937643
H   H8        1.0  0.29810  0.34330  0.37700  1.0000 0.1308937643
H   H9        1.0  0.65670  0.70190  0.12300  1.0000 0.1308937643
H   H10       1.0  0.20190  0.84330  0.12300  1.0000 0.1308937643
H   H11       1.0  0.79810  0.15670  0.12300  1.0000 0.1308937643
H   H12       1.0  0.70190  0.65670  0.37700  1.0000 0.1308937643
H   H13       1.0  0.15670  0.20190  0.87700  1.0000 0.1308937643
H   H14       1.0  0.34330  0.70190  0.62300  1.0000 0.1308937643
H   H15       1.0  0.65670  0.29810  0.62300  1.0000 0.1308937643
H   H16       1.0  0.20190  0.15670  0.62300  1.0000 0.1308937643
H   H17       1.0  0.89050  0.75830  0.73760  1.0000 0.1308937643
H   H18       1.0  0.25830  0.60950  0.73760  1.0000 0.1308937643
H   H19       1.0  0.74170  0.39050  0.73760  1.0000 0.1308937643
H   H20       1.0  0.75830  0.89050  0.76240  1.0000 0.1308937643
H   H21       1.0  0.39050  0.25830  0.26240  1.0000 0.1308937643
H   H22       1.0  0.10950  0.75830  0.23760  1.0000 0.1308937643
H   H23       1.0  0.89050  0.24170  0.23760  1.0000 0.1308937643
H   H24       1.0  0.25830  0.39050  0.23760  1.0000 0.1308937643
H   H25       1.0  0.60950  0.74170  0.26240  1.0000 0.1308937643
H   H26       1.0  0.24170  0.89050  0.26240  1.0000 0.1308937643
H   H27       1.0  0.75830  0.10950  0.26240  1.0000 0.1308937643
H   H28       1.0  0.74170  0.60950  0.23760  1.0000 0.1308937643
H   H29       1.0  0.10950  0.24170  0.73760  1.0000 0.1308937643
H   H30       1.0  0.39050  0.74170  0.76240  1.0000 0.1308937643
H   H31       1.0  0.60950  0.25830  0.76240  1.0000 0.1308937643
H   H32       1.0  0.24170  0.10950  0.76240  1.0000 0.1308937643
H   H33       1.0  0.00540  0.75140  0.72350  1.0000 0.11144382
H   H34       1.0  0.25140  0.49460  0.72350  1.0000 0.11144382
H   H35       1.0  0.74860  0.50540  0.72350  1.0000 0.11144382
H   H36       1.0  0.75140  0.00540  0.77650  1.0000 0.11144382
H   H37       1.0  0.50540  0.25140  0.27650  1.0000 0.11144382
H   H38       1.0  0.99460  0.75140  0.22350  1.0000 0.11144382
H   H39       1.0  0.00540  0.24860  0.22350  1.0000 0.11144382
H   H40       1.0  0.25140  0.50540  0.22350  1.0000 0.11144382
H   H41       1.0  0.49460  0.74860  0.27650  1.0000 0.11144382
H   H42       1.0  0.24860  0.00540  0.27650  1.0000 0.11144382
H   H43       1.0  0.75140  0.99460  0.27650  1.0000 0.11144382
H   H44       1.0  0.74860  0.49460  0.22350  1.0000 0.11144382
H   H45       1.0  0.99460  0.24860  0.72350  1.0000 0.11144382
H   H46       1.0  0.50540  0.74860  0.77650  1.0000 0.11144382
H   H47       1.0  0.49460  0.25140  0.77650  1.0000 0.11144382
H   H48       1.0  0.24860  0.99460  0.77650  1.0000 0.11144382
H   H49       1.0  0.02750  0.82400  0.98080  1.0000 0.1204870403
H   H50       1.0  0.32400  0.47250  0.98080  1.0000 0.1204870403
H   H51       1.0  0.67600  0.52750  0.98080  1.0000 0.1204870403
H   H52       1.0  0.82400  0.02750  0.51920  1.0000 0.1204870403
H   H53       1.0  0.52750  0.32400  0.01920  1.0000 0.1204870403
H   H54       1.0  0.97250  0.82400  0.48080  1.0000 0.1204870403
H   H55       1.0  0.02750  0.17600  0.48080  1.0000 0.1204870403
H   H56       1.0  0.32400  0.52750  0.48080  1.0000 0.1204870403
H   H57       1.0  0.47250  0.67600  0.01920  1.0000 0.1204870403
H   H58       1.0  0.17600  0.02750  0.01920  1.0000 0.1204870403
H   H59       1.0  0.82400  0.97250  0.01920  1.0000 0.1204870403
H   H60       1.0  0.67600  0.47250  0.48080  1.0000 0.1204870403
H   H61       1.0  0.97250  0.17600  0.98080  1.0000 0.1204870403
H   H62       1.0  0.52750  0.67600  0.51920  1.0000 0.1204870403
H   H63       1.0  0.47250  0.32400  0.51920  1.0000 0.1204870403
H   H64       1.0  0.17600  0.97250  0.51920  1.0000 0.1204870403
H   H65       1.0  0.93290  0.63840  0.11530  1.0000 0.1308937643
H   H66       1.0  0.13840  0.56710  0.11530  1.0000 0.1308937643
H   H67       1.0  0.86160  0.43290  0.11530  1.0000 0.1308937643
H   H68       1.0  0.63840  0.93290  0.38470  1.0000 0.1308937643
H   H69       1.0  0.43290  0.13840  0.88470  1.0000 0.1308937643
H   H70       1.0  0.06710  0.63840  0.61530  1.0000 0.1308937643
H   H71       1.0  0.93290  0.36160  0.61530  1.0000 0.1308937643
H   H72       1.0  0.13840  0.43290  0.61530  1.0000 0.1308937643
H   H73       1.0  0.56710  0.86160  0.88470  1.0000 0.1308937643
H   H74       1.0  0.36160  0.93290  0.88470  1.0000 0.1308937643
H   H75       1.0  0.63840  0.06710  0.88470  1.0000 0.1308937643
H   H76       1.0  0.86160  0.56710  0.61530  1.0000 0.1308937643
H   H77       1.0  0.06710  0.36160  0.11530  1.0000 0.1308937643
H   H78       1.0  0.43290  0.86160  0.38470  1.0000 0.1308937643
H   H79       1.0  0.56710  0.13840  0.38470  1.0000 0.1308937643
H   H80       1.0  0.36160  0.06710  0.38470  1.0000 0.1308937643
H   H81       1.0  0.94260  0.57220  0.97820  1.0000 0.1204870403
H   H82       1.0  0.07220  0.55740  0.97820  1.0000 0.1204870403
H   H83       1.0  0.92780  0.44260  0.97820  1.0000 0.1204870403
H   H84       1.0  0.57220  0.94260  0.52180  1.0000 0.1204870403
H   H85       1.0  0.44260  0.07220  0.02180  1.0000 0.1204870403
H   H86       1.0  0.05740  0.57220  0.47820  1.0000 0.1204870403
H   H87       1.0  0.94260  0.42780  0.47820  1.0000 0.1204870403
H   H88       1.0  0.07220  0.44260  0.47820  1.0000 0.1204870403
H   H89       1.0  0.55740  0.92780  0.02180  1.0000 0.1204870403
H   H90       1.0  0.42780  0.94260  0.02180  1.0000 0.1204870403
H   H91       1.0  0.57220  0.05740  0.02180  1.0000 0.1204870403
H   H92       1.0  0.92780  0.55740  0.47820  1.0000 0.1204870403
H   H93       1.0  0.05740  0.42780  0.97820  1.0000 0.1204870403
H   H94       1.0  0.44260  0.92780  0.52180  1.0000 0.1204870403
H   H95       1.0  0.55740  0.07220  0.52180  1.0000 0.1204870403
H   H96       1.0  0.42780  0.05740  0.52180  1.0000 0.1204870403
H   H97       1.0  0.85980  0.57290  0.86410  1.0000 0.11144382
H   H98       1.0  0.07290  0.64020  0.86410  1.0000 0.11144382
H   H99       1.0  0.92710  0.35980  0.86410  1.0000 0.11144382
H   H100      1.0  0.57290  0.85980  0.63590  1.0000 0.11144382
H   H101      1.0  0.35980  0.07290  0.13590  1.0000 0.11144382
H   H102      1.0  0.14020  0.57290  0.36410  1.0000 0.11144382
H   H103      1.0  0.85980  0.42710  0.36410  1.0000 0.11144382
H   H104      1.0  0.07290  0.35980  0.36410  1.0000 0.11144382
H   H105      1.0  0.64020  0.92710  0.13590  1.0000 0.11144382
H   H106      1.0  0.42710  0.85980  0.13590  1.0000 0.11144382
H   H107      1.0  0.57290  0.14020  0.13590  1.0000 0.11144382
H   H108      1.0  0.92710  0.64020  0.36410  1.0000 0.11144382
H   H109      1.0  0.14020  0.42710  0.86410  1.0000 0.11144382
H   H110      1.0  0.35980  0.92710  0.63590  1.0000 0.11144382
H   H111      1.0  0.64020  0.07290  0.63590  1.0000 0.11144382
H   H112      1.0  0.42710  0.14020  0.63590  1.0000 0.11144382
H   H113      1.0  0.75390  0.69660  0.01880  1.0000 0.11144382
H   H114      1.0  0.19660  0.74610  0.01880  1.0000 0.11144382
H   H115      1.0  0.80340  0.25390  0.01880  1.0000 0.11144382
H   H116      1.0  0.69660  0.75390  0.48120  1.0000 0.11144382
H   H117      1.0  0.25390  0.19660  0.98120  1.0000 0.11144382
H   H118      1.0  0.24610  0.69660  0.51880  1.0000 0.11144382
H   H119      1.0  0.75390  0.30340  0.51880  1.0000 0.11144382
H   H120      1.0  0.19660  0.25390  0.51880  1.0000 0.11144382
H   H121      1.0  0.74610  0.80340  0.98120  1.0000 0.11144382
H   H122      1.0  0.30340  0.75390  0.98120  1.0000 0.11144382
H   H123      1.0  0.69660  0.24610  0.98120  1.0000 0.11144382
H   H124      1.0  0.80340  0.74610  0.51880  1.0000 0.11144382
H   H125      1.0  0.24610  0.30340  0.01880  1.0000 0.11144382
H   H126      1.0  0.25390  0.80340  0.48120  1.0000 0.11144382
H   H127      1.0  0.74610  0.19660  0.48120  1.0000 0.11144382
H   H128      1.0  0.30340  0.24610  0.48120  1.0000 0.11144382
C   C1        1.0  0.90430  0.84620  0.03510  1.0000 0.5478920165
C   C2        1.0  0.34620  0.59570  0.03510  1.0000 0.5478920165
C   C3        1.0  0.65380  0.40430  0.03510  1.0000 0.5478920165
C   C4        1.0  0.84620  0.90430  0.46490  1.0000 0.5478920165
C   C5        1.0  0.40430  0.34620  0.96490  1.0000 0.5478920165
C   C6        1.0  0.09570  0.84620  0.53510  1.0000 0.5478920165
C   C7        1.0  0.90430  0.15380  0.53510  1.0000 0.5478920165
C   C8        1.0  0.34620  0.40430  0.53510  1.0000 0.5478920165
C   C9        1.0  0.59570  0.65380  0.96490  1.0000 0.5478920165
C   C10       1.0  0.15380  0.90430  0.96490  1.0000 0.5478920165
C   C11       1.0  0.84620  0.09570  0.96490  1.0000 0.5478920165
C   C12       1.0  0.65380  0.59570  0.53510  1.0000 0.5478920165
C   C13       1.0  0.09570  0.15380  0.03510  1.0000 0.5478920165
C   C14       1.0  0.40430  0.65380  0.46490  1.0000 0.5478920165
C   C15       1.0  0.59570  0.34620  0.46490  1.0000 0.5478920165
C   C16       1.0  0.15380  0.09570  0.46490  1.0000 0.5478920165
C   C17       1.0  0.93170  0.81790  0.94230  1.0000 -0.053772819
C   C18       1.0  0.31790  0.56830  0.94230  1.0000 -0.053772819
C   C19       1.0  0.68210  0.43170  0.94230  1.0000 -0.053772819
C   C20       1.0  0.81790  0.93170  0.55770  1.0000 -0.053772819
C   C21       1.0  0.43170  0.31790  0.05770  1.0000 -0.053772819
C   C22       1.0  0.06830  0.81790  0.44230  1.0000 -0.053772819
C   C23       1.0  0.93170  0.18210  0.44230  1.0000 -0.053772819
C   C24       1.0  0.31790  0.43170  0.44230  1.0000 -0.053772819
C   C25       1.0  0.56830  0.68210  0.05770  1.0000 -0.053772819
C   C26       1.0  0.18210  0.93170  0.05770  1.0000 -0.053772819
C   C27       1.0  0.81790  0.06830  0.05770  1.0000 -0.053772819
C   C28       1.0  0.68210  0.56830  0.44230  1.0000 -0.053772819
C   C29       1.0  0.06830  0.18210  0.94230  1.0000 -0.053772819
C   C30       1.0  0.43170  0.68210  0.55770  1.0000 -0.053772819
C   C31       1.0  0.56830  0.31790  0.55770  1.0000 -0.053772819
C   C32       1.0  0.18210  0.06830  0.55770  1.0000 -0.053772819
C   C33       1.0  0.89030  0.79630  0.87000  1.0000 -0.0606350959
C   C34       1.0  0.29630  0.60970  0.87000  1.0000 -0.0606350959
C   C35       1.0  0.70370  0.39030  0.87000  1.0000 -0.0606350959
C   C36       1.0  0.79630  0.89030  0.63000  1.0000 -0.0606350959
C   C37       1.0  0.39030  0.29630  0.13000  1.0000 -0.0606350959
C   C38       1.0  0.10970  0.79630  0.37000  1.0000 -0.0606350959
C   C39       1.0  0.89030  0.20370  0.37000  1.0000 -0.0606350959
C   C40       1.0  0.29630  0.39030  0.37000  1.0000 -0.0606350959
C   C41       1.0  0.60970  0.70370  0.13000  1.0000 -0.0606350959
C   C42       1.0  0.20370  0.89030  0.13000  1.0000 -0.0606350959
C   C43       1.0  0.79630  0.10970  0.13000  1.0000 -0.0606350959
C   C44       1.0  0.70370  0.60970  0.37000  1.0000 -0.0606350959
C   C45       1.0  0.10970  0.20370  0.87000  1.0000 -0.0606350959
C   C46       1.0  0.39030  0.70370  0.63000  1.0000 -0.0606350959
C   C47       1.0  0.60970  0.29630  0.63000  1.0000 -0.0606350959
C   C48       1.0  0.20370  0.10970  0.63000  1.0000 -0.0606350959
C   C49       1.0  0.91800  0.77240  0.78880  1.0000 -0.1346803501
C   C50       1.0  0.27240  0.58200  0.78880  1.0000 -0.1346803501
C   C51       1.0  0.72760  0.41800  0.78880  1.0000 -0.1346803501
C   C52       1.0  0.77240  0.91800  0.71120  1.0000 -0.1346803501
C   C53       1.0  0.41800  0.27240  0.21120  1.0000 -0.1346803501
C   C54       1.0  0.08200  0.77240  0.28880  1.0000 -0.1346803501
C   C55       1.0  0.91800  0.22760  0.28880  1.0000 -0.1346803501
C   C56       1.0  0.27240  0.41800  0.28880  1.0000 -0.1346803501
C   C57       1.0  0.58200  0.72760  0.21120  1.0000 -0.1346803501
C   C58       1.0  0.22760  0.91800  0.21120  1.0000 -0.1346803501
C   C59       1.0  0.77240  0.08200  0.21120  1.0000 -0.1346803501
C   C60       1.0  0.72760  0.58200  0.28880  1.0000 -0.1346803501
C   C61       1.0  0.08200  0.22760  0.78880  1.0000 -0.1346803501
C   C62       1.0  0.41800  0.72760  0.71120  1.0000 -0.1346803501
C   C63       1.0  0.58200  0.27240  0.71120  1.0000 -0.1346803501
C   C64       1.0  0.22760  0.08200  0.71120  1.0000 -0.1346803501
C   C65       1.0  0.98680  0.76850  0.78070  1.0000 0.0927274368
C   C66       1.0  0.26850  0.51320  0.78070  1.0000 0.0927274368
C   C67       1.0  0.73150  0.48680  0.78070  1.0000 0.0927274368
C   C68       1.0  0.76850  0.98680  0.71930  1.0000 0.0927274368
C   C69       1.0  0.48680  0.26850  0.21930  1.0000 0.0927274368
C   C70       1.0  0.01320  0.76850  0.28070  1.0000 0.0927274368
C   C71       1.0  0.98680  0.23150  0.28070  1.0000 0.0927274368
C   C72       1.0  0.26850  0.48680  0.28070  1.0000 0.0927274368
C   C73       1.0  0.51320  0.73150  0.21930  1.0000 0.0927274368
C   C74       1.0  0.23150  0.98680  0.21930  1.0000 0.0927274368
C   C75       1.0  0.76850  0.01320  0.21930  1.0000 0.0927274368
C   C76       1.0  0.73150  0.51320  0.28070  1.0000 0.0927274368
C   C77       1.0  0.01320  0.23150  0.78070  1.0000 0.0927274368
C   C78       1.0  0.48680  0.73150  0.71930  1.0000 0.0927274368
C   C79       1.0  0.51320  0.26850  0.71930  1.0000 0.0927274368
C   C80       1.0  0.23150  0.01320  0.71930  1.0000 0.0927274368
C   C81       1.0  0.99910  0.81130  0.92980  1.0000 0.0433734366
C   C82       1.0  0.31130  0.50090  0.92980  1.0000 0.0433734366
C   C83       1.0  0.68870  0.49910  0.92980  1.0000 0.0433734366
C   C84       1.0  0.81130  0.99910  0.57020  1.0000 0.0433734366
C   C85       1.0  0.49910  0.31130  0.07020  1.0000 0.0433734366
C   C86       1.0  0.00090  0.81130  0.42980  1.0000 0.0433734366
C   C87       1.0  0.99910  0.18870  0.42980  1.0000 0.0433734366
C   C88       1.0  0.31130  0.49910  0.42980  1.0000 0.0433734366
C   C89       1.0  0.50090  0.68870  0.07020  1.0000 0.0433734366
C   C90       1.0  0.18870  0.99910  0.07020  1.0000 0.0433734366
C   C91       1.0  0.81130  0.00090  0.07020  1.0000 0.0433734366
C   C92       1.0  0.68870  0.50090  0.42980  1.0000 0.0433734366
C   C93       1.0  0.00090  0.18870  0.92980  1.0000 0.0433734366
C   C94       1.0  0.49910  0.68870  0.57020  1.0000 0.0433734366
C   C95       1.0  0.50090  0.31130  0.57020  1.0000 0.0433734366
C   C96       1.0  0.18870  0.00090  0.57020  1.0000 0.0433734366
C   C97       1.0  0.83206  0.72481  0.15950  1.0000 0.5723307852
C   C98       1.0  0.22481  0.66794  0.15950  1.0000 0.5723307852
C   C99       1.0  0.77519  0.33206  0.15950  1.0000 0.5723307852
C   C100      1.0  0.72481  0.83206  0.34050  1.0000 0.5723307852
C   C101      1.0  0.33206  0.22481  0.84050  1.0000 0.5723307852
C   C102      1.0  0.16794  0.72481  0.65950  1.0000 0.5723307852
C   C103      1.0  0.83206  0.27519  0.65950  1.0000 0.5723307852
C   C104      1.0  0.22481  0.33206  0.65950  1.0000 0.5723307852
C   C105      1.0  0.66794  0.77519  0.84050  1.0000 0.5723307852
C   C106      1.0  0.27519  0.83206  0.84050  1.0000 0.5723307852
C   C107      1.0  0.72481  0.16794  0.84050  1.0000 0.5723307852
C   C108      1.0  0.77519  0.66794  0.65950  1.0000 0.5723307852
C   C109      1.0  0.16794  0.27519  0.15950  1.0000 0.5723307852
C   C110      1.0  0.33206  0.77519  0.34050  1.0000 0.5723307852
C   C111      1.0  0.66794  0.22481  0.34050  1.0000 0.5723307852
C   C112      1.0  0.27519  0.16794  0.34050  1.0000 0.5723307852
C   C113      1.0  0.84200  0.67559  0.07930  1.0000 -0.0606350959
C   C114      1.0  0.17559  0.65800  0.07930  1.0000 -0.0606350959
C   C115      1.0  0.82441  0.34200  0.07930  1.0000 -0.0606350959
C   C116      1.0  0.67559  0.84200  0.42070  1.0000 -0.0606350959
C   C117      1.0  0.34200  0.17559  0.92070  1.0000 -0.0606350959
C   C118      1.0  0.15800  0.67559  0.57930  1.0000 -0.0606350959
C   C119      1.0  0.84200  0.32441  0.57930  1.0000 -0.0606350959
C   C120      1.0  0.17559  0.34200  0.57930  1.0000 -0.0606350959
C   C121      1.0  0.65800  0.82441  0.92070  1.0000 -0.0606350959
C   C122      1.0  0.32441  0.84200  0.92070  1.0000 -0.0606350959
C   C123      1.0  0.67559  0.15800  0.92070  1.0000 -0.0606350959
C   C124      1.0  0.82441  0.65800  0.57930  1.0000 -0.0606350959
C   C125      1.0  0.15800  0.32441  0.07930  1.0000 -0.0606350959
C   C126      1.0  0.34200  0.82441  0.42070  1.0000 -0.0606350959
C   C127      1.0  0.65800  0.17559  0.42070  1.0000 -0.0606350959
C   C128      1.0  0.32441  0.15800  0.42070  1.0000 -0.0606350959
C   C129      1.0  0.89860  0.63780  0.06860  1.0000 -0.053772819
C   C130      1.0  0.13780  0.60140  0.06860  1.0000 -0.053772819
C   C131      1.0  0.86220  0.39860  0.06860  1.0000 -0.053772819
C   C132      1.0  0.63780  0.89860  0.43140  1.0000 -0.053772819
C   C133      1.0  0.39860  0.13780  0.93140  1.0000 -0.053772819
C   C134      1.0  0.10140  0.63780  0.56860  1.0000 -0.053772819
C   C135      1.0  0.89860  0.36220  0.56860  1.0000 -0.053772819
C   C136      1.0  0.13780  0.39860  0.56860  1.0000 -0.053772819
C   C137      1.0  0.60140  0.86220  0.93140  1.0000 -0.053772819
C   C138      1.0  0.36220  0.89860  0.93140  1.0000 -0.053772819
C   C139      1.0  0.63780  0.10140  0.93140  1.0000 -0.053772819
C   C140      1.0  0.86220  0.60140  0.56860  1.0000 -0.053772819
C   C141      1.0  0.10140  0.36220  0.06860  1.0000 -0.053772819
C   C142      1.0  0.39860  0.86220  0.43140  1.0000 -0.053772819
C   C143      1.0  0.60140  0.13780  0.43140  1.0000 -0.053772819
C   C144      1.0  0.36220  0.10140  0.43140  1.0000 -0.053772819
C   C145      1.0  0.90400  0.59880  0.98760  1.0000 -0.1600700531
C   C146      1.0  0.09880  0.59600  0.98760  1.0000 -0.1600700531
C   C147      1.0  0.90120  0.40400  0.98760  1.0000 -0.1600700531
C   C148      1.0  0.59880  0.90400  0.51240  1.0000 -0.1600700531
C   C149      1.0  0.40400  0.09880  0.01240  1.0000 -0.1600700531
C   C150      1.0  0.09600  0.59880  0.48760  1.0000 -0.1600700531
C   C151      1.0  0.90400  0.40120  0.48760  1.0000 -0.1600700531
C   C152      1.0  0.09880  0.40400  0.48760  1.0000 -0.1600700531
C   C153      1.0  0.59600  0.90120  0.01240  1.0000 -0.1600700531
C   C154      1.0  0.40120  0.90400  0.01240  1.0000 -0.1600700531
C   C155      1.0  0.59880  0.09600  0.01240  1.0000 -0.1600700531
C   C156      1.0  0.90120  0.59600  0.48760  1.0000 -0.1600700531
C   C157      1.0  0.09600  0.40120  0.98760  1.0000 -0.1600700531
C   C158      1.0  0.40400  0.90120  0.51240  1.0000 -0.1600700531
C   C159      1.0  0.59600  0.09880  0.51240  1.0000 -0.1600700531
C   C160      1.0  0.40120  0.09600  0.51240  1.0000 -0.1600700531
C   C161      1.0  0.85410  0.59820  0.92080  1.0000 0.0734872331
C   C162      1.0  0.09820  0.64590  0.92080  1.0000 0.0734872331
C   C163      1.0  0.90180  0.35410  0.92080  1.0000 0.0734872331
C   C164      1.0  0.59820  0.85410  0.57920  1.0000 0.0734872331
C   C165      1.0  0.35410  0.09820  0.07920  1.0000 0.0734872331
C   C166      1.0  0.14590  0.59820  0.42080  1.0000 0.0734872331
C   C167      1.0  0.85410  0.40180  0.42080  1.0000 0.0734872331
C   C168      1.0  0.09820  0.35410  0.42080  1.0000 0.0734872331
C   C169      1.0  0.64590  0.90180  0.07920  1.0000 0.0734872331
C   C170      1.0  0.40180  0.85410  0.07920  1.0000 0.0734872331
C   C171      1.0  0.59820  0.14590  0.07920  1.0000 0.0734872331
C   C172      1.0  0.90180  0.64590  0.42080  1.0000 0.0734872331
C   C173      1.0  0.14590  0.40180  0.92080  1.0000 0.0734872331
C   C174      1.0  0.35410  0.90180  0.57920  1.0000 0.0734872331
C   C175      1.0  0.64590  0.09820  0.57920  1.0000 0.0734872331
C   C176      1.0  0.40180  0.14590  0.57920  1.0000 0.0734872331
C   C177      1.0  0.79311  0.67085  0.01060  1.0000 0.0764159632
C   C178      1.0  0.17085  0.70689  0.01060  1.0000 0.0764159632
C   C179      1.0  0.82915  0.29311  0.01060  1.0000 0.0764159632
C   C180      1.0  0.67085  0.79311  0.48940  1.0000 0.0764159632
C   C181      1.0  0.29311  0.17085  0.98940  1.0000 0.0764159632
C   C182      1.0  0.20689  0.67085  0.51060  1.0000 0.0764159632
C   C183      1.0  0.79311  0.32915  0.51060  1.0000 0.0764159632
C   C184      1.0  0.17085  0.29311  0.51060  1.0000 0.0764159632
C   C185      1.0  0.70689  0.82915  0.98940  1.0000 0.0764159632
C   C186      1.0  0.32915  0.79311  0.98940  1.0000 0.0764159632
C   C187      1.0  0.67085  0.20689  0.98940  1.0000 0.0764159632
C   C188      1.0  0.82915  0.70689  0.51060  1.0000 0.0764159632
C   C189      1.0  0.20689  0.32915  0.01060  1.0000 0.0764159632
C   C190      1.0  0.29311  0.82915  0.48940  1.0000 0.0764159632
C   C191      1.0  0.70689  0.17085  0.48940  1.0000 0.0764159632
C   C192      1.0  0.32915  0.20689  0.48940  1.0000 0.0764159632
N   N1        1.0  0.02730  0.78795  0.84990  1.0000 -0.2105019021
N   N2        1.0  0.28795  0.47270  0.84990  1.0000 -0.2105019021
N   N3        1.0  0.71205  0.52730  0.84990  1.0000 -0.2105019021
N   N4        1.0  0.78795  0.02730  0.65010  1.0000 -0.2105019021
N   N5        1.0  0.52730  0.28795  0.15010  1.0000 -0.2105019021
N   N6        1.0  0.97270  0.78795  0.34990  1.0000 -0.2105019021
N   N7        1.0  0.02730  0.21205  0.34990  1.0000 -0.2105019021
N   N8        1.0  0.28795  0.52730  0.34990  1.0000 -0.2105019021
N   N9        1.0  0.47270  0.71205  0.15010  1.0000 -0.2105019021
N   N10       1.0  0.21205  0.02730  0.15010  1.0000 -0.2105019021
N   N11       1.0  0.78795  0.97270  0.15010  1.0000 -0.2105019021
N   N12       1.0  0.71205  0.47270  0.34990  1.0000 -0.2105019021
N   N13       1.0  0.97270  0.21205  0.84990  1.0000 -0.2105019021
N   N14       1.0  0.52730  0.71205  0.65010  1.0000 -0.2105019021
N   N15       1.0  0.47270  0.28795  0.65010  1.0000 -0.2105019021
N   N16       1.0  0.21205  0.97270  0.65010  1.0000 -0.2105019021
N   N17       1.0  0.79734  0.63247  0.93350  1.0000 -0.2105019021
N   N18       1.0  0.13247  0.70266  0.93350  1.0000 -0.2105019021
N   N19       1.0  0.86753  0.29734  0.93350  1.0000 -0.2105019021
N   N20       1.0  0.63247  0.79734  0.56650  1.0000 -0.2105019021
N   N21       1.0  0.29734  0.13247  0.06650  1.0000 -0.2105019021
N   N22       1.0  0.20266  0.63247  0.43350  1.0000 -0.2105019021
N   N23       1.0  0.79734  0.36753  0.43350  1.0000 -0.2105019021
N   N24       1.0  0.13247  0.29734  0.43350  1.0000 -0.2105019021
N   N25       1.0  0.70266  0.86753  0.06650  1.0000 -0.2105019021
N   N26       1.0  0.36753  0.79734  0.06650  1.0000 -0.2105019021
N   N27       1.0  0.63247  0.20266  0.06650  1.0000 -0.2105019021
N   N28       1.0  0.86753  0.70266  0.43350  1.0000 -0.2105019021
N   N29       1.0  0.20266  0.36753  0.93350  1.0000 -0.2105019021
N   N30       1.0  0.29734  0.86753  0.56650  1.0000 -0.2105019021
N   N31       1.0  0.70266  0.13247  0.56650  1.0000 -0.2105019021
N   N32       1.0  0.36753  0.20266  0.56650  1.0000 -0.2105019021
O   O1        1.0  0.84473  0.85740  0.03994  1.0000 -0.520817722
O   O2        1.0  0.35740  0.65527  0.03994  1.0000 -0.520817722
O   O3        1.0  0.64260  0.34473  0.03994  1.0000 -0.520817722
O   O4        1.0  0.85740  0.84473  0.46006  1.0000 -0.520817722
O   O5        1.0  0.34473  0.35740  0.96006  1.0000 -0.520817722
O   O6        1.0  0.15527  0.85740  0.53994  1.0000 -0.520817722
O   O7        1.0  0.84473  0.14260  0.53994  1.0000 -0.520817722
O   O8        1.0  0.35740  0.34473  0.53994  1.0000 -0.520817722
O   O9        1.0  0.65527  0.64260  0.96006  1.0000 -0.520817722
O   O10       1.0  0.14260  0.84473  0.96006  1.0000 -0.520817722
O   O11       1.0  0.85740  0.15527  0.96006  1.0000 -0.520817722
O   O12       1.0  0.64260  0.65527  0.53994  1.0000 -0.520817722
O   O13       1.0  0.15527  0.14260  0.03994  1.0000 -0.520817722
O   O14       1.0  0.34473  0.64260  0.46006  1.0000 -0.520817722
O   O15       1.0  0.65527  0.35740  0.46006  1.0000 -0.520817722
O   O16       1.0  0.14260  0.15527  0.46006  1.0000 -0.520817722
O   O17       1.0  0.94520  0.85510  0.10340  1.0000 -0.5006397374
O   O18       1.0  0.35510  0.55480  0.10340  1.0000 -0.5006397374
O   O19       1.0  0.64490  0.44520  0.10340  1.0000 -0.5006397374
O   O20       1.0  0.85510  0.94520  0.39660  1.0000 -0.5006397374
O   O21       1.0  0.44520  0.35510  0.89660  1.0000 -0.5006397374
O   O22       1.0  0.05480  0.85510  0.60340  1.0000 -0.5006397374
O   O23       1.0  0.94520  0.14490  0.60340  1.0000 -0.5006397374
O   O24       1.0  0.35510  0.44520  0.60340  1.0000 -0.5006397374
O   O25       1.0  0.55480  0.64490  0.89660  1.0000 -0.5006397374
O   O26       1.0  0.14490  0.94520  0.89660  1.0000 -0.5006397374
O   O27       1.0  0.85510  0.05480  0.89660  1.0000 -0.5006397374
O   O28       1.0  0.64490  0.55480  0.60340  1.0000 -0.5006397374
O   O29       1.0  0.05480  0.14490  0.10340  1.0000 -0.5006397374
O   O30       1.0  0.44520  0.64490  0.39660  1.0000 -0.5006397374
O   O31       1.0  0.55480  0.35510  0.39660  1.0000 -0.5006397374
O   O32       1.0  0.14490  0.05480  0.39660  1.0000 -0.5006397374
O   O33       1.0  0.78415  0.76460  0.15108  1.0000 -0.5273686897
O   O34       1.0  0.26460  0.71585  0.15108  1.0000 -0.5273686897
O   O35       1.0  0.73540  0.28415  0.15108  1.0000 -0.5273686897
O   O36       1.0  0.76460  0.78415  0.34892  1.0000 -0.5273686897
O   O37       1.0  0.28415  0.26460  0.84892  1.0000 -0.5273686897
O   O38       1.0  0.21585  0.76460  0.65108  1.0000 -0.5273686897
O   O39       1.0  0.78415  0.23540  0.65108  1.0000 -0.5273686897
O   O40       1.0  0.26460  0.28415  0.65108  1.0000 -0.5273686897
O   O41       1.0  0.71585  0.73540  0.84892  1.0000 -0.5273686897
O   O42       1.0  0.23540  0.78415  0.84892  1.0000 -0.5273686897
O   O43       1.0  0.76460  0.21585  0.84892  1.0000 -0.5273686897
O   O44       1.0  0.73540  0.71585  0.65108  1.0000 -0.5273686897
O   O45       1.0  0.21585  0.23540  0.15108  1.0000 -0.5273686897
O   O46       1.0  0.28415  0.73540  0.34892  1.0000 -0.5273686897
O   O47       1.0  0.71585  0.26460  0.34892  1.0000 -0.5273686897
O   O48       1.0  0.23540  0.21585  0.34892  1.0000 -0.5273686897
O   O49       1.0  0.87399  0.72292  0.22676  1.0000 -0.5360763844
O   O50       1.0  0.22292  0.62601  0.22676  1.0000 -0.5360763844
O   O51       1.0  0.77708  0.37399  0.22676  1.0000 -0.5360763844
O   O52       1.0  0.72292  0.87399  0.27324  1.0000 -0.5360763844
O   O53       1.0  0.37399  0.22292  0.77324  1.0000 -0.5360763844
O   O54       1.0  0.12601  0.72292  0.72676  1.0000 -0.5360763844
O   O55       1.0  0.87399  0.27708  0.72676  1.0000 -0.5360763844
O   O56       1.0  0.22292  0.37399  0.72676  1.0000 -0.5360763844
O   O57       1.0  0.62601  0.77708  0.77324  1.0000 -0.5360763844
O   O58       1.0  0.27708  0.87399  0.77324  1.0000 -0.5360763844
O   O59       1.0  0.72292  0.12601  0.77324  1.0000 -0.5360763844
O   O60       1.0  0.77708  0.62601  0.72676  1.0000 -0.5360763844
O   O61       1.0  0.12601  0.27708  0.22676  1.0000 -0.5360763844
O   O62       1.0  0.37399  0.77708  0.27324  1.0000 -0.5360763844
O   O63       1.0  0.62601  0.22292  0.27324  1.0000 -0.5360763844
O   O64       1.0  0.27708  0.12601  0.27324  1.0000 -0.5360763844
O   O65       1.0  0.86740  0.86740  0.25000  1.0000 -0.3233175214
O   O66       1.0  0.36740  0.63260  0.25000  1.0000 -0.3255051251
O   O67       1.0  0.63260  0.36740  0.25000  1.0000 -0.3233175214
O   O68       1.0  0.36740  0.36740  0.75000  1.0000 -0.3255051251
O   O69       1.0  0.13260  0.86740  0.75000  1.0000 -0.3233175214
O   O70       1.0  0.86740  0.13260  0.75000  1.0000 -0.3233175214
O   O71       1.0  0.63260  0.63260  0.75000  1.0000 -0.3255051251
O   O72       1.0  0.13260  0.13260  0.25000  1.0000 -0.3233175214
