# DDEC6 charges by PACMAN v1.1 (https://github.com/mtap-research/PACMAN-charge/)
data_2001[Zn][dia]3[ASR]1
_chemical_formula_sum              "Zn8 H100 C144 N12 O28"
_cell_length_a       22.0278
_cell_length_b       6.7802
_cell_length_c       24.3992
_cell_angle_alpha    90
_cell_angle_beta     105.096
_cell_angle_gamma    90

_symmetry_space_group_name_H-M    "P 1"
_symmetry_Int_Tables_number       1

loop_
  _symmetry_equiv_pos_as_xyz
  'x, y, z'

loop_
  _atom_site_type_symbol
  _atom_site_label
  _atom_site_symmetry_multiplicity
  _atom_site_fract_x
  _atom_site_fract_y
  _atom_site_fract_z
  _atom_site_occupancy
  _atom_site_charge
Zn  Zn1       1.0  0.76124  0.52972  0.56330  1.0000 0.8150926096
Zn  Zn2       1.0  0.76124  0.97028  0.06330  1.0000 0.8150926096
Zn  Zn3       1.0  0.23876  0.47028  0.43670  1.0000 0.8150926096
Zn  Zn4       1.0  0.23876  0.02972  0.93670  1.0000 0.8132664425
Zn  Zn5       1.0  0.73508  0.52504  0.41829  1.0000 0.7376734776
Zn  Zn6       1.0  0.73508  0.97496  0.91829  1.0000 0.7376734776
Zn  Zn7       1.0  0.26492  0.47496  0.58171  1.0000 0.7376734776
Zn  Zn8       1.0  0.26492  0.02504  0.08171  1.0000 0.7376734776
H   H1        1.0  0.59690  0.30910  0.60750  1.0000 0.1197565511
H   H2        1.0  0.59690  0.19090  0.10750  1.0000 0.1197565511
H   H3        1.0  0.40310  0.69090  0.39250  1.0000 0.1197565511
H   H4        1.0  0.40310  0.80910  0.89250  1.0000 0.1197565511
H   H5        1.0  0.63300  0.84590  0.51620  1.0000 0.1197565511
H   H6        1.0  0.63300  0.65410  0.01620  1.0000 0.1197565511
H   H7        1.0  0.36700  0.15410  0.48380  1.0000 0.1197565511
H   H8        1.0  0.36700  0.34590  0.98380  1.0000 0.1197565511
H   H9        1.0  0.90480  0.08490  0.60100  1.0000 0.1197565511
H   H10       1.0  0.90480  0.41510  0.10100  1.0000 0.1197565511
H   H11       1.0  0.09520  0.91510  0.39900  1.0000 0.1197565511
H   H12       1.0  0.09520  0.58490  0.89900  1.0000 0.1197565511
H   H13       1.0  0.99940  0.53670  0.55710  1.0000 0.1090015973
H   H14       1.0  0.99940  0.96330  0.05710  1.0000 0.1090015973
H   H15       1.0  0.00060  0.46330  0.44290  1.0000 0.1090015973
H   H16       1.0  0.00060  0.03670  0.94290  1.0000 0.1090015973
H   H17       1.0  0.80820  0.59150  0.80390  1.0000 0.1197565511
H   H18       1.0  0.80820  0.90850  0.30390  1.0000 0.1197565511
H   H19       1.0  0.19180  0.40850  0.19610  1.0000 0.1197565511
H   H20       1.0  0.19180  0.09150  0.69610  1.0000 0.1197565511
H   H21       1.0  0.69120  0.61490  0.65260  1.0000 0.1090015973
H   H22       1.0  0.69120  0.88510  0.15260  1.0000 0.1090015973
H   H23       1.0  0.30880  0.38510  0.34740  1.0000 0.1090015973
H   H24       1.0  0.30880  0.11490  0.84740  1.0000 0.1090015973
H   H25       1.0  0.67780  0.86870  0.71020  1.0000 0.1316364656
H   H26       1.0  0.67780  0.63130  0.21020  1.0000 0.1316364656
H   H27       1.0  0.32220  0.13130  0.28980  1.0000 0.1316364656
H   H28       1.0  0.32220  0.36870  0.78980  1.0000 0.1316364656
H   H29       1.0  0.82350  0.32970  0.74830  1.0000 0.1197565511
H   H30       1.0  0.82350  0.17030  0.24830  1.0000 0.1197565511
H   H31       1.0  0.17650  0.67030  0.25170  1.0000 0.1197565511
H   H32       1.0  0.17650  0.82970  0.75170  1.0000 0.1197565511
H   H33       1.0  0.63920  0.17370  0.72060  1.0000 0.1197565511
H   H34       1.0  0.63920  0.32630  0.22060  1.0000 0.1197565511
H   H35       1.0  0.36080  0.82630  0.27940  1.0000 0.1197565511
H   H36       1.0  0.36080  0.67370  0.77940  1.0000 0.1197565511
H   H37       1.0  0.82340  0.91310  0.60650  1.0000 0.1197565511
H   H38       1.0  0.82340  0.58690  0.10650  1.0000 0.1197565511
H   H39       1.0  0.17660  0.08690  0.39350  1.0000 0.1197565511
H   H40       1.0  0.17660  0.41310  0.89350  1.0000 0.1197565511
H   H41       1.0  0.62470  0.43970  0.77530  1.0000 0.1197565511
H   H42       1.0  0.62470  0.06030  0.27530  1.0000 0.1197565511
H   H43       1.0  0.37530  0.56030  0.22470  1.0000 0.1197565511
H   H44       1.0  0.37530  0.93970  0.72470  1.0000 0.1197565511
H   H45       1.0  0.81280  0.17260  0.66240  1.0000 0.1379932774
H   H46       1.0  0.81280  0.32740  0.16240  1.0000 0.1379932774
H   H47       1.0  0.18720  0.82740  0.33760  1.0000 0.1379932774
H   H48       1.0  0.18720  0.67260  0.83760  1.0000 0.1379932774
H   H49       1.0  0.13270  0.08010  0.51870  1.0000 0.1499485684
H   H50       1.0  0.13270  0.41990  0.01870  1.0000 0.1499485684
H   H51       1.0  0.86730  0.91990  0.48130  1.0000 0.1499485684
H   H52       1.0  0.86730  0.58010  0.98130  1.0000 0.1499485684
H   H53       1.0  0.08280  0.75260  0.63900  1.0000 0.1316364656
H   H54       1.0  0.08280  0.74740  0.13900  1.0000 0.1316364656
H   H55       1.0  0.91720  0.24740  0.36100  1.0000 0.1316364656
H   H56       1.0  0.91720  0.25260  0.86100  1.0000 0.1316364656
H   H57       1.0  0.16650  0.54510  0.63950  1.0000 0.1090015973
H   H58       1.0  0.16650  0.95490  0.13950  1.0000 0.1090015973
H   H59       1.0  0.83350  0.45490  0.36050  1.0000 0.1090015973
H   H60       1.0  0.83350  0.04510  0.86050  1.0000 0.1090015973
H   H61       1.0  0.98870  0.87690  0.60420  1.0000 0.1197565511
H   H62       1.0  0.98870  0.62310  0.10420  1.0000 0.1197565511
H   H63       1.0  0.01130  0.12310  0.39580  1.0000 0.1197565511
H   H64       1.0  0.01130  0.37690  0.89580  1.0000 0.1197565511
H   H65       1.0  0.21190  0.85860  0.52080  1.0000 0.1197565511
H   H66       1.0  0.21190  0.64140  0.02080  1.0000 0.1197565511
H   H67       1.0  0.78810  0.14140  0.47920  1.0000 0.1197565511
H   H68       1.0  0.78810  0.35860  0.97920  1.0000 0.1197565511
H   H69       1.0  0.08140  0.32580  0.55410  1.0000 0.1197565511
H   H70       1.0  0.08140  0.17420  0.05410  1.0000 0.1197565511
H   H71       1.0  0.91860  0.67420  0.44590  1.0000 0.1197565511
H   H72       1.0  0.91860  0.82580  0.94590  1.0000 0.1197565511
H   H73       1.0  0.41790  0.03420  0.60660  1.0000 0.1379932774
H   H74       1.0  0.41790  0.46580  0.10660  1.0000 0.1379932774
H   H75       1.0  0.58210  0.96580  0.39340  1.0000 0.1379932774
H   H76       1.0  0.58210  0.53420  0.89340  1.0000 0.1379932774
H   H77       1.0  0.32590  0.87880  0.60810  1.0000 0.1090015973
H   H78       1.0  0.32590  0.62120  0.10810  1.0000 0.1090015973
H   H79       1.0  0.67410  0.12120  0.39190  1.0000 0.1090015973
H   H80       1.0  0.67410  0.37880  0.89190  1.0000 0.1090015973
H   H81       1.0  0.54810  0.67970  0.53250  1.0000 0.1090015973
H   H82       1.0  0.54810  0.82030  0.03250  1.0000 0.1090015973
H   H83       1.0  0.45190  0.32030  0.46750  1.0000 0.1090015973
H   H84       1.0  0.45190  0.17970  0.96750  1.0000 0.1090015973
H   H85       1.0  0.51240  0.14060  0.62430  1.0000 0.1197565511
H   H86       1.0  0.51240  0.35940  0.12430  1.0000 0.1197565511
H   H87       1.0  0.48760  0.85940  0.37570  1.0000 0.1197565511
H   H88       1.0  0.48760  0.64060  0.87570  1.0000 0.1197565511
H   H89       1.0  0.38880  0.37130  0.56990  1.0000 0.1090015973
H   H90       1.0  0.38880  0.12870  0.06990  1.0000 0.1090015973
H   H91       1.0  0.61120  0.62870  0.43010  1.0000 0.1090015973
H   H92       1.0  0.61120  0.87130  0.93010  1.0000 0.1090015973
H   H93       1.0  0.48490  0.51190  0.56840  1.0000 0.1197565511
H   H94       1.0  0.48490  0.98810  0.06840  1.0000 0.1197565511
H   H95       1.0  0.51510  0.48810  0.43160  1.0000 0.1197565511
H   H96       1.0  0.51510  0.01190  0.93160  1.0000 0.1197565511
H   H97       1.0  0.78100  0.54000  0.49500  1.0000 0.2096075503
H   H98       1.0  0.78100  0.96000  0.99500  1.0000 0.2096075503
H   H99       1.0  0.21900  0.46000  0.50500  1.0000 0.2096075503
H   H100      1.0  0.21900  0.04000  0.00500  1.0000 0.2096075503
C   C1        1.0  0.88790  0.46630  0.57510  1.0000 0.5424788756
C   C2        1.0  0.88790  0.03370  0.07510  1.0000 0.5424788756
C   C3        1.0  0.11210  0.53370  0.42490  1.0000 0.5424788756
C   C4        1.0  0.11210  0.96630  0.92490  1.0000 0.5424788756
C   C5        1.0  0.62340  0.09630  0.55990  1.0000 -0.0262601699
C   C6        1.0  0.62340  0.40370  0.05990  1.0000 -0.0262601699
C   C7        1.0  0.37660  0.90370  0.44010  1.0000 -0.0262601699
C   C8        1.0  0.37660  0.59630  0.94010  1.0000 -0.0262601699
C   C9        1.0  0.67860  0.20340  0.54830  1.0000 0.5495146526
C   C10       1.0  0.67860  0.29660  0.04830  1.0000 0.5495146526
C   C11       1.0  0.32140  0.79660  0.45170  1.0000 0.5495146526
C   C12       1.0  0.32140  0.70340  0.95170  1.0000 0.5495146526
C   C13       1.0  0.58700  0.18090  0.59210  1.0000 -0.1196354205
C   C14       1.0  0.58700  0.31910  0.09210  1.0000 -0.1196354205
C   C15       1.0  0.41300  0.81910  0.40790  1.0000 -0.1196354205
C   C16       1.0  0.41300  0.68090  0.90790  1.0000 -0.1196354205
C   C17       1.0  0.60810  0.90680  0.53800  1.0000 -0.0974235373
C   C18       1.0  0.60810  0.59320  0.03800  1.0000 -0.0974235373
C   C19       1.0  0.39190  0.09320  0.46200  1.0000 -0.0974235373
C   C20       1.0  0.39190  0.40680  0.96200  1.0000 -0.0974235373
C   C21       1.0  0.94310  0.33230  0.57810  1.0000 -0.0231643717
C   C22       1.0  0.94310  0.16770  0.07810  1.0000 -0.0231643717
C   C23       1.0  0.05690  0.66770  0.42190  1.0000 -0.0231643717
C   C24       1.0  0.05690  0.83230  0.92190  1.0000 -0.0231643717
C   C25       1.0  0.70540  0.70080  0.83460  1.0000 0.5424788756
C   C26       1.0  0.70540  0.79920  0.33460  1.0000 0.5424788756
C   C27       1.0  0.29460  0.29920  0.16540  1.0000 0.5424788756
C   C28       1.0  0.29460  0.20080  0.66540  1.0000 0.5424788756
C   C29       1.0  0.94130  0.13550  0.59200  1.0000 -0.0938376828
C   C30       1.0  0.94130  0.36450  0.09200  1.0000 -0.0938376828
C   C31       1.0  0.05870  0.86450  0.40800  1.0000 -0.0938376828
C   C32       1.0  0.05870  0.63550  0.90800  1.0000 -0.0938376828
C   C33       1.0  0.99630  0.40080  0.56550  1.0000 -0.1090334368
C   C34       1.0  0.99630  0.09920  0.06550  1.0000 -0.1090334368
C   C35       1.0  0.00370  0.59920  0.43450  1.0000 -0.1090334368
C   C36       1.0  0.00370  0.90080  0.93450  1.0000 -0.1090334368
C   C37       1.0  0.71520  0.53870  0.79600  1.0000 -0.0361540268
C   C38       1.0  0.71520  0.96130  0.29600  1.0000 -0.0361540268
C   C39       1.0  0.28480  0.46130  0.20400  1.0000 -0.0361540268
C   C40       1.0  0.28480  0.03870  0.70400  1.0000 -0.0361540268
C   C41       1.0  0.77410  0.50650  0.78710  1.0000 -0.1090334368
C   C42       1.0  0.77410  0.99350  0.28710  1.0000 -0.1090334368
C   C43       1.0  0.22590  0.49350  0.21290  1.0000 -0.1090334368
C   C44       1.0  0.22590  0.00650  0.71290  1.0000 -0.1090334368
C   C45       1.0  0.74300  0.05220  0.69250  1.0000 0.1197565511
C   C46       1.0  0.74300  0.44780  0.19250  1.0000 0.1197565511
C   C47       1.0  0.25700  0.94780  0.30750  1.0000 0.1197565511
C   C48       1.0  0.25700  0.55220  0.80750  1.0000 0.1197565511
C   C49       1.0  0.71600  0.73070  0.65430  1.0000 0.0982600277
C   C50       1.0  0.71600  0.76930  0.15430  1.0000 0.0982600277
C   C51       1.0  0.28400  0.26930  0.34570  1.0000 0.0982600277
C   C52       1.0  0.28400  0.23070  0.84570  1.0000 0.0982600277
C   C53       1.0  0.70780  0.88120  0.68870  1.0000 -0.1882028716
C   C54       1.0  0.70780  0.61880  0.18870  1.0000 -0.1882028716
C   C55       1.0  0.29220  0.11880  0.31130  1.0000 -0.1882028716
C   C56       1.0  0.29220  0.38120  0.81130  1.0000 -0.1882028716
C   C57       1.0  0.73310  0.22180  0.72770  1.0000 0.0679054869
C   C58       1.0  0.73310  0.27820  0.22770  1.0000 0.0679054869
C   C59       1.0  0.26690  0.77820  0.27230  1.0000 0.0679054869
C   C60       1.0  0.26690  0.72180  0.77230  1.0000 0.0679054869
C   C61       1.0  0.78300  0.35120  0.75390  1.0000 -0.1477752874
C   C62       1.0  0.78300  0.14880  0.25390  1.0000 -0.1477752874
C   C63       1.0  0.21700  0.64880  0.24610  1.0000 -0.1477752874
C   C64       1.0  0.21700  0.85120  0.74610  1.0000 -0.1477752874
C   C65       1.0  0.67350  0.25780  0.73710  1.0000 -0.1477752874
C   C66       1.0  0.67350  0.24220  0.23710  1.0000 -0.1477752874
C   C67       1.0  0.32650  0.74220  0.26290  1.0000 -0.1477752874
C   C68       1.0  0.32650  0.75780  0.76290  1.0000 -0.1477752874
C   C69       1.0  0.79290  0.90520  0.62760  1.0000 0.0891155799
C   C70       1.0  0.79290  0.59480  0.12760  1.0000 0.0891155799
C   C71       1.0  0.20710  0.09480  0.37240  1.0000 0.0891155799
C   C72       1.0  0.20710  0.40520  0.87240  1.0000 0.0891155799
C   C73       1.0  0.66530  0.41480  0.77000  1.0000 -0.1090334368
C   C74       1.0  0.66530  0.08520  0.27000  1.0000 -0.1090334368
C   C75       1.0  0.33470  0.58520  0.23000  1.0000 -0.1090334368
C   C76       1.0  0.33470  0.91480  0.73000  1.0000 -0.1090334368
C   C77       1.0  0.78700  0.05930  0.66080  1.0000 -0.1697423421
C   C78       1.0  0.78700  0.44070  0.16080  1.0000 -0.1697423421
C   C79       1.0  0.21300  0.94070  0.33920  1.0000 -0.1697423421
C   C80       1.0  0.21300  0.55930  0.83920  1.0000 -0.1697423421
C   C81       1.0  0.09710  0.94360  0.57880  1.0000 0.1316364656
C   C82       1.0  0.09710  0.55640  0.07880  1.0000 0.1316364656
C   C83       1.0  0.90290  0.05640  0.42120  1.0000 0.1316364656
C   C84       1.0  0.90290  0.44360  0.92120  1.0000 0.1316364656
C   C85       1.0  0.13800  0.97020  0.54360  1.0000 -0.1697423421
C   C86       1.0  0.13800  0.52980  0.04360  1.0000 -0.1697423421
C   C87       1.0  0.86200  0.02980  0.45640  1.0000 -0.1697423421
C   C88       1.0  0.86200  0.47020  0.95640  1.0000 -0.1697423421
C   C89       1.0  0.10890  0.77910  0.61450  1.0000 -0.2027021671
C   C90       1.0  0.10890  0.72090  0.11450  1.0000 -0.2027021671
C   C91       1.0  0.89110  0.22090  0.38550  1.0000 -0.2027021671
C   C92       1.0  0.89110  0.27910  0.88550  1.0000 -0.2027021671
C   C93       1.0  0.15890  0.65410  0.61420  1.0000 0.0891155799
C   C94       1.0  0.15890  0.84590  0.11420  1.0000 0.0891155799
C   C95       1.0  0.84110  0.34590  0.38580  1.0000 0.0891155799
C   C96       1.0  0.84110  0.15410  0.88580  1.0000 0.0891155799
C   C97       1.0  0.04420  0.07880  0.57860  1.0000 0.0632077859
C   C98       1.0  0.04420  0.42120  0.07860  1.0000 0.0632077859
C   C99       1.0  0.95580  0.92120  0.42140  1.0000 0.0632077859
C   C100      1.0  0.95580  0.57880  0.92140  1.0000 0.0632077859
C   C101      1.0  0.99090  0.01060  0.59330  1.0000 -0.1334770756
C   C102      1.0  0.99090  0.48940  0.09330  1.0000 -0.1334770756
C   C103      1.0  0.00910  0.98940  0.40670  1.0000 -0.1334770756
C   C104      1.0  0.00910  0.51060  0.90670  1.0000 -0.1334770756
C   C105      1.0  0.18550  0.83770  0.54540  1.0000 0.0818305549
C   C106      1.0  0.18550  0.66230  0.04540  1.0000 0.0818305549
C   C107      1.0  0.81450  0.16230  0.45460  1.0000 0.0818305549
C   C108      1.0  0.81450  0.33770  0.95460  1.0000 0.0818305549
C   C109      1.0  0.04580  0.27530  0.56460  1.0000 -0.1431624579
C   C110      1.0  0.04580  0.22470  0.06460  1.0000 -0.1431624579
C   C111      1.0  0.95420  0.72470  0.43540  1.0000 -0.1431624579
C   C112      1.0  0.95420  0.77530  0.93540  1.0000 -0.1431624579
C   C113      1.0  0.41340  0.89700  0.59870  1.0000 -0.1697423421
C   C114      1.0  0.41340  0.60300  0.09870  1.0000 -0.1697423421
C   C115      1.0  0.58660  0.10300  0.40130  1.0000 -0.1697423421
C   C116      1.0  0.58660  0.39700  0.90130  1.0000 -0.1697423421
C   C117      1.0  0.46280  0.79250  0.58580  1.0000 0.1197565511
C   C118      1.0  0.46280  0.70750  0.08580  1.0000 0.1197565511
C   C119      1.0  0.53720  0.20750  0.41420  1.0000 0.1197565511
C   C120      1.0  0.53720  0.29250  0.91420  1.0000 0.1197565511
C   C121      1.0  0.35870  0.80310  0.59990  1.0000 0.0982600277
C   C122      1.0  0.35870  0.69690  0.09990  1.0000 0.0982600277
C   C123      1.0  0.64130  0.19690  0.40010  1.0000 0.0982600277
C   C124      1.0  0.64130  0.30310  0.90010  1.0000 0.0982600277
C   C125      1.0  0.51980  0.89290  0.57940  1.0000 0.0679054869
C   C126      1.0  0.51980  0.60710  0.07940  1.0000 0.0679054869
C   C127      1.0  0.48020  0.10710  0.42060  1.0000 0.0679054869
C   C128      1.0  0.48020  0.39290  0.92060  1.0000 0.0679054869
C   C129      1.0  0.55770  0.80840  0.54770  1.0000 -0.1431624579
C   C130      1.0  0.55770  0.69160  0.04770  1.0000 -0.1431624579
C   C131      1.0  0.44230  0.19160  0.45230  1.0000 -0.1431624579
C   C132      1.0  0.44230  0.30840  0.95230  1.0000 -0.1431624579
C   C133      1.0  0.53650  0.08050  0.60170  1.0000 -0.1574938657
C   C134      1.0  0.53650  0.41950  0.10170  1.0000 -0.1574938657
C   C135      1.0  0.46350  0.91950  0.39830  1.0000 -0.1574938657
C   C136      1.0  0.46350  0.58050  0.89830  1.0000 -0.1574938657
C   C137      1.0  0.39520  0.50800  0.57780  1.0000 0.1090015973
C   C138      1.0  0.39520  0.99200  0.07780  1.0000 0.1090015973
C   C139      1.0  0.60480  0.49200  0.42220  1.0000 0.1090015973
C   C140      1.0  0.60480  0.00800  0.92220  1.0000 0.1090015973
C   C141      1.0  0.45270  0.59210  0.57620  1.0000 -0.2085765588
C   C142      1.0  0.45270  0.90790  0.07620  1.0000 -0.2085765588
C   C143      1.0  0.54730  0.40790  0.42380  1.0000 -0.2085765588
C   C144      1.0  0.54730  0.09210  0.92380  1.0000 -0.2085765588
N   N1        1.0  0.75750  0.73990  0.62292  1.0000 -0.2271215307
N   N2        1.0  0.75750  0.76010  0.12292  1.0000 -0.2271215307
N   N3        1.0  0.24250  0.26010  0.37708  1.0000 -0.2271215307
N   N4        1.0  0.24250  0.23990  0.87708  1.0000 -0.2271215307
N   N5        1.0  0.19670  0.68060  0.57978  1.0000 -0.2518616903
N   N6        1.0  0.19670  0.81940  0.07978  1.0000 -0.2518616903
N   N7        1.0  0.80330  0.31940  0.42022  1.0000 -0.2518616903
N   N8        1.0  0.80330  0.18060  0.92022  1.0000 -0.2518616903
N   N9        1.0  0.34930  0.61080  0.59002  1.0000 -0.2085765588
N   N10       1.0  0.34930  0.88920  0.09002  1.0000 -0.2085765588
N   N11       1.0  0.65070  0.38920  0.40998  1.0000 -0.2085765588
N   N12       1.0  0.65070  0.11080  0.90998  1.0000 -0.2085765588
O   O1        1.0  0.68927  0.37340  0.57129  1.0000 -0.5697675931
O   O2        1.0  0.68927  0.12660  0.07129  1.0000 -0.5697675931
O   O3        1.0  0.31073  0.62660  0.42871  1.0000 -0.5697675931
O   O4        1.0  0.31073  0.87340  0.92871  1.0000 -0.5697675931
O   O5        1.0  0.83893  0.38100  0.58191  1.0000 -0.5502769488
O   O6        1.0  0.83893  0.11900  0.08191  1.0000 -0.5502769488
O   O7        1.0  0.16107  0.61900  0.41809  1.0000 -0.5502769488
O   O8        1.0  0.16107  0.88100  0.91809  1.0000 -0.5502769488
O   O9        1.0  0.74425  0.65850  0.48963  1.0000 -0.7574479419
O   O10       1.0  0.74425  0.84150  0.98963  1.0000 -0.7574479419
O   O11       1.0  0.25575  0.34150  0.51037  1.0000 -0.7574479419
O   O12       1.0  0.25575  0.15850  0.01037  1.0000 -0.7574479419
O   O13       1.0  0.75280  0.80090  0.86038  1.0000 -0.5322984296
O   O14       1.0  0.75280  0.69910  0.36038  1.0000 -0.5322984296
O   O15       1.0  0.24720  0.19910  0.13962  1.0000 -0.5322984296
O   O16       1.0  0.24720  0.30090  0.63962  1.0000 -0.5322984296
O   O17       1.0  0.71036  0.12330  0.51939  1.0000 -0.5322984296
O   O18       1.0  0.71036  0.37670  0.01939  1.0000 -0.5322984296
O   O19       1.0  0.28964  0.87670  0.48061  1.0000 -0.5322984296
O   O20       1.0  0.28964  0.62330  0.98061  1.0000 -0.5322984296
O   O21       1.0  0.65150  0.72800  0.84090  1.0000 -0.5560529965
O   O22       1.0  0.65150  0.77200  0.34090  1.0000 -0.5560529965
O   O23       1.0  0.34850  0.27200  0.15910  1.0000 -0.5560529965
O   O24       1.0  0.34850  0.22800  0.65910  1.0000 -0.5560529965
O   O25       1.0  0.89110  0.64380  0.56540  1.0000 -0.5413613009
O   O26       1.0  0.89110  0.85620  0.06540  1.0000 -0.5413613009
O   O27       1.0  0.10890  0.35620  0.43460  1.0000 -0.5413613009
O   O28       1.0  0.10890  0.14380  0.93460  1.0000 -0.5413613009
