# DDEC6 charges by PACMAN v1.1 (https://github.com/mtap-research/PACMAN-charge/)
data_2001[Tm][scu]3[ASR]1
_chemical_formula_sum              "Tm16 C96 O96"
_cell_length_a       18.443
_cell_length_b       18.443
_cell_length_c       10.374
_cell_angle_alpha    90
_cell_angle_beta     90
_cell_angle_gamma    90

_symmetry_space_group_name_H-M    "P 1"
_symmetry_Int_Tables_number       1

loop_
  _symmetry_equiv_pos_as_xyz
  'x, y, z'

loop_
  _atom_site_type_symbol
  _atom_site_label
  _atom_site_symmetry_multiplicity
  _atom_site_fract_x
  _atom_site_fract_y
  _atom_site_fract_z
  _atom_site_occupancy
  _atom_site_charge
Tm  Tm1       1.0  0.49543  0.27632  0.34775  1.0000 2.0698230622
Tm  Tm2       1.0  0.77632  0.00457  0.34775  1.0000 2.0698230622
Tm  Tm3       1.0  0.22368  0.99543  0.34775  1.0000 2.0698230622
Tm  Tm4       1.0  0.27632  0.49543  0.15225  1.0000 2.0698230622
Tm  Tm5       1.0  0.50457  0.72368  0.34775  1.0000 2.0698230622
Tm  Tm6       1.0  0.99543  0.22368  0.15225  1.0000 2.0698230622
Tm  Tm7       1.0  0.00457  0.77632  0.15225  1.0000 2.0698230622
Tm  Tm8       1.0  0.72368  0.50457  0.15225  1.0000 2.0698230622
Tm  Tm9       1.0  0.00457  0.22368  0.65225  1.0000 2.0698230622
Tm  Tm10      1.0  0.72368  0.49543  0.65225  1.0000 2.0698230622
Tm  Tm11      1.0  0.27632  0.50457  0.65225  1.0000 2.0698230622
Tm  Tm12      1.0  0.22368  0.00457  0.84775  1.0000 2.0698230622
Tm  Tm13      1.0  0.99543  0.77632  0.65225  1.0000 2.0698230622
Tm  Tm14      1.0  0.50457  0.27632  0.84775  1.0000 2.0698230622
Tm  Tm15      1.0  0.49543  0.72368  0.84775  1.0000 2.0698230622
Tm  Tm16      1.0  0.77632  0.99543  0.84775  1.0000 2.0698230622
C   C1        1.0  0.31090  0.22860  0.07180  1.0000 -0.0663123967
C   C2        1.0  0.72860  0.18910  0.07180  1.0000 -0.0663123967
C   C3        1.0  0.27140  0.81090  0.07180  1.0000 -0.0663123967
C   C4        1.0  0.22860  0.31090  0.42820  1.0000 -0.0663123967
C   C5        1.0  0.68910  0.77140  0.07180  1.0000 -0.0663123967
C   C6        1.0  0.81090  0.27140  0.42820  1.0000 -0.0663123967
C   C7        1.0  0.18910  0.72860  0.42820  1.0000 -0.0663123967
C   C8        1.0  0.77140  0.68910  0.42820  1.0000 -0.0663123967
C   C9        1.0  0.18910  0.27140  0.92820  1.0000 -0.0663123967
C   C10       1.0  0.77140  0.31090  0.92820  1.0000 -0.0663123967
C   C11       1.0  0.22860  0.68910  0.92820  1.0000 -0.0663123967
C   C12       1.0  0.27140  0.18910  0.57180  1.0000 -0.0663123967
C   C13       1.0  0.81090  0.72860  0.92820  1.0000 -0.0663123967
C   C14       1.0  0.68910  0.22860  0.57180  1.0000 -0.0663123967
C   C15       1.0  0.31090  0.77140  0.57180  1.0000 -0.0663123967
C   C16       1.0  0.72860  0.81090  0.57180  1.0000 -0.0663123967
C   C17       1.0  0.30750  0.29840  0.02030  1.0000 -0.0758692964
C   C18       1.0  0.79840  0.19250  0.02030  1.0000 -0.0758692964
C   C19       1.0  0.20160  0.80750  0.02030  1.0000 -0.0758692964
C   C20       1.0  0.29840  0.30750  0.47970  1.0000 -0.0758692964
C   C21       1.0  0.69250  0.70160  0.02030  1.0000 -0.0758692964
C   C22       1.0  0.80750  0.20160  0.47970  1.0000 -0.0758692964
C   C23       1.0  0.19250  0.79840  0.47970  1.0000 -0.0758692964
C   C24       1.0  0.70160  0.69250  0.47970  1.0000 -0.0758692964
C   C25       1.0  0.19250  0.20160  0.97970  1.0000 -0.0758692964
C   C26       1.0  0.70160  0.30750  0.97970  1.0000 -0.0758692964
C   C27       1.0  0.29840  0.69250  0.97970  1.0000 -0.0758692964
C   C28       1.0  0.20160  0.19250  0.52030  1.0000 -0.0758692964
C   C29       1.0  0.80750  0.79840  0.97970  1.0000 -0.0758692964
C   C30       1.0  0.69250  0.29840  0.52030  1.0000 -0.0758692964
C   C31       1.0  0.30750  0.70160  0.52030  1.0000 -0.0758692964
C   C32       1.0  0.79840  0.80750  0.52030  1.0000 -0.0758692964
C   C33       1.0  0.25410  0.17990  0.04930  1.0000 -0.0533323453
C   C34       1.0  0.67990  0.24590  0.04930  1.0000 -0.0533323453
C   C35       1.0  0.32010  0.75410  0.04930  1.0000 -0.0533323453
C   C36       1.0  0.17990  0.25410  0.45070  1.0000 -0.0533323453
C   C37       1.0  0.74590  0.82010  0.04930  1.0000 -0.0533323453
C   C38       1.0  0.75410  0.32010  0.45070  1.0000 -0.0533323453
C   C39       1.0  0.24590  0.67990  0.45070  1.0000 -0.0533323453
C   C40       1.0  0.82010  0.74590  0.45070  1.0000 -0.0533323453
C   C41       1.0  0.24590  0.32010  0.95070  1.0000 -0.0533323453
C   C42       1.0  0.82010  0.25410  0.95070  1.0000 -0.0533323453
C   C43       1.0  0.17990  0.74590  0.95070  1.0000 -0.0533323453
C   C44       1.0  0.32010  0.24590  0.54930  1.0000 -0.0533323453
C   C45       1.0  0.75410  0.67990  0.95070  1.0000 -0.0533323453
C   C46       1.0  0.74590  0.17990  0.54930  1.0000 -0.0533323453
C   C47       1.0  0.25410  0.82010  0.54930  1.0000 -0.0533323453
C   C48       1.0  0.67990  0.75410  0.54930  1.0000 -0.0533323453
C   C49       1.0  0.37160  0.20500  0.15990  1.0000 0.6327901578
C   C50       1.0  0.70500  0.12840  0.15990  1.0000 0.6327901578
C   C51       1.0  0.29500  0.87160  0.15990  1.0000 0.6327901578
C   C52       1.0  0.20500  0.37160  0.34010  1.0000 0.6327901578
C   C53       1.0  0.62840  0.79500  0.15990  1.0000 0.6327901578
C   C54       1.0  0.87160  0.29500  0.34010  1.0000 0.6327901578
C   C55       1.0  0.12840  0.70500  0.34010  1.0000 0.6327901578
C   C56       1.0  0.79500  0.62840  0.34010  1.0000 0.6327901578
C   C57       1.0  0.12840  0.29500  0.84010  1.0000 0.6327901578
C   C58       1.0  0.79500  0.37160  0.84010  1.0000 0.6327901578
C   C59       1.0  0.20500  0.62840  0.84010  1.0000 0.6327901578
C   C60       1.0  0.29500  0.12840  0.65990  1.0000 0.6327901578
C   C61       1.0  0.87160  0.70500  0.84010  1.0000 0.6327901578
C   C62       1.0  0.62840  0.20500  0.65990  1.0000 0.6327901578
C   C63       1.0  0.37160  0.79500  0.65990  1.0000 0.6327901578
C   C64       1.0  0.70500  0.87160  0.65990  1.0000 0.6327901578
C   C65       1.0  0.37030  0.35150  0.02780  1.0000 0.6931876151
C   C66       1.0  0.85150  0.12970  0.02780  1.0000 0.6931876151
C   C67       1.0  0.14850  0.87030  0.02780  1.0000 0.6931876151
C   C68       1.0  0.35150  0.37030  0.47220  1.0000 0.6931876151
C   C69       1.0  0.62970  0.64850  0.02780  1.0000 0.6931876151
C   C70       1.0  0.87030  0.14850  0.47220  1.0000 0.6931876151
C   C71       1.0  0.12970  0.85150  0.47220  1.0000 0.6931876151
C   C72       1.0  0.64850  0.62970  0.47220  1.0000 0.6931876151
C   C73       1.0  0.12970  0.14850  0.97220  1.0000 0.6931876151
C   C74       1.0  0.64850  0.37030  0.97220  1.0000 0.6931876151
C   C75       1.0  0.35150  0.62970  0.97220  1.0000 0.6931876151
C   C76       1.0  0.14850  0.12970  0.52780  1.0000 0.6931876151
C   C77       1.0  0.87030  0.85150  0.97220  1.0000 0.6931876151
C   C78       1.0  0.62970  0.35150  0.52780  1.0000 0.6931876151
C   C79       1.0  0.37030  0.64850  0.52780  1.0000 0.6931876151
C   C80       1.0  0.85150  0.87030  0.52780  1.0000 0.6931876151
C   C81       1.0  0.25460  0.10300  0.10130  1.0000 0.6747263132
C   C82       1.0  0.60300  0.24540  0.10130  1.0000 0.6747263132
C   C83       1.0  0.39700  0.75460  0.10130  1.0000 0.6747263132
C   C84       1.0  0.10300  0.25460  0.39870  1.0000 0.6747263132
C   C85       1.0  0.74540  0.89700  0.10130  1.0000 0.6747263132
C   C86       1.0  0.75460  0.39700  0.39870  1.0000 0.6747263132
C   C87       1.0  0.24540  0.60300  0.39870  1.0000 0.6747263132
C   C88       1.0  0.89700  0.74540  0.39870  1.0000 0.6747263132
C   C89       1.0  0.24540  0.39700  0.89870  1.0000 0.6747263132
C   C90       1.0  0.89700  0.25460  0.89870  1.0000 0.6747263132
C   C91       1.0  0.10300  0.74540  0.89870  1.0000 0.6747263132
C   C92       1.0  0.39700  0.24540  0.60130  1.0000 0.6747263132
C   C93       1.0  0.75460  0.60300  0.89870  1.0000 0.6747263132
C   C94       1.0  0.74540  0.10300  0.60130  1.0000 0.6747263132
C   C95       1.0  0.25460  0.89700  0.60130  1.0000 0.6747263132
C   C96       1.0  0.60300  0.75460  0.60130  1.0000 0.6747263132
O   O1        1.0  0.38350  0.13900  0.17640  1.0000 -0.4757753829
O   O2        1.0  0.63900  0.11650  0.17640  1.0000 -0.4757753829
O   O3        1.0  0.36100  0.88350  0.17640  1.0000 -0.4757753829
O   O4        1.0  0.13900  0.38350  0.32360  1.0000 -0.4757753829
O   O5        1.0  0.61650  0.86100  0.17640  1.0000 -0.4757753829
O   O6        1.0  0.88350  0.36100  0.32360  1.0000 -0.4757753829
O   O7        1.0  0.11650  0.63900  0.32360  1.0000 -0.4757753829
O   O8        1.0  0.86100  0.61650  0.32360  1.0000 -0.4757753829
O   O9        1.0  0.11650  0.36100  0.82360  1.0000 -0.4745932759
O   O10       1.0  0.86100  0.38350  0.82360  1.0000 -0.4757753829
O   O11       1.0  0.13900  0.61650  0.82360  1.0000 -0.4757753829
O   O12       1.0  0.36100  0.11650  0.67640  1.0000 -0.4745932759
O   O13       1.0  0.88350  0.63900  0.82360  1.0000 -0.4757753829
O   O14       1.0  0.61650  0.13900  0.67640  1.0000 -0.4757753829
O   O15       1.0  0.38350  0.86100  0.67640  1.0000 -0.4757753829
O   O16       1.0  0.63900  0.88350  0.67640  1.0000 -0.4757753829
O   O17       1.0  0.40600  0.25560  0.21550  1.0000 -0.7284772338
O   O18       1.0  0.75560  0.09400  0.21550  1.0000 -0.7284772338
O   O19       1.0  0.24440  0.90600  0.21550  1.0000 -0.7284772338
O   O20       1.0  0.25560  0.40600  0.28450  1.0000 -0.7284772338
O   O21       1.0  0.59400  0.74440  0.21550  1.0000 -0.7284772338
O   O22       1.0  0.90600  0.24440  0.28450  1.0000 -0.7284772338
O   O23       1.0  0.09400  0.75560  0.28450  1.0000 -0.7284772338
O   O24       1.0  0.74440  0.59400  0.28450  1.0000 -0.7284772338
O   O25       1.0  0.09400  0.24440  0.78450  1.0000 -0.7284772338
O   O26       1.0  0.74440  0.40600  0.78450  1.0000 -0.7284772338
O   O27       1.0  0.25560  0.59400  0.78450  1.0000 -0.7284772338
O   O28       1.0  0.24440  0.09400  0.71550  1.0000 -0.7284772338
O   O29       1.0  0.90600  0.75560  0.78450  1.0000 -0.7284772338
O   O30       1.0  0.59400  0.25560  0.71550  1.0000 -0.7284772338
O   O31       1.0  0.40600  0.74440  0.71550  1.0000 -0.7284772338
O   O32       1.0  0.75560  0.90600  0.71550  1.0000 -0.7284772338
O   O33       1.0  0.36005  0.41299  0.07320  1.0000 -0.6324120479
O   O34       1.0  0.91299  0.13995  0.07320  1.0000 -0.6324120479
O   O35       1.0  0.08701  0.86005  0.07320  1.0000 -0.6324120479
O   O36       1.0  0.41299  0.36005  0.42680  1.0000 -0.6324120479
O   O37       1.0  0.63995  0.58701  0.07320  1.0000 -0.6324120479
O   O38       1.0  0.86005  0.08701  0.42680  1.0000 -0.6324120479
O   O39       1.0  0.13995  0.91299  0.42680  1.0000 -0.6324120479
O   O40       1.0  0.58701  0.63995  0.42680  1.0000 -0.6324120479
O   O41       1.0  0.13995  0.08701  0.92680  1.0000 -0.6324120479
O   O42       1.0  0.58701  0.36005  0.92680  1.0000 -0.6324120479
O   O43       1.0  0.41299  0.63995  0.92680  1.0000 -0.6324120479
O   O44       1.0  0.08701  0.13995  0.57320  1.0000 -0.6324120479
O   O45       1.0  0.86005  0.91299  0.92680  1.0000 -0.6324120479
O   O46       1.0  0.63995  0.41299  0.57320  1.0000 -0.6324120479
O   O47       1.0  0.36005  0.58701  0.57320  1.0000 -0.6324120479
O   O48       1.0  0.91299  0.86005  0.57320  1.0000 -0.6324120479
O   O49       1.0  0.42961  0.33280  0.98020  1.0000 -0.6722353732
O   O50       1.0  0.83280  0.07039  0.98020  1.0000 -0.6722353732
O   O51       1.0  0.16720  0.92961  0.98020  1.0000 -0.6722353732
O   O52       1.0  0.33280  0.42961  0.51980  1.0000 -0.6722353732
O   O53       1.0  0.57039  0.66720  0.98020  1.0000 -0.6722353732
O   O54       1.0  0.92961  0.16720  0.51980  1.0000 -0.6722353732
O   O55       1.0  0.07039  0.83280  0.51980  1.0000 -0.6722353732
O   O56       1.0  0.66720  0.57039  0.51980  1.0000 -0.6722353732
O   O57       1.0  0.07039  0.16720  0.01980  1.0000 -0.6722353732
O   O58       1.0  0.66720  0.42961  0.01980  1.0000 -0.6722353732
O   O59       1.0  0.33280  0.57039  0.01980  1.0000 -0.6722353732
O   O60       1.0  0.16720  0.07039  0.48020  1.0000 -0.6722353732
O   O61       1.0  0.92961  0.83280  0.01980  1.0000 -0.6722353732
O   O62       1.0  0.57039  0.33280  0.48020  1.0000 -0.6722353732
O   O63       1.0  0.42961  0.66720  0.48020  1.0000 -0.6722353732
O   O64       1.0  0.83280  0.92961  0.48020  1.0000 -0.6722353732
O   O65       1.0  0.27440  0.05341  0.02580  1.0000 -0.6938488724
O   O66       1.0  0.55341  0.22560  0.02580  1.0000 -0.6938488724
O   O67       1.0  0.44659  0.77440  0.02580  1.0000 -0.6938488724
O   O68       1.0  0.05341  0.27440  0.47420  1.0000 -0.6938488724
O   O69       1.0  0.72560  0.94659  0.02580  1.0000 -0.6938488724
O   O70       1.0  0.77440  0.44659  0.47420  1.0000 -0.6938488724
O   O71       1.0  0.22560  0.55341  0.47420  1.0000 -0.6938488724
O   O72       1.0  0.94659  0.72560  0.47420  1.0000 -0.6938488724
O   O73       1.0  0.22560  0.44659  0.97420  1.0000 -0.6938488724
O   O74       1.0  0.94659  0.27440  0.97420  1.0000 -0.6952615918
O   O75       1.0  0.05341  0.72560  0.97420  1.0000 -0.6938488724
O   O76       1.0  0.44659  0.22560  0.52580  1.0000 -0.6938488724
O   O77       1.0  0.77440  0.55341  0.97420  1.0000 -0.6938488724
O   O78       1.0  0.72560  0.05341  0.52580  1.0000 -0.6938488724
O   O79       1.0  0.27440  0.94659  0.52580  1.0000 -0.6952615918
O   O80       1.0  0.55341  0.77440  0.52580  1.0000 -0.6938488724
O   O81       1.0  0.23250  0.09300  0.21380  1.0000 -0.6722353732
O   O82       1.0  0.59300  0.26750  0.21380  1.0000 -0.6722353732
O   O83       1.0  0.40700  0.73250  0.21380  1.0000 -0.6722353732
O   O84       1.0  0.09300  0.23250  0.28620  1.0000 -0.6722353732
O   O85       1.0  0.76750  0.90700  0.21380  1.0000 -0.6722353732
O   O86       1.0  0.73250  0.40700  0.28620  1.0000 -0.6722353732
O   O87       1.0  0.26750  0.59300  0.28620  1.0000 -0.6722353732
O   O88       1.0  0.90700  0.76750  0.28620  1.0000 -0.6722353732
O   O89       1.0  0.26750  0.40700  0.78620  1.0000 -0.6722353732
O   O90       1.0  0.90700  0.23250  0.78620  1.0000 -0.6722353732
O   O91       1.0  0.09300  0.76750  0.78620  1.0000 -0.6722353732
O   O92       1.0  0.40700  0.26750  0.71380  1.0000 -0.6722353732
O   O93       1.0  0.73250  0.59300  0.78620  1.0000 -0.6722353732
O   O94       1.0  0.76750  0.09300  0.71380  1.0000 -0.6722353732
O   O95       1.0  0.23250  0.90700  0.71380  1.0000 -0.6722353732
O   O96       1.0  0.59300  0.73250  0.71380  1.0000 -0.6722353732
