# DDEC6 charges by PACMAN v1.1 (https://github.com/mtap-research/PACMAN-charge/)
data_2001[CdZr][sqc]3[ASR]1
_chemical_formula_sum              "Zr1 Cd2 C8 O16"
_cell_length_a       8.9873
_cell_length_b       8.9873
_cell_length_c       8.9873
_cell_angle_alpha    123.739
_cell_angle_beta     102.846
_cell_angle_gamma    102.841

_symmetry_space_group_name_H-M    "P 1"
_symmetry_Int_Tables_number       1

loop_
  _symmetry_equiv_pos_as_xyz
  'x, y, z'

loop_
  _atom_site_type_symbol
  _atom_site_label
  _atom_site_symmetry_multiplicity
  _atom_site_fract_x
  _atom_site_fract_y
  _atom_site_fract_z
  _atom_site_occupancy
  _atom_site_charge
Zr  Zr1       1.0  0.50000  0.32770  0.82770  1.0000 1.8439449028
Cd  Cd1       1.0  0.00000  0.57664  0.57664  1.0000 1.0445800976
Cd  Cd2       1.0  0.00000  0.07520  0.07520  1.0000 1.1286872581
C   C1        1.0  0.22880  0.03980  0.81100  1.0000 0.5325279341
C   C2        1.0  0.77120  0.58220  0.81100  1.0000 0.5325279341
C   C3        1.0  0.27070  0.90570  0.63500  1.0000 0.4970185414
C   C4        1.0  0.72930  0.36430  0.63500  1.0000 0.4970185414
C   C5        1.0  0.22870  0.34600  0.57470  1.0000 0.5325279341
C   C6        1.0  0.77130  0.34600  0.11730  1.0000 0.5325279341
C   C7        1.0  0.27020  0.52300  0.79320  1.0000 0.4970185414
C   C8        1.0  0.72980  0.52300  0.25280  1.0000 0.4970185414
O   O1        1.0  0.12180  0.96480  0.84300  1.0000 -0.4893796389
O   O2        1.0  0.87820  0.72120  0.84300  1.0000 -0.4893796389
O   O3        1.0  0.12150  0.32100  0.44250  1.0000 -0.4893796389
O   O4        1.0  0.87850  0.32100  0.19950  1.0000 -0.4893796389
O   O5        1.0  0.19820  0.71220  0.51400  1.0000 -0.4719318196
O   O6        1.0  0.80180  0.31580  0.51400  1.0000 -0.4719318196
O   O7        1.0  0.38480  0.00400  0.61920  1.0000 -0.5063805624
O   O8        1.0  0.61520  0.23440  0.61920  1.0000 -0.5063805624
O   O9        1.0  0.19670  0.64800  0.84470  1.0000 -0.4893796389
O   O10       1.0  0.80330  0.64800  0.45130  1.0000 -0.4893796389
O   O11       1.0  0.31390  0.22050  0.90660  1.0000 -0.5645694777
O   O12       1.0  0.68610  0.59270  0.90660  1.0000 -0.5645694777
O   O13       1.0  0.31360  0.25400  0.56760  1.0000 -0.5502977415
O   O14       1.0  0.68640  0.25400  0.94040  1.0000 -0.5502977415
O   O15       1.0  0.38640  0.53840  0.92480  1.0000 -0.5063805624
O   O16       1.0  0.61360  0.53840  0.15200  1.0000 -0.5063805624
