# DDEC6 charges by PACMAN v1.1 (https://github.com/mtap-research/PACMAN-charge/)
data_2002[Cu][kdd]3[ASR]2
_chemical_formula_sum              "Cu2 H16 C24 N4 O8"
_cell_length_a       12.756
_cell_length_b       12.756
_cell_length_c       10.96
_cell_angle_alpha    88.4873
_cell_angle_beta     91.5127
_cell_angle_gamma    22.3345

_symmetry_space_group_name_H-M    "P 1"
_symmetry_Int_Tables_number       1

loop_
  _symmetry_equiv_pos_as_xyz
  'x, y, z'

loop_
  _atom_site_type_symbol
  _atom_site_label
  _atom_site_symmetry_multiplicity
  _atom_site_fract_x
  _atom_site_fract_y
  _atom_site_fract_z
  _atom_site_occupancy
  _atom_site_charge
Cu  Cu1       1.0  0.38417  0.38941  0.55704  1.0000 0.77941001
Cu  Cu2       1.0  0.61059  0.61583  0.05704  1.0000 0.77941001
H   H1        1.0  0.41240  0.25240  0.32010  1.0000 0.1120076407
H   H2        1.0  0.74760  0.58760  0.82010  1.0000 0.1120076407
H   H3        1.0  0.19580  0.31460  0.21400  1.0000 0.1340616697
H   H4        1.0  0.68540  0.80420  0.71400  1.0000 0.1340616697
H   H5        1.0  0.64510  0.81030  0.45720  1.0000 0.1387867386
H   H6        1.0  0.18970  0.35490  0.95720  1.0000 0.1387867386
H   H7        1.0  0.87910  0.72950  0.55950  1.0000 0.1120076407
H   H8        1.0  0.27050  0.12090  0.05950  1.0000 0.1120076407
H   H9        1.0  0.87130  0.93330  0.74960  1.0000 0.1237404549
H   H10       1.0  0.06670  0.12870  0.24960  1.0000 0.1237404549
H   H11       1.0  0.13370  0.79850  0.88210  1.0000 0.1387867386
H   H12       1.0  0.20150  0.86630  0.38210  1.0000 0.1387867386
H   H13       1.0  0.61580  0.51380  0.76320  1.0000 0.1340616697
H   H14       1.0  0.48620  0.38420  0.26320  1.0000 0.1340616697
H   H15       1.0  0.37840  0.62280  0.62460  1.0000 0.1120076407
H   H16       1.0  0.37720  0.62160  0.12460  1.0000 0.1120076407
C   C1        1.0  0.74240  0.62420  0.25350  1.0000 0.5397983843
C   C2        1.0  0.37580  0.25760  0.75350  1.0000 0.5397983843
C   C3        1.0  0.25830  0.36370  0.34810  1.0000 0.0783045197
C   C4        1.0  0.63630  0.74170  0.84810  1.0000 0.0783045197
C   C5        1.0  0.12830  0.40110  0.28370  1.0000 -0.1521966652
C   C6        1.0  0.59890  0.87170  0.78370  1.0000 -0.1521966652
C   C7        1.0  0.89780  0.56780  0.32410  1.0000 0.0399387011
C   C8        1.0  0.43220  0.10220  0.82410  1.0000 0.0399387011
C   C9        1.0  0.80100  0.69520  0.42860  1.0000 -0.1599236375
C   C10       1.0  0.30480  0.19900  0.92860  1.0000 -0.1599236375
C   C11       1.0  0.94220  0.64660  0.48900  1.0000 0.0916018018
C   C12       1.0  0.35340  0.05780  0.98900  1.0000 0.0916018018
C   C13       1.0  0.07180  0.06080  0.92560  1.0000 0.5632143969
C   C14       1.0  0.93920  0.92820  0.42560  1.0000 0.5632143969
C   C15       1.0  0.82070  0.05030  0.75120  1.0000 0.0990566516
C   C16       1.0  0.94970  0.17930  0.25120  1.0000 0.0990566516
C   C17       1.0  0.97820  0.96900  0.83200  1.0000 -0.1521966652
C   C18       1.0  0.03100  0.02180  0.33200  1.0000 -0.1521966652
C   C19       1.0  0.90530  0.14110  0.83870  1.0000 0.0261140184
C   C20       1.0  0.85890  0.09470  0.33870  1.0000 0.0261140184
C   C21       1.0  0.67360  0.39100  0.76060  1.0000 -0.1521966652
C   C22       1.0  0.60900  0.32640  0.26060  1.0000 -0.1521966652
C   C23       1.0  0.52840  0.45800  0.67880  1.0000 0.0675803775
C   C24       1.0  0.54200  0.47160  0.17880  1.0000 0.0675803775
N   N1        1.0  0.16730  0.48450  0.45030  1.0000 -0.2219701356
N   N2        1.0  0.51550  0.83270  0.95030  1.0000 -0.2219701356
N   N3        1.0  0.59740  0.29100  0.67470  1.0000 -0.2327985709
N   N4        1.0  0.70900  0.40260  0.17470  1.0000 -0.2327985709
O   O1        1.0  0.84930  0.49210  0.16250  1.0000 -0.5319287723
O   O2        1.0  0.50790  0.15070  0.66250  1.0000 -0.5319287723
O   O3        1.0  0.51833  0.79873  0.28550  1.0000 -0.5667593127
O   O4        1.0  0.20127  0.48167  0.78550  1.0000 -0.5667593127
O   O5        1.0  0.31980  0.80060  0.96310  1.0000 -0.5537493175
O   O6        1.0  0.19940  0.68020  0.46310  1.0000 -0.5537493175
O   O7        1.0  0.95847  0.24827  0.95170  1.0000 -0.5667593127
O   O8        1.0  0.75173  0.04153  0.45170  1.0000 -0.5667593127
