# DDEC6 charges by PACMAN v1.1 (https://github.com/mtap-research/PACMAN-charge/)
data_2002[Zn][nan]3[ASR]1
_chemical_formula_sum              "Zn12 P8 H16 C16 O52"
_cell_length_a       4.925
_cell_length_b       22.0972
_cell_length_c       13.0516
_cell_angle_alpha    90
_cell_angle_beta     102.622
_cell_angle_gamma    90

_symmetry_space_group_name_H-M    "P 1"
_symmetry_Int_Tables_number       1

loop_
  _symmetry_equiv_pos_as_xyz
  'x, y, z'

loop_
  _atom_site_type_symbol
  _atom_site_label
  _atom_site_symmetry_multiplicity
  _atom_site_fract_x
  _atom_site_fract_y
  _atom_site_fract_z
  _atom_site_occupancy
  _atom_site_charge
Zn  Zn1       1.0  0.50010  0.64296  0.82711  1.0000 1.046171973
Zn  Zn2       1.0  0.49990  0.14296  0.67289  1.0000 1.046171973
Zn  Zn3       1.0  0.49990  0.35704  0.17289  1.0000 1.0436626174
Zn  Zn4       1.0  0.50010  0.85704  0.32711  1.0000 1.046171973
Zn  Zn5       1.0  0.62417  0.56676  0.03185  1.0000 1.1023815372
Zn  Zn6       1.0  0.37583  0.06676  0.46815  1.0000 1.1023815372
Zn  Zn7       1.0  0.37583  0.43324  0.96815  1.0000 1.1023815372
Zn  Zn8       1.0  0.62417  0.93324  0.53185  1.0000 1.1023815372
Zn  Zn9       1.0  0.04282  0.68660  0.15972  1.0000 1.0131384431
Zn  Zn10      1.0  0.95718  0.18660  0.34028  1.0000 1.0131384431
Zn  Zn11      1.0  0.95718  0.31340  0.84028  1.0000 1.0131384431
Zn  Zn12      1.0  0.04282  0.81340  0.65972  1.0000 1.0152453878
P   P1        1.0  0.47026  0.71574  0.03536  1.0000 1.3884023824
P   P2        1.0  0.52974  0.21574  0.46464  1.0000 1.3884023824
P   P3        1.0  0.52974  0.28426  0.96464  1.0000 1.3884023824
P   P4        1.0  0.47026  0.78426  0.53536  1.0000 1.3884023824
P   P5        1.0  0.03515  0.55041  0.85565  1.0000 1.4103582599
P   P6        1.0  0.96485  0.05041  0.64435  1.0000 1.4103582599
P   P7        1.0  0.96485  0.44959  0.14435  1.0000 1.4103582599
P   P8        1.0  0.03515  0.94959  0.35565  1.0000 1.4103582599
H   H1        1.0  0.73180  0.77200  0.94080  1.0000 0.2069757492
H   H2        1.0  0.26820  0.27200  0.55920  1.0000 0.2069757492
H   H3        1.0  0.26820  0.22800  0.05920  1.0000 0.2069757492
H   H4        1.0  0.73180  0.72800  0.44080  1.0000 0.2069757492
H   H5        1.0  0.52200  0.81500  0.98200  1.0000 0.2039759331
H   H6        1.0  0.47800  0.31500  0.51800  1.0000 0.2039759331
H   H7        1.0  0.47800  0.18500  0.01800  1.0000 0.2039759331
H   H8        1.0  0.52200  0.68500  0.48200  1.0000 0.2039759331
H   H9        1.0  0.74300  0.50270  0.71600  1.0000 0.2039759331
H   H10       1.0  0.25700  0.00270  0.78400  1.0000 0.2039759331
H   H11       1.0  0.25700  0.49730  0.28400  1.0000 0.2039759331
H   H12       1.0  0.74300  0.99730  0.21600  1.0000 0.2039759331
H   H13       1.0  0.03600  0.47430  0.73400  1.0000 0.2069757492
H   H14       1.0  0.96400  0.97430  0.76600  1.0000 0.2069757492
H   H15       1.0  0.96400  0.52570  0.26600  1.0000 0.2069757492
H   H16       1.0  0.03600  0.02570  0.23400  1.0000 0.2069757492
C   C1        1.0  0.53970  0.77570  0.94920  1.0000 -0.6303702197
C   C2        1.0  0.46030  0.27570  0.55080  1.0000 -0.6303702197
C   C3        1.0  0.46030  0.22430  0.05080  1.0000 -0.6303702197
C   C4        1.0  0.53970  0.72430  0.44920  1.0000 -0.6303702197
C   C5        1.0  0.89640  0.48870  0.76820  1.0000 -0.6434744201
C   C6        1.0  0.10360  0.98870  0.73180  1.0000 -0.6434744201
C   C7        1.0  0.10360  0.51130  0.23180  1.0000 -0.6434744201
C   C8        1.0  0.89640  0.01130  0.26820  1.0000 -0.6434744201
C   C9        1.0  0.80350  0.43810  0.82960  1.0000 0.7285139062
C   C10       1.0  0.19650  0.93810  0.67040  1.0000 0.7285139062
C   C11       1.0  0.19650  0.56190  0.17040  1.0000 0.7285139062
C   C12       1.0  0.80350  0.06190  0.32960  1.0000 0.7285139062
C   C13       1.0  0.34710  0.77440  0.84260  1.0000 0.7183007099
C   C14       1.0  0.65290  0.27440  0.65740  1.0000 0.7183007099
C   C15       1.0  0.65290  0.22560  0.15740  1.0000 0.7183007099
C   C16       1.0  0.34710  0.72560  0.34260  1.0000 0.7183007099
O   O1        1.0  0.51780  0.65530  0.98450  1.0000 -0.7618391864
O   O2        1.0  0.48220  0.15530  0.51550  1.0000 -0.7618391864
O   O3        1.0  0.48220  0.34470  0.01550  1.0000 -0.7618391864
O   O4        1.0  0.51780  0.84470  0.48450  1.0000 -0.7618391864
O   O5        1.0  0.17430  0.72460  0.04690  1.0000 -0.7147665522
O   O6        1.0  0.82570  0.22460  0.45310  1.0000 -0.7154579661
O   O7        1.0  0.82570  0.27540  0.95310  1.0000 -0.7147665522
O   O8        1.0  0.17430  0.77540  0.54690  1.0000 -0.7154579661
O   O9        1.0  0.67690  0.72210  0.14190  1.0000 -0.7392111025
O   O10       1.0  0.32310  0.22210  0.35810  1.0000 -0.7392111025
O   O11       1.0  0.32310  0.27790  0.85810  1.0000 -0.7392111025
O   O12       1.0  0.67690  0.77790  0.64190  1.0000 -0.7392111025
O   O13       1.0  0.78850  0.57655  0.89450  1.0000 -0.7618391864
O   O14       1.0  0.21150  0.07655  0.60550  1.0000 -0.7618391864
O   O15       1.0  0.21150  0.42345  0.10550  1.0000 -0.7618391864
O   O16       1.0  0.78850  0.92345  0.39450  1.0000 -0.7618391864
O   O17       1.0  0.25980  0.52450  0.94600  1.0000 -0.7719809464
O   O18       1.0  0.74020  0.02450  0.55400  1.0000 -0.7719809464
O   O19       1.0  0.74020  0.47550  0.05400  1.0000 -0.7719809464
O   O20       1.0  0.25980  0.97550  0.44600  1.0000 -0.7719809464
O   O21       1.0  0.15350  0.59580  0.78960  1.0000 -0.7309518806
O   O22       1.0  0.84650  0.09580  0.71040  1.0000 -0.7309518806
O   O23       1.0  0.84650  0.40420  0.21040  1.0000 -0.7309518806
O   O24       1.0  0.15350  0.90420  0.28960  1.0000 -0.7309518806
O   O25       1.0  0.55480  0.43330  0.83400  1.0000 -0.5176968179
O   O26       1.0  0.44520  0.93330  0.66600  1.0000 -0.5176968179
O   O27       1.0  0.44520  0.56670  0.16600  1.0000 -0.5176968179
O   O28       1.0  0.55480  0.06670  0.33400  1.0000 -0.5176968179
O   O29       1.0  0.99750  0.40200  0.87740  1.0000 -0.5872008554
O   O30       1.0  0.00250  0.90200  0.62260  1.0000 -0.5872008554
O   O31       1.0  0.00250  0.59800  0.12260  1.0000 -0.5872008554
O   O32       1.0  0.99750  0.09800  0.37740  1.0000 -0.5872008554
O   O33       1.0  0.23820  0.82420  0.80630  1.0000 -0.5176968179
O   O34       1.0  0.76180  0.32420  0.69370  1.0000 -0.5176968179
O   O35       1.0  0.76180  0.17580  0.19370  1.0000 -0.5176968179
O   O36       1.0  0.23820  0.67580  0.30630  1.0000 -0.5176968179
O   O37       1.0  0.29840  0.72590  0.79270  1.0000 -0.5274454258
O   O38       1.0  0.70160  0.22590  0.70730  1.0000 -0.5274454258
O   O39       1.0  0.70160  0.27410  0.20730  1.0000 -0.5274454258
O   O40       1.0  0.29840  0.77410  0.29270  1.0000 -0.5274454258
O   O41       1.0  0.69330  0.66050  0.71280  1.0000 0.222028973
O   O42       1.0  0.30670  0.16050  0.78720  1.0000 0.222028973
O   O43       1.0  0.30670  0.33950  0.28720  1.0000 0.222028973
O   O44       1.0  0.69330  0.83950  0.21280  1.0000 0.222028973
O   O45       1.0  0.79980  0.70240  0.80380  1.0000 -0.2892254046
O   O46       1.0  0.20020  0.20240  0.69620  1.0000 -0.2892254046
O   O47       1.0  0.20020  0.29760  0.19620  1.0000 -0.2892254046
O   O48       1.0  0.79980  0.79760  0.30380  1.0000 -0.2892254046
O   O49       1.0  0.51100  0.61960  0.66500  1.0000 -0.2570544235
O   O50       1.0  0.48900  0.11960  0.83500  1.0000 -0.2570544235
O   O51       1.0  0.48900  0.38040  0.33500  1.0000 -0.2570544235
O   O52       1.0  0.51100  0.88040  0.16500  1.0000 -0.2570544235
