# DDEC6 charges by PACMAN v1.1 (https://github.com/mtap-research/PACMAN-charge/)
data_2002[Ce][nan]3[ASR]1
_chemical_formula_sum              "Ce2 H24 C18 O12"
_cell_length_a       9.2275
_cell_length_b       9.771
_cell_length_c       10.699
_cell_angle_alpha    112.19
_cell_angle_beta     84.49
_cell_angle_gamma    118.16

_symmetry_space_group_name_H-M    "P 1"
_symmetry_Int_Tables_number       1

loop_
  _symmetry_equiv_pos_as_xyz
  'x, y, z'

loop_
  _atom_site_type_symbol
  _atom_site_label
  _atom_site_symmetry_multiplicity
  _atom_site_fract_x
  _atom_site_fract_y
  _atom_site_fract_z
  _atom_site_occupancy
  _atom_site_charge
Ce  Ce1       1.0  0.72285  0.95616  0.98314  1.0000 1.8686448338
Ce  Ce2       1.0  0.27715  0.04384  0.01686  1.0000 1.8598479035
H   H1        1.0  0.10120  0.55100  0.13300  1.0000 0.1369392601
H   H2        1.0  0.89880  0.44900  0.86700  1.0000 0.1369392601
H   H3        1.0  0.06630  0.53930  0.27580  1.0000 0.1243808682
H   H4        1.0  0.93370  0.46070  0.72420  1.0000 0.1243808682
H   H5        1.0  0.88010  0.60300  0.13020  1.0000 0.0980626397
H   H6        1.0  0.11990  0.39700  0.86980  1.0000 0.0980626397
H   H7        1.0  0.82810  0.57400  0.26590  1.0000 0.0980626397
H   H8        1.0  0.17190  0.42600  0.73410  1.0000 0.0980626397
H   H9        1.0  0.13200  0.83810  0.24810  1.0000 0.0909525662
H   H10       1.0  0.86800  0.16190  0.75190  1.0000 0.0909525662
H   H11       1.0  0.07360  0.81110  0.38320  1.0000 0.0730622711
H   H12       1.0  0.92640  0.18890  0.61680  1.0000 0.0730622711
H   H13       1.0  0.85970  0.87310  0.37030  1.0000 0.1243808682
H   H14       1.0  0.14030  0.12690  0.62970  1.0000 0.1243808682
H   H15       1.0  0.03330  0.02500  0.37920  1.0000 0.1328191015
H   H16       1.0  0.96670  0.97500  0.62080  1.0000 0.1328191015
H   H17       1.0  0.32980  0.90330  0.65120  1.0000 0.1369392601
H   H18       1.0  0.67020  0.09670  0.34880  1.0000 0.1369392601
H   H19       1.0  0.38330  0.76890  0.56060  1.0000 0.1369392601
H   H20       1.0  0.61670  0.23110  0.43940  1.0000 0.1369392601
H   H21       1.0  0.58700  0.11880  0.62770  1.0000 0.0980626397
H   H22       1.0  0.41300  0.88120  0.37230  1.0000 0.0980626397
H   H23       1.0  0.63280  0.98100  0.53150  1.0000 0.0909525662
H   H24       1.0  0.36720  0.01900  0.46850  1.0000 0.0909525662
C   C1        1.0  0.90600  0.32730  0.12270  1.0000 0.6163560155
C   C2        1.0  0.09400  0.67270  0.87730  1.0000 0.6163560155
C   C3        1.0  0.01430  0.51490  0.19000  1.0000 -0.3140881506
C   C4        1.0  0.98570  0.48510  0.81000  1.0000 -0.3140881506
C   C5        1.0  0.92160  0.61580  0.21600  1.0000 -0.1298029588
C   C6        1.0  0.07840  0.38420  0.78400  1.0000 -0.1298029588
C   C7        1.0  0.03580  0.79960  0.29650  1.0000 -0.1358506826
C   C8        1.0  0.96420  0.20040  0.70350  1.0000 -0.1358506826
C   C9        1.0  0.95580  0.91140  0.32180  1.0000 -0.3293419999
C   C10       1.0  0.04420  0.08860  0.67820  1.0000 -0.3293419999
C   C11       1.0  0.90340  0.91330  0.19310  1.0000 0.6702773574
C   C12       1.0  0.09660  0.08670  0.80690  1.0000 0.6702773574
C   C13       1.0  0.51060  0.90550  0.74890  1.0000 0.6599363092
C   C14       1.0  0.48940  0.09450  0.25110  1.0000 0.6599363092
C   C15       1.0  0.42380  0.88330  0.62570  1.0000 -0.3293419999
C   C16       1.0  0.57620  0.11670  0.37430  1.0000 -0.3293419999
C   C17       1.0  0.54170  0.00520  0.56040  1.0000 -0.1298029588
C   C18       1.0  0.45830  0.99480  0.43960  1.0000 -0.1298029588
O   O1        1.0  0.92150  0.23230  0.17120  1.0000 -0.6301121113
O   O2        1.0  0.07850  0.76770  0.82880  1.0000 -0.6301121113
O   O3        1.0  0.80710  0.26550  0.02150  1.0000 -0.5979874131
O   O4        1.0  0.19290  0.73450  0.97850  1.0000 -0.5979874131
O   O5        1.0  0.75710  0.88040  0.17260  1.0000 -0.6128943857
O   O6        1.0  0.24290  0.11960  0.82740  1.0000 -0.6128943857
O   O7        1.0  0.00820  0.95000  0.11100  1.0000 -0.6636533735
O   O8        1.0  0.99180  0.05000  0.88900  1.0000 -0.6636533735
O   O9        1.0  0.62580  0.86610  0.73510  1.0000 -0.6158405837
O   O10       1.0  0.37420  0.13390  0.26490  1.0000 -0.6158405837
O   O11       1.0  0.47480  0.96800  0.86600  1.0000 -0.6636533735
O   O12       1.0  0.52520  0.03200  0.13400  1.0000 -0.6636533735
