# DDEC6 charges by PACMAN v1.1 (https://github.com/mtap-research/PACMAN-charge/)
data_2002[Eu][pcu]3[ASR]1
_chemical_formula_sum              "Eu2 H18 C36 O12"
_cell_length_a       12.117
_cell_length_b       12.335
_cell_length_c       13.412
_cell_angle_alpha    101.569
_cell_angle_beta     99.036
_cell_angle_gamma    106.286

_symmetry_space_group_name_H-M    "P 1"
_symmetry_Int_Tables_number       1

loop_
  _symmetry_equiv_pos_as_xyz
  'x, y, z'

loop_
  _atom_site_type_symbol
  _atom_site_label
  _atom_site_symmetry_multiplicity
  _atom_site_fract_x
  _atom_site_fract_y
  _atom_site_fract_z
  _atom_site_occupancy
  _atom_site_charge
Eu  Eu1       1.0  0.67360  0.51882  0.54578  1.0000 2.0763188594
Eu  Eu2       1.0  0.32640  0.48118  0.45422  1.0000 2.0763188594
H   H1        1.0  0.95670  0.64450  0.88920  1.0000 0.1288641312
H   H2        1.0  0.04330  0.35550  0.11080  1.0000 0.1288641312
H   H3        1.0  0.80170  0.30140  0.79240  1.0000 0.1205764449
H   H4        1.0  0.19830  0.69860  0.20760  1.0000 0.1205764449
H   H5        1.0  0.10230  0.72280  0.05730  1.0000 0.1205764449
H   H6        1.0  0.89770  0.27720  0.94270  1.0000 0.1205764449
H   H7        1.0  0.40710  0.77090  0.45700  1.0000 0.1288641312
H   H8        1.0  0.59290  0.22910  0.54300  1.0000 0.1288641312
H   H9        1.0  0.73950  0.94280  0.62110  1.0000 0.1205764449
H   H10       1.0  0.26050  0.05720  0.37890  1.0000 0.1205764449
H   H11       1.0  0.28090  0.88360  0.39740  1.0000 0.1205764449
H   H12       1.0  0.71910  0.11640  0.60260  1.0000 0.1205764449
H   H13       1.0  0.63630  0.53430  0.86640  1.0000 0.1205764449
H   H14       1.0  0.36370  0.46570  0.13360  1.0000 0.1205764449
H   H15       1.0  0.28700  0.47160  0.78830  1.0000 0.1205764449
H   H16       1.0  0.71300  0.52840  0.21170  1.0000 0.1205764449
H   H17       1.0  0.72800  0.54170  0.04870  1.0000 0.1205764449
H   H18       1.0  0.27200  0.45830  0.95130  1.0000 0.1205764449
C   C1        1.0  0.80920  0.49060  0.72430  1.0000 0.5629163378
C   C2        1.0  0.19080  0.50940  0.27570  1.0000 0.5629163378
C   C3        1.0  0.01030  0.55680  0.99340  1.0000 0.060391757
C   C4        1.0  0.98970  0.44320  0.00660  1.0000 0.060391757
C   C5        1.0  0.94640  0.57000  0.89880  1.0000 -0.1552727676
C   C6        1.0  0.05360  0.43000  0.10120  1.0000 -0.1552727676
C   C7        1.0  0.87360  0.47850  0.82570  1.0000 -0.0025390607
C   C8        1.0  0.12640  0.52150  0.17430  1.0000 -0.0025390607
C   C9        1.0  0.85430  0.36630  0.84270  1.0000 -0.112017513
C   C10       1.0  0.14570  0.63370  0.15730  1.0000 -0.112017513
C   C11       1.0  0.08770  0.64820  0.06740  1.0000 -0.1435089267
C   C12       1.0  0.91230  0.35180  0.93260  1.0000 -0.1435089267
C   C13       1.0  0.59150  0.72270  0.54400  1.0000 0.6207140678
C   C14       1.0  0.40850  0.27730  0.45600  1.0000 0.6207140678
C   C15       1.0  0.45470  0.94870  0.47820  1.0000 0.060391757
C   C16       1.0  0.54530  0.05130  0.52180  1.0000 0.060391757
C   C17       1.0  0.46910  0.84040  0.48670  1.0000 -0.1533264183
C   C18       1.0  0.53090  0.15960  0.51330  1.0000 -0.1533264183
C   C19       1.0  0.57450  0.83900  0.53880  1.0000 -0.0118659572
C   C20       1.0  0.42550  0.16100  0.46120  1.0000 -0.0151574045
C   C21       1.0  0.66840  0.94440  0.58430  1.0000 -0.0966505837
C   C22       1.0  0.33160  0.05560  0.41570  1.0000 -0.0942765704
C   C23       1.0  0.34420  0.95230  0.42530  1.0000 -0.1533264183
C   C24       1.0  0.65580  0.04770  0.57470  1.0000 -0.1533264183
C   C25       1.0  0.47490  0.50410  0.69930  1.0000 0.6414541
C   C26       1.0  0.52510  0.49590  0.30070  1.0000 0.6414541
C   C27       1.0  0.55610  0.51320  0.98750  1.0000 0.0702489645
C   C28       1.0  0.44390  0.48680  0.01250  1.0000 0.0702489645
C   C29       1.0  0.56340  0.51830  0.88430  1.0000 -0.1533264183
C   C30       1.0  0.43660  0.48170  0.11570  1.0000 -0.1533264183
C   C31       1.0  0.46290  0.49960  0.81040  1.0000 -0.0118659572
C   C32       1.0  0.53710  0.50040  0.18960  1.0000 -0.0118659572
C   C33       1.0  0.35400  0.47990  0.83760  1.0000 -0.0966505837
C   C34       1.0  0.64600  0.52010  0.16240  1.0000 -0.0966505837
C   C35       1.0  0.65430  0.52710  0.06510  1.0000 -0.1533264183
C   C36       1.0  0.34570  0.47290  0.93490  1.0000 -0.1552727676
O   O1        1.0  0.83070  0.59140  0.70860  1.0000 -0.6443432576
O   O2        1.0  0.16930  0.40860  0.29140  1.0000 -0.6443432576
O   O3        1.0  0.73710  0.40300  0.66120  1.0000 -0.629419089
O   O4        1.0  0.26290  0.59700  0.33880  1.0000 -0.629419089
O   O5        1.0  0.69480  0.72450  0.58100  1.0000 -0.629419089
O   O6        1.0  0.30520  0.27550  0.41900  1.0000 -0.629419089
O   O7        1.0  0.50730  0.63140  0.51280  1.0000 -0.7221540815
O   O8        1.0  0.49270  0.36860  0.48720  1.0000 -0.7221540815
O   O9        1.0  0.57640  0.53730  0.68530  1.0000 -0.629419089
O   O10       1.0  0.42360  0.46270  0.31470  1.0000 -0.629419089
O   O11       1.0  0.37890  0.47550  0.63320  1.0000 -0.6943356997
O   O12       1.0  0.62110  0.52450  0.36680  1.0000 -0.6943356997
