# DDEC6 charges by PACMAN v1.1 (https://github.com/mtap-research/PACMAN-charge/)
data_2002[Zn][pcu]3[ASR]4
_chemical_formula_sum              "Zn4 H36 C60 O13"
_cell_length_a       21.4903
_cell_length_b       21.4903
_cell_length_c       21.4903
_cell_angle_alpha    90
_cell_angle_beta     90
_cell_angle_gamma    90

_symmetry_space_group_name_H-M    "P 1"
_symmetry_Int_Tables_number       1

loop_
  _symmetry_equiv_pos_as_xyz
  'x, y, z'

loop_
  _atom_site_type_symbol
  _atom_site_label
  _atom_site_symmetry_multiplicity
  _atom_site_fract_x
  _atom_site_fract_y
  _atom_site_fract_z
  _atom_site_occupancy
  _atom_site_charge
Zn  Zn1       1.0  0.55181  0.55136  0.44820  1.0000 0.9500261445
Zn  Zn2       1.0  0.44837  0.44837  0.44837  1.0000 0.9500261445
Zn  Zn3       1.0  0.55163  0.44837  0.55163  1.0000 0.9500261445
Zn  Zn4       1.0  0.44819  0.55136  0.55180  1.0000 0.9500261445
H   H1        1.0  0.74004  0.42908  0.57082  1.0000 0.1128242474
H   H2        1.0  0.85629  0.42820  0.57155  1.0000 0.1000967037
H   H3        1.0  0.85629  0.57180  0.42845  1.0000 0.1000967037
H   H4        1.0  0.74004  0.57093  0.42917  1.0000 0.1128242474
H   H5        1.0  0.57169  0.42857  0.85657  1.0000 0.1000967037
H   H6        1.0  0.57091  0.42919  0.74005  1.0000 0.1128242474
H   H7        1.0  0.42913  0.57077  0.73991  1.0000 0.1128242474
H   H8        1.0  0.42819  0.57156  0.85631  1.0000 0.1000967037
H   H9        1.0  0.49993  0.39934  0.94237  1.0000 0.1000967037
H   H10       1.0  0.50007  0.60066  0.94237  1.0000 0.1000967037
H   H11       1.0  0.94237  0.50007  0.60066  1.0000 0.1000967037
H   H12       1.0  0.94237  0.49993  0.39934  1.0000 0.1000967037
H   H13       1.0  0.57087  0.57077  0.26009  1.0000 0.1128242474
H   H14       1.0  0.57166  0.57140  0.14332  1.0000 0.1000967037
H   H15       1.0  0.42931  0.42941  0.26047  1.0000 0.1128242474
H   H16       1.0  0.42831  0.42857  0.14343  1.0000 0.1000967037
H   H17       1.0  0.26048  0.42929  0.42940  1.0000 0.1128242474
H   H18       1.0  0.26049  0.57072  0.57061  1.0000 0.1128242474
H   H19       1.0  0.14333  0.42835  0.42861  1.0000 0.1000967037
H   H20       1.0  0.14333  0.57165  0.57139  1.0000 0.1000967037
H   H21       1.0  0.49993  0.60066  0.05763  1.0000 0.1000967037
H   H22       1.0  0.50007  0.39934  0.05763  1.0000 0.1000967037
H   H23       1.0  0.05763  0.50007  0.39934  1.0000 0.1000967037
H   H24       1.0  0.05763  0.49993  0.60066  1.0000 0.1000967037
H   H25       1.0  0.57066  0.26036  0.57078  1.0000 0.1128242474
H   H26       1.0  0.57141  0.14334  0.57165  1.0000 0.1000967037
H   H27       1.0  0.42934  0.26036  0.42922  1.0000 0.1128242474
H   H28       1.0  0.42843  0.14371  0.42820  1.0000 0.1000967037
H   H29       1.0  0.57092  0.73993  0.57104  1.0000 0.1128242474
H   H30       1.0  0.42908  0.73993  0.42896  1.0000 0.1128242474
H   H31       1.0  0.57149  0.85627  0.57172  1.0000 0.1000967037
H   H32       1.0  0.42851  0.85627  0.42828  1.0000 0.1000967037
H   H33       1.0  0.60068  0.05763  0.49977  1.0000 0.1000967037
H   H34       1.0  0.39932  0.05763  0.50023  1.0000 0.1000967037
H   H35       1.0  0.60066  0.94238  0.49974  1.0000 0.1000967037
H   H36       1.0  0.39934  0.94238  0.50026  1.0000 0.1000967037
C   C1        1.0  0.50000  0.86485  0.50000  1.0000 0.0688958483
C   C2        1.0  0.54042  0.83112  0.53965  1.0000 -0.1248542618
C   C3        1.0  0.54029  0.76617  0.54001  1.0000 -0.096459898
C   C4        1.0  0.50000  0.73425  0.50000  1.0000 -0.0317406345
C   C5        1.0  0.45971  0.76617  0.45999  1.0000 -0.096459898
C   C6        1.0  0.45958  0.83112  0.46035  1.0000 -0.1248542618
C   C7        1.0  0.50000  0.66542  0.50000  1.0000 0.5975205599
C   C8        1.0  0.66577  0.50000  0.50002  1.0000 0.5975205599
C   C9        1.0  0.73428  0.50000  0.50000  1.0000 -0.0616911184
C   C10       1.0  0.76649  0.54002  0.45967  1.0000 -0.0795741778
C   C11       1.0  0.83118  0.53970  0.45956  1.0000 -0.133532713
C   C12       1.0  0.86497  0.50000  0.50000  1.0000 0.07809739
C   C13       1.0  0.83118  0.46030  0.54044  1.0000 -0.133532713
C   C14       1.0  0.76650  0.45998  0.54032  1.0000 -0.0795741778
C   C15       1.0  0.93383  0.50000  0.50000  1.0000 0.0688958483
C   C16       1.0  0.96755  0.49966  0.55626  1.0000 -0.133532713
C   C17       1.0  0.50000  0.93376  0.50000  1.0000 0.0688958483
C   C18       1.0  0.44373  0.96756  0.49926  1.0000 -0.133532713
C   C19       1.0  0.50000  0.33426  0.50000  1.0000 0.5975205599
C   C20       1.0  0.50000  0.26572  0.50000  1.0000 -0.0616911184
C   C21       1.0  0.45966  0.23352  0.45998  1.0000 -0.0795741778
C   C22       1.0  0.45952  0.16883  0.46031  1.0000 -0.133532713
C   C23       1.0  0.50000  0.13505  0.50000  1.0000 0.07809739
C   C24       1.0  0.54048  0.16883  0.53969  1.0000 -0.133532713
C   C25       1.0  0.54034  0.23352  0.54002  1.0000 -0.0795741778
C   C26       1.0  0.50000  0.06622  0.50000  1.0000 0.0688958483
C   C27       1.0  0.55628  0.03245  0.50079  1.0000 -0.133532713
C   C28       1.0  0.49999  0.50001  0.33422  1.0000 0.5975205599
C   C29       1.0  0.50002  0.50001  0.26571  1.0000 -0.0616911184
C   C30       1.0  0.46000  0.45968  0.23348  1.0000 -0.0795741778
C   C31       1.0  0.46031  0.45957  0.16879  1.0000 -0.133532713
C   C32       1.0  0.50001  0.50001  0.13501  1.0000 0.07809739
C   C33       1.0  0.53971  0.54045  0.16879  1.0000 -0.133532713
C   C34       1.0  0.54003  0.54034  0.23347  1.0000 -0.0795741778
C   C35       1.0  0.50000  0.50000  0.06616  1.0000 0.0688958483
C   C36       1.0  0.49966  0.44374  0.03245  1.0000 -0.133532713
C   C37       1.0  0.33423  0.50000  0.49998  1.0000 0.5975205599
C   C38       1.0  0.26572  0.50000  0.50000  1.0000 -0.0616911184
C   C39       1.0  0.23350  0.45998  0.45968  1.0000 -0.0795741778
C   C40       1.0  0.16882  0.46030  0.45956  1.0000 -0.133532713
C   C41       1.0  0.13503  0.50000  0.50000  1.0000 0.07809739
C   C42       1.0  0.16882  0.53970  0.54044  1.0000 -0.133532713
C   C43       1.0  0.23351  0.54002  0.54033  1.0000 -0.0795741778
C   C44       1.0  0.06617  0.50000  0.50000  1.0000 0.0688958483
C   C45       1.0  0.03245  0.49966  0.44374  1.0000 -0.133532713
C   C46       1.0  0.50001  0.50001  0.66578  1.0000 0.5975205599
C   C47       1.0  0.49998  0.50001  0.73429  1.0000 -0.0616911184
C   C48       1.0  0.54000  0.45968  0.76652  1.0000 -0.0795741778
C   C49       1.0  0.53969  0.45957  0.83121  1.0000 -0.133532713
C   C50       1.0  0.49999  0.50001  0.86499  1.0000 0.07809739
C   C51       1.0  0.46029  0.54045  0.83121  1.0000 -0.133532713
C   C52       1.0  0.45997  0.54034  0.76653  1.0000 -0.0795741778
C   C53       1.0  0.50000  0.50000  0.93384  1.0000 0.0688958483
C   C54       1.0  0.49966  0.55626  0.96755  1.0000 -0.133532713
C   C55       1.0  0.50034  0.55626  0.03245  1.0000 -0.133532713
C   C56       1.0  0.50034  0.44374  0.96755  1.0000 -0.133532713
C   C57       1.0  0.03246  0.50034  0.55626  1.0000 -0.133532713
C   C58       1.0  0.96754  0.50034  0.44374  1.0000 -0.133532713
C   C59       1.0  0.44372  0.03245  0.49921  1.0000 -0.133532713
C   C60       1.0  0.55627  0.96756  0.50074  1.0000 -0.133532713
O   O1        1.0  0.53794  0.63962  0.46205  1.0000 -0.5315475862
O   O2        1.0  0.63934  0.53793  0.46222  1.0000 -0.5403250616
O   O3        1.0  0.46216  0.36068  0.46216  1.0000 -0.5403250616
O   O4        1.0  0.53784  0.36068  0.53784  1.0000 -0.5403250616
O   O5        1.0  0.46206  0.63962  0.53795  1.0000 -0.5315475862
O   O6        1.0  0.50000  0.50012  0.50000  1.0000 -1.0315658849
O   O7        1.0  0.46217  0.46217  0.36070  1.0000 -0.5403250616
O   O8        1.0  0.36071  0.46216  0.46217  1.0000 -0.5403250616
O   O9        1.0  0.53778  0.53793  0.36066  1.0000 -0.5403250616
O   O10       1.0  0.53783  0.46217  0.63930  1.0000 -0.5403250616
O   O11       1.0  0.63929  0.46216  0.53783  1.0000 -0.5403250616
O   O12       1.0  0.46222  0.53793  0.63934  1.0000 -0.5403250616
O   O13       1.0  0.36066  0.53793  0.53778  1.0000 -0.5403250616
