# DDEC6 charges by PACMAN v1.1 (https://github.com/mtap-research/PACMAN-charge/)
data_2003[Cu][pcu]3[ASR]1
_chemical_formula_sum              "Cu2 H32 C40 S4 N8 O12"
_cell_length_a       11.0837
_cell_length_b       11.1496
_cell_length_c       16.937
_cell_angle_alpha    90
_cell_angle_beta     97.534
_cell_angle_gamma    90

_symmetry_space_group_name_H-M    "P 1"
_symmetry_Int_Tables_number       1

loop_
  _symmetry_equiv_pos_as_xyz
  'x, y, z'

loop_
  _atom_site_type_symbol
  _atom_site_label
  _atom_site_symmetry_multiplicity
  _atom_site_fract_x
  _atom_site_fract_y
  _atom_site_fract_z
  _atom_site_occupancy
  _atom_site_charge
Cu  Cu1       1.0  0.50000  0.54209  0.25000  1.0000 0.5918436021
Cu  Cu2       1.0  0.50000  0.45791  0.75000  1.0000 0.6196346253
H   H1        1.0  0.27710  0.45100  0.15510  1.0000 0.1092638684
H   H2        1.0  0.06660  0.43420  0.15510  1.0000 0.1414806203
H   H3        1.0  0.11490  0.62230  0.36150  1.0000 0.1414806203
H   H4        1.0  0.32690  0.63840  0.35400  1.0000 0.1092638684
H   H5        1.0  0.36080  0.74150  0.16820  1.0000 0.1092638684
H   H6        1.0  0.35500  0.94930  0.16400  1.0000 0.1469520338
H   H7        1.0  0.57640  0.13700  0.14930  1.0000 0.1469520338
H   H8        1.0  0.58120  0.33970  0.15300  1.0000 0.1092638684
H   H9        1.0  0.72290  0.45100  0.34490  1.0000 0.1092638684
H   H10       1.0  0.93340  0.43420  0.34490  1.0000 0.1414806203
H   H11       1.0  0.88510  0.62230  0.13850  1.0000 0.1414806203
H   H12       1.0  0.67310  0.63840  0.14600  1.0000 0.1092638684
H   H13       1.0  0.63920  0.74150  0.33180  1.0000 0.1092638684
H   H14       1.0  0.64500  0.94930  0.33600  1.0000 0.1469520338
H   H15       1.0  0.42360  0.13700  0.35070  1.0000 0.1469520338
H   H16       1.0  0.41880  0.33970  0.34700  1.0000 0.1092638684
H   H17       1.0  0.72290  0.54900  0.84490  1.0000 0.1092638684
H   H18       1.0  0.93340  0.56580  0.84490  1.0000 0.1414806203
H   H19       1.0  0.88510  0.37770  0.63850  1.0000 0.1414806203
H   H20       1.0  0.67310  0.36160  0.64600  1.0000 0.0814756228
H   H21       1.0  0.39650  0.25630  0.83680  1.0000 0.0891400425
H   H22       1.0  0.39130  0.04420  0.83840  1.0000 0.1300194184
H   H23       1.0  0.42360  0.86300  0.85070  1.0000 0.1414806203
H   H24       1.0  0.41880  0.66030  0.84700  1.0000 0.1092638684
H   H25       1.0  0.27710  0.54900  0.65510  1.0000 0.1092638684
H   H26       1.0  0.06660  0.56580  0.65510  1.0000 0.1414806203
H   H27       1.0  0.11490  0.37770  0.86150  1.0000 0.1414806203
H   H28       1.0  0.32690  0.36160  0.85400  1.0000 0.0814756228
H   H29       1.0  0.60350  0.25630  0.66320  1.0000 0.0891400425
H   H30       1.0  0.60870  0.04420  0.66160  1.0000 0.1300194184
H   H31       1.0  0.57640  0.86300  0.64930  1.0000 0.1414806203
H   H32       1.0  0.58120  0.66030  0.65300  1.0000 0.1092638684
C   C1        1.0  0.24050  0.48920  0.19620  1.0000 0.0814756228
C   C2        1.0  0.11750  0.47890  0.19390  1.0000 -0.1795660622
C   C3        1.0  0.07800  0.53950  0.25300  1.0000 0.0814756228
C   C4        1.0  0.14960  0.59220  0.31710  1.0000 -0.2010569577
C   C5        1.0  0.27310  0.59930  0.31380  1.0000 0.0891400425
C   C6        1.0  0.41840  0.78770  0.20190  1.0000 0.1092638684
C   C7        1.0  0.41450  0.90810  0.19940  1.0000 -0.2126576483
C   C8        1.0  0.54510  0.17630  0.19200  1.0000 -0.2213267713
C   C9        1.0  0.54700  0.29560  0.19260  1.0000 0.0983025849
C   C10       1.0  0.75950  0.48920  0.30380  1.0000 0.0814756228
C   C11       1.0  0.88250  0.47890  0.30610  1.0000 -0.1795660622
C   C12       1.0  0.92200  0.53950  0.24700  1.0000 0.0814756228
C   C13       1.0  0.85040  0.59220  0.18290  1.0000 -0.2010569577
C   C14       1.0  0.72690  0.59930  0.18620  1.0000 0.0891400425
C   C15       1.0  0.58160  0.78770  0.29810  1.0000 0.1092638684
C   C16       1.0  0.58550  0.90810  0.30060  1.0000 -0.2126576483
C   C17       1.0  0.45490  0.17630  0.30800  1.0000 -0.2213267713
C   C18       1.0  0.45300  0.29560  0.30740  1.0000 0.0983025849
C   C19       1.0  0.75950  0.51080  0.80380  1.0000 0.0891400425
C   C20       1.0  0.88250  0.52110  0.80610  1.0000 -0.1795660622
C   C21       1.0  0.92200  0.46050  0.74700  1.0000 0.0814756228
C   C22       1.0  0.85040  0.40780  0.68290  1.0000 -0.2010569577
C   C23       1.0  0.72690  0.40070  0.68620  1.0000 0.0983025849
C   C24       1.0  0.43810  0.21050  0.80160  1.0000 0.1092638684
C   C25       1.0  0.43510  0.08740  0.80310  1.0000 -0.2010569577
C   C26       1.0  0.45490  0.82370  0.80800  1.0000 -0.2213267713
C   C27       1.0  0.45300  0.70440  0.80740  1.0000 0.0983025849
C   C28       1.0  0.24050  0.51080  0.69620  1.0000 0.0891400425
C   C29       1.0  0.11750  0.52110  0.69390  1.0000 -0.1795660622
C   C30       1.0  0.07800  0.46050  0.75300  1.0000 0.0814756228
C   C31       1.0  0.14960  0.40780  0.81710  1.0000 -0.2010569577
C   C32       1.0  0.27310  0.40070  0.81380  1.0000 0.0983025849
C   C33       1.0  0.56190  0.21050  0.69840  1.0000 0.1092638684
C   C34       1.0  0.56490  0.08740  0.69690  1.0000 -0.2010569577
C   C35       1.0  0.54510  0.82370  0.69200  1.0000 -0.2213267713
C   C36       1.0  0.54700  0.70440  0.69260  1.0000 0.0983025849
C   C37       1.0  0.50000  0.96910  0.25000  1.0000 0.0891400425
C   C38       1.0  0.50000  0.10330  0.25000  1.0000 0.1300194184
C   C39       1.0  0.50000  0.03090  0.75000  1.0000 0.0891400425
C   C40       1.0  0.50000  0.89670  0.75000  1.0000 0.1414806203
S   S1        1.0  0.45510  0.55230  0.03020  1.0000 0.9367348969
S   S2        1.0  0.54490  0.55230  0.46980  1.0000 0.9367348969
S   S3        1.0  0.54490  0.44770  0.96980  1.0000 0.9367348969
S   S4        1.0  0.45510  0.44770  0.53020  1.0000 0.9367348969
N   N1        1.0  0.31250  0.54800  0.25090  1.0000 -0.2213267713
N   N2        1.0  0.68750  0.54800  0.24910  1.0000 -0.2213267713
N   N3        1.0  0.68750  0.45200  0.74910  1.0000 -0.2126576483
N   N4        1.0  0.31250  0.45200  0.75090  1.0000 -0.2126576483
N   N5        1.0  0.50000  0.73630  0.25000  1.0000 -0.2265967458
N   N6        1.0  0.50000  0.35000  0.25000  1.0000 -0.2381686821
N   N7        1.0  0.50000  0.26370  0.75000  1.0000 -0.2265967458
N   N8        1.0  0.50000  0.65000  0.75000  1.0000 -0.2381686821
O   O1        1.0  0.46790  0.54660  0.10840  1.0000 -0.5200411945
O   O2        1.0  0.33500  0.58220  0.98470  1.0000 -0.5200411945
O   O3        1.0  0.51010  0.66990  0.01030  1.0000 -0.5108163386
O   O4        1.0  0.53210  0.54660  0.39160  1.0000 -0.5200411945
O   O5        1.0  0.66500  0.58220  0.51530  1.0000 -0.5108163386
O   O6        1.0  0.48990  0.66990  0.48970  1.0000 -0.5108163386
O   O7        1.0  0.53210  0.45340  0.89160  1.0000 -0.5200411945
O   O8        1.0  0.66500  0.41780  0.01530  1.0000 -0.5042590081
O   O9        1.0  0.48990  0.33010  0.98970  1.0000 -0.5108163386
O   O10       1.0  0.46790  0.45340  0.60840  1.0000 -0.5200411945
O   O11       1.0  0.33500  0.41780  0.48470  1.0000 -0.5042590081
O   O12       1.0  0.51010  0.33010  0.51030  1.0000 -0.5108163386
