# DDEC6 charges by PACMAN v1.1 (https://github.com/mtap-research/PACMAN-charge/)
data_2003[Cu][tcb]3[ASR]1
_chemical_formula_sum              "Cu4 H72 C72 N16 O16"
_cell_length_a       9.0521
_cell_length_b       15.401
_cell_length_c       17.141
_cell_angle_alpha    90
_cell_angle_beta     90
_cell_angle_gamma    90

_symmetry_space_group_name_H-M    "P 1"
_symmetry_Int_Tables_number       1

loop_
  _symmetry_equiv_pos_as_xyz
  'x, y, z'

loop_
  _atom_site_type_symbol
  _atom_site_label
  _atom_site_symmetry_multiplicity
  _atom_site_fract_x
  _atom_site_fract_y
  _atom_site_fract_z
  _atom_site_occupancy
  _atom_site_charge
Cu  Cu1       1.0  0.42936  0.72173  0.21815  1.0000 0.74848874
Cu  Cu2       1.0  0.92936  0.27827  0.78185  1.0000 0.74848874
Cu  Cu3       1.0  0.92936  0.77827  0.71815  1.0000 0.74848874
Cu  Cu4       1.0  0.42936  0.22173  0.28185  1.0000 0.74848874
H   H1        1.0  0.73490  0.30860  0.33210  1.0000 0.1215723128
H   H2        1.0  0.23490  0.69140  0.66790  1.0000 0.1215723128
H   H3        1.0  0.23490  0.19140  0.83210  1.0000 0.1215723128
H   H4        1.0  0.73490  0.80860  0.16790  1.0000 0.1215723128
H   H5        1.0  0.60890  0.23300  0.12550  1.0000 0.1311687984
H   H6        1.0  0.10890  0.76700  0.87450  1.0000 0.1311687984
H   H7        1.0  0.10890  0.26700  0.62550  1.0000 0.1311687984
H   H8        1.0  0.60890  0.73300  0.37450  1.0000 0.1311687984
H   H9        1.0  0.86040  0.29250  0.11230  1.0000 0.1361980397
H   H10       1.0  0.36040  0.70750  0.88770  1.0000 0.1361980397
H   H11       1.0  0.36040  0.20750  0.61230  1.0000 0.1361980397
H   H12       1.0  0.86040  0.79250  0.38770  1.0000 0.1361980397
H   H13       1.0  0.02400  0.33300  0.29970  1.0000 0.1118161583
H   H14       1.0  0.52400  0.66700  0.70030  1.0000 0.1118161583
H   H15       1.0  0.52400  0.16700  0.79970  1.0000 0.1118161583
H   H16       1.0  0.02400  0.83300  0.20030  1.0000 0.1118161583
H   H17       1.0  0.05880  0.34620  0.21100  1.0000 0.1118161583
H   H18       1.0  0.55880  0.65380  0.78900  1.0000 0.1118161583
H   H19       1.0  0.55880  0.15380  0.71100  1.0000 0.1118161583
H   H20       1.0  0.05880  0.84620  0.28900  1.0000 0.1118161583
H   H21       1.0  0.92450  0.46580  0.31140  1.0000 0.103525686
H   H22       1.0  0.42450  0.53420  0.68860  1.0000 0.103525686
H   H23       1.0  0.42450  0.03420  0.81140  1.0000 0.103525686
H   H24       1.0  0.92450  0.96580  0.18860  1.0000 0.103525686
H   H25       1.0  0.06820  0.48020  0.26220  1.0000 0.1118161583
H   H26       1.0  0.56820  0.51980  0.73780  1.0000 0.1118161583
H   H27       1.0  0.56820  0.01980  0.76220  1.0000 0.1118161583
H   H28       1.0  0.06820  0.98020  0.23780  1.0000 0.1118161583
H   H29       1.0  0.92330  0.48460  0.14760  1.0000 0.1118161583
H   H30       1.0  0.42330  0.51540  0.85240  1.0000 0.1118161583
H   H31       1.0  0.42330  0.01540  0.64760  1.0000 0.1118161583
H   H32       1.0  0.92330  0.98460  0.35240  1.0000 0.1118161583
H   H33       1.0  0.78070  0.47430  0.19870  1.0000 0.1118161583
H   H34       1.0  0.28070  0.52570  0.80130  1.0000 0.1118161583
H   H35       1.0  0.28070  0.02570  0.69870  1.0000 0.1118161583
H   H36       1.0  0.78070  0.97430  0.30130  1.0000 0.1118161583
H   H37       1.0  0.85610  0.61160  0.26210  1.0000 0.1118161583
H   H38       1.0  0.35610  0.38840  0.73790  1.0000 0.1118161583
H   H39       1.0  0.35610  0.88840  0.76210  1.0000 0.1118161583
H   H40       1.0  0.85610  0.11160  0.23790  1.0000 0.1118161583
H   H41       1.0  0.78770  0.61950  0.17830  1.0000 0.1118161583
H   H42       1.0  0.28770  0.38050  0.82170  1.0000 0.1118161583
H   H43       1.0  0.28770  0.88050  0.67830  1.0000 0.1118161583
H   H44       1.0  0.78770  0.11950  0.32170  1.0000 0.1118161583
H   H45       1.0  0.14310  0.63890  0.27390  1.0000 0.1215723128
H   H46       1.0  0.64310  0.36110  0.72610  1.0000 0.1215723128
H   H47       1.0  0.64310  0.86110  0.77390  1.0000 0.1215723128
H   H48       1.0  0.14310  0.13890  0.22610  1.0000 0.1215723128
H   H49       1.0  0.96450  0.67170  0.06590  1.0000 0.1361980397
H   H50       1.0  0.46450  0.32830  0.93410  1.0000 0.1361980397
H   H51       1.0  0.46450  0.82830  0.56590  1.0000 0.1361980397
H   H52       1.0  0.96450  0.17170  0.43410  1.0000 0.1361980397
H   H53       1.0  0.21660  0.72950  0.06350  1.0000 0.1361980397
H   H54       1.0  0.71660  0.27050  0.93650  1.0000 0.1361980397
H   H55       1.0  0.71660  0.77050  0.56350  1.0000 0.1361980397
H   H56       1.0  0.21660  0.22950  0.43650  1.0000 0.1361980397
H   H57       1.0  0.19170  0.77950  0.42570  1.0000 0.1215723128
H   H58       1.0  0.69170  0.22050  0.57430  1.0000 0.1215723128
H   H59       1.0  0.69170  0.72050  0.92570  1.0000 0.1215723128
H   H60       1.0  0.19170  0.27950  0.07430  1.0000 0.1215723128
H   H61       1.0  0.12410  0.97210  0.57890  1.0000 0.1215723128
H   H62       1.0  0.62410  0.02790  0.42110  1.0000 0.1215723128
H   H63       1.0  0.62410  0.52790  0.07890  1.0000 0.1215723128
H   H64       1.0  0.12410  0.47210  0.92110  1.0000 0.1215723128
H   H65       1.0  0.26250  0.06390  0.50300  1.0000 0.1118161583
H   H66       1.0  0.76250  0.93610  0.49700  1.0000 0.1118161583
H   H67       1.0  0.76250  0.43610  0.00300  1.0000 0.1118161583
H   H68       1.0  0.26250  0.56390  0.99700  1.0000 0.1118161583
H   H69       1.0  0.34690  0.01810  0.38190  1.0000 0.1118161583
H   H70       1.0  0.84690  0.98190  0.61810  1.0000 0.1118161583
H   H71       1.0  0.84690  0.48190  0.88190  1.0000 0.1118161583
H   H72       1.0  0.34690  0.51810  0.11810  1.0000 0.1118161583
C   C1        1.0  0.73490  0.29710  0.27880  1.0000 0.103525686
C   C2        1.0  0.23490  0.70290  0.72120  1.0000 0.103525686
C   C3        1.0  0.23490  0.20290  0.77880  1.0000 0.103525686
C   C4        1.0  0.73490  0.79710  0.22120  1.0000 0.103525686
C   C5        1.0  0.66620  0.25580  0.16560  1.0000 -0.0306028486
C   C6        1.0  0.16620  0.74420  0.83440  1.0000 -0.0306028486
C   C7        1.0  0.16620  0.24420  0.66560  1.0000 -0.0306028486
C   C8        1.0  0.66620  0.75580  0.33440  1.0000 -0.0306028486
C   C9        1.0  0.80530  0.28850  0.15800  1.0000 -0.1085850389
C   C10       1.0  0.30530  0.71150  0.84200  1.0000 -0.1085850389
C   C11       1.0  0.30530  0.21150  0.65800  1.0000 -0.1085850389
C   C12       1.0  0.80530  0.78850  0.34200  1.0000 -0.1085850389
C   C13       1.0  0.98660  0.35770  0.25150  1.0000 -0.1204423449
C   C14       1.0  0.48660  0.64230  0.74850  1.0000 -0.1204423449
C   C15       1.0  0.48660  0.14230  0.75150  1.0000 -0.1204423449
C   C16       1.0  0.98660  0.85770  0.24850  1.0000 -0.1204423449
C   C17       1.0  0.97050  0.45430  0.26140  1.0000 -0.1798624984
C   C18       1.0  0.47050  0.54570  0.73860  1.0000 -0.1798624984
C   C19       1.0  0.47050  0.04570  0.76140  1.0000 -0.1798624984
C   C20       1.0  0.97050  0.95430  0.23860  1.0000 -0.1798624984
C   C21       1.0  0.88000  0.49790  0.19800  1.0000 -0.188630595
C   C22       1.0  0.38000  0.50210  0.80200  1.0000 -0.188630595
C   C23       1.0  0.38000  0.00210  0.69800  1.0000 -0.188630595
C   C24       1.0  0.88000  0.99790  0.30200  1.0000 -0.188630595
C   C25       1.0  0.87150  0.59760  0.20750  1.0000 -0.1204423449
C   C26       1.0  0.37150  0.40240  0.79250  1.0000 -0.1204423449
C   C27       1.0  0.37150  0.90240  0.70750  1.0000 -0.1204423449
C   C28       1.0  0.87150  0.09760  0.29250  1.0000 -0.1204423449
C   C29       1.0  0.13080  0.65420  0.22180  1.0000 0.0888838236
C   C30       1.0  0.63080  0.34580  0.77820  1.0000 0.0888838236
C   C31       1.0  0.63080  0.84580  0.72180  1.0000 0.0888838236
C   C32       1.0  0.13080  0.15420  0.27820  1.0000 0.0888838236
C   C33       1.0  0.03100  0.67190  0.10720  1.0000 -0.0990215606
C   C34       1.0  0.53100  0.32810  0.89280  1.0000 -0.0990215606
C   C35       1.0  0.53100  0.82810  0.60720  1.0000 -0.0990215606
C   C36       1.0  0.03100  0.17190  0.39280  1.0000 -0.0990215606
C   C37       1.0  0.17030  0.70390  0.10610  1.0000 -0.0418116032
C   C38       1.0  0.67030  0.29610  0.89390  1.0000 -0.0418116032
C   C39       1.0  0.67030  0.79610  0.60610  1.0000 -0.0418116032
C   C40       1.0  0.17030  0.20390  0.39390  1.0000 -0.0418116032
C   C41       1.0  0.28110  0.89290  0.39280  1.0000 -0.0306028486
C   C42       1.0  0.78110  0.10710  0.60720  1.0000 -0.0306028486
C   C43       1.0  0.78110  0.60710  0.89280  1.0000 -0.0306028486
C   C44       1.0  0.28110  0.39290  0.10720  1.0000 -0.0306028486
C   C45       1.0  0.20330  0.83720  0.44030  1.0000 -0.1399199209
C   C46       1.0  0.70330  0.16280  0.55970  1.0000 -0.1399199209
C   C47       1.0  0.70330  0.66280  0.94030  1.0000 -0.1399199209
C   C48       1.0  0.20330  0.33720  0.05970  1.0000 -0.1399199209
C   C49       1.0  0.14210  0.86630  0.50970  1.0000 -0.0306028486
C   C50       1.0  0.64210  0.13370  0.49030  1.0000 -0.0306028486
C   C51       1.0  0.64210  0.63370  0.00970  1.0000 -0.0306028486
C   C52       1.0  0.14210  0.36630  0.99030  1.0000 -0.0306028486
C   C53       1.0  0.16420  0.95220  0.53230  1.0000 -0.1204423449
C   C54       1.0  0.66420  0.04780  0.46770  1.0000 -0.1204423449
C   C55       1.0  0.66420  0.54780  0.03230  1.0000 -0.1204423449
C   C56       1.0  0.16420  0.45220  0.96770  1.0000 -0.1204423449
C   C57       1.0  0.24440  0.00740  0.48640  1.0000 -0.1085850389
C   C58       1.0  0.74440  0.99260  0.51360  1.0000 -0.1085850389
C   C59       1.0  0.74440  0.49260  0.98640  1.0000 -0.1085850389
C   C60       1.0  0.24440  0.50740  0.01360  1.0000 -0.1085850389
C   C61       1.0  0.29890  0.97940  0.41480  1.0000 -0.1085850389
C   C62       1.0  0.79890  0.02060  0.58520  1.0000 -0.1085850389
C   C63       1.0  0.79890  0.52060  0.91480  1.0000 -0.1085850389
C   C64       1.0  0.29890  0.47940  0.08520  1.0000 -0.1085850389
C   C65       1.0  0.34380  0.86140  0.31690  1.0000 0.5375319429
C   C66       1.0  0.84380  0.13860  0.68310  1.0000 0.5375319429
C   C67       1.0  0.84380  0.63860  0.81690  1.0000 0.5375319429
C   C68       1.0  0.34380  0.36140  0.18310  1.0000 0.5375319429
C   C69       1.0  0.05390  0.80560  0.56220  1.0000 0.5375319429
C   C70       1.0  0.55390  0.19440  0.43780  1.0000 0.5375319429
C   C71       1.0  0.55390  0.69440  0.06220  1.0000 0.5375319429
C   C72       1.0  0.05390  0.30560  0.93780  1.0000 0.5375319429
N   N1        1.0  0.62530  0.26210  0.24140  1.0000 -0.2881736486
N   N2        1.0  0.12530  0.73790  0.75860  1.0000 -0.2881736486
N   N3        1.0  0.12530  0.23790  0.74140  1.0000 -0.2881736486
N   N4        1.0  0.62530  0.76210  0.25860  1.0000 -0.2881736486
N   N5        1.0  0.84760  0.31440  0.23110  1.0000 0.0346130066
N   N6        1.0  0.34760  0.68560  0.76890  1.0000 0.0346130066
N   N7        1.0  0.34760  0.18560  0.73110  1.0000 0.0346130066
N   N8        1.0  0.84760  0.81440  0.26890  1.0000 0.0346130066
N   N9        1.0  0.00670  0.64030  0.18010  1.0000 0.0398344443
N   N10       1.0  0.50670  0.35970  0.81990  1.0000 0.0398344443
N   N11       1.0  0.50670  0.85970  0.68010  1.0000 0.0398344443
N   N12       1.0  0.00670  0.14030  0.31990  1.0000 0.0398344443
N   N13       1.0  0.23190  0.69220  0.17900  1.0000 -0.2881736486
N   N14       1.0  0.73190  0.30780  0.82100  1.0000 -0.2881736486
N   N15       1.0  0.73190  0.80780  0.67900  1.0000 -0.2881736486
N   N16       1.0  0.23190  0.19220  0.32100  1.0000 -0.2881736486
O   O1        1.0  0.33900  0.78000  0.30650  1.0000 -0.5517369054
O   O2        1.0  0.83900  0.22000  0.69350  1.0000 -0.5517369054
O   O3        1.0  0.83900  0.72000  0.80650  1.0000 -0.5517369054
O   O4        1.0  0.33900  0.28000  0.19350  1.0000 -0.5517369054
O   O5        1.0  0.39190  0.91490  0.26930  1.0000 -0.5591874413
O   O6        1.0  0.89190  0.08510  0.73070  1.0000 -0.5591874413
O   O7        1.0  0.89190  0.58510  0.76930  1.0000 -0.5591874413
O   O8        1.0  0.39190  0.41490  0.23070  1.0000 -0.5591874413
O   O9        1.0  0.02560  0.83410  0.62890  1.0000 -0.5517369054
O   O10       1.0  0.52560  0.16590  0.37110  1.0000 -0.5517369054
O   O11       1.0  0.52560  0.66590  0.12890  1.0000 -0.5517369054
O   O12       1.0  0.02560  0.33410  0.87110  1.0000 -0.5517369054
O   O13       1.0  0.01370  0.73440  0.53600  1.0000 -0.5591874413
O   O14       1.0  0.51370  0.26560  0.46400  1.0000 -0.5591874413
O   O15       1.0  0.51370  0.76560  0.03600  1.0000 -0.5591874413
O   O16       1.0  0.01370  0.23440  0.96400  1.0000 -0.5591874413
