# DDEC6 charges by PACMAN v1.1 (https://github.com/mtap-research/PACMAN-charge/)
data_2003[Zn][nan]3[ASR]5
_chemical_formula_sum              "Zn10 H12 C40 O36"
_cell_length_a       7.4087
_cell_length_b       16.4236
_cell_length_c       15.729
_cell_angle_alpha    90
_cell_angle_beta     112.992
_cell_angle_gamma    90

_symmetry_space_group_name_H-M    "P 1"
_symmetry_Int_Tables_number       1

loop_
  _symmetry_equiv_pos_as_xyz
  'x, y, z'

loop_
  _atom_site_type_symbol
  _atom_site_label
  _atom_site_symmetry_multiplicity
  _atom_site_fract_x
  _atom_site_fract_y
  _atom_site_fract_z
  _atom_site_occupancy
  _atom_site_charge
Zn  Zn1       1.0  0.00000  0.50000  0.50000  1.0000 0.9942821516
Zn  Zn2       1.0  0.00000  0.00000  0.00000  1.0000 0.9942821516
Zn  Zn3       1.0  0.45927  0.51808  0.68087  1.0000 0.978233154
Zn  Zn4       1.0  0.54073  0.01808  0.81913  1.0000 0.978233154
Zn  Zn5       1.0  0.54073  0.48192  0.31913  1.0000 0.978233154
Zn  Zn6       1.0  0.45927  0.98192  0.18087  1.0000 0.978233154
Zn  Zn7       1.0  0.28780  0.62723  0.47910  1.0000 0.9723759247
Zn  Zn8       1.0  0.71220  0.12723  0.02090  1.0000 0.9723759247
Zn  Zn9       1.0  0.71220  0.37277  0.52090  1.0000 0.9723759247
Zn  Zn10      1.0  0.28780  0.87277  0.97910  1.0000 0.9723759247
H   H1        1.0  0.64580  0.52400  0.48200  1.0000 0.3897275282
H   H2        1.0  0.35420  0.02400  0.01800  1.0000 0.3897275282
H   H3        1.0  0.35420  0.47600  0.51800  1.0000 0.3897275282
H   H4        1.0  0.64580  0.97600  0.98200  1.0000 0.3897275282
H   H5        1.0  0.24540  0.79460  0.67420  1.0000 0.1371631725
H   H6        1.0  0.75460  0.29460  0.82580  1.0000 0.1371631725
H   H7        1.0  0.75460  0.20540  0.32580  1.0000 0.1371631725
H   H8        1.0  0.24540  0.70540  0.17420  1.0000 0.1371631725
H   H9        1.0  0.68060  0.77560  0.72920  1.0000 0.1371631725
H   H10       1.0  0.31940  0.27560  0.77080  1.0000 0.1371631725
H   H11       1.0  0.31940  0.22440  0.27080  1.0000 0.1371631725
H   H12       1.0  0.68060  0.72440  0.22920  1.0000 0.1371631725
C   C1        1.0  0.83370  0.71970  0.66440  1.0000 -0.0045278828
C   C2        1.0  0.16630  0.21970  0.83560  1.0000 -0.0045278828
C   C3        1.0  0.16630  0.28030  0.33560  1.0000 -0.0045278828
C   C4        1.0  0.83370  0.78030  0.16440  1.0000 -0.0045278828
C   C5        1.0  0.00450  0.72530  0.64760  1.0000 -0.0492104464
C   C6        1.0  0.99550  0.22530  0.85240  1.0000 -0.0492104464
C   C7        1.0  0.99550  0.27470  0.35240  1.0000 -0.0492104464
C   C8        1.0  0.00450  0.77470  0.14760  1.0000 -0.0492104464
C   C9        1.0  0.13370  0.78950  0.68720  1.0000 -0.1039966987
C   C10       1.0  0.86630  0.28950  0.81280  1.0000 -0.1054965267
C   C11       1.0  0.86630  0.21050  0.31280  1.0000 -0.1054965267
C   C12       1.0  0.13370  0.71050  0.18720  1.0000 -0.1039966987
C   C13       1.0  0.10090  0.84550  0.74480  1.0000 -0.0492104464
C   C14       1.0  0.89910  0.34550  0.75520  1.0000 -0.0492104464
C   C15       1.0  0.89910  0.15450  0.25520  1.0000 -0.0492104464
C   C16       1.0  0.10090  0.65450  0.24480  1.0000 -0.0492104464
C   C17       1.0  0.92720  0.84030  0.75990  1.0000 -0.0341844074
C   C18       1.0  0.07280  0.34030  0.74010  1.0000 -0.0341844074
C   C19       1.0  0.07280  0.15970  0.24010  1.0000 -0.0341844074
C   C20       1.0  0.92720  0.65970  0.25990  1.0000 -0.0341844074
C   C21       1.0  0.79650  0.77840  0.71950  1.0000 -0.1261223247
C   C22       1.0  0.20350  0.27840  0.78050  1.0000 -0.1261223247
C   C23       1.0  0.20350  0.22160  0.28050  1.0000 -0.1261223247
C   C24       1.0  0.79650  0.72160  0.21950  1.0000 -0.1261223247
C   C25       1.0  0.68000  0.65430  0.62590  1.0000 0.6123232497
C   C26       1.0  0.32000  0.15430  0.87410  1.0000 0.6123232497
C   C27       1.0  0.32000  0.34570  0.37410  1.0000 0.6123232497
C   C28       1.0  0.68000  0.84570  0.12590  1.0000 0.6123232497
C   C29       1.0  0.05760  0.66370  0.59200  1.0000 0.5988808303
C   C30       1.0  0.94240  0.16370  0.90800  1.0000 0.5988808303
C   C31       1.0  0.94240  0.33630  0.40800  1.0000 0.5988808303
C   C32       1.0  0.05760  0.83630  0.09200  1.0000 0.5988808303
C   C33       1.0  0.25820  0.90790  0.78630  1.0000 0.5988808303
C   C34       1.0  0.74180  0.40790  0.71370  1.0000 0.5988808303
C   C35       1.0  0.74180  0.09210  0.21370  1.0000 0.5988808303
C   C36       1.0  0.25820  0.59210  0.28630  1.0000 0.5988808303
C   C37       1.0  0.87340  0.90070  0.81900  1.0000 0.6195435776
C   C38       1.0  0.12660  0.40070  0.68100  1.0000 0.6195435776
C   C39       1.0  0.12660  0.09930  0.18100  1.0000 0.6195435776
C   C40       1.0  0.87340  0.59930  0.31900  1.0000 0.6195435776
O   O1        1.0  0.57260  0.65900  0.54260  1.0000 -0.5375928925
O   O2        1.0  0.42740  0.15900  0.95740  1.0000 -0.5375928925
O   O3        1.0  0.42740  0.34100  0.45740  1.0000 -0.5375928925
O   O4        1.0  0.57260  0.84100  0.04260  1.0000 -0.5375928925
O   O5        1.0  0.66590  0.60530  0.68330  1.0000 -0.5466589229
O   O6        1.0  0.33410  0.10530  0.81670  1.0000 -0.5466589229
O   O7        1.0  0.33410  0.39470  0.31670  1.0000 -0.5466589229
O   O8        1.0  0.66590  0.89470  0.18330  1.0000 -0.5466589229
O   O9        1.0  0.18250  0.68620  0.56030  1.0000 -0.5671147154
O   O10       1.0  0.81750  0.18620  0.93970  1.0000 -0.5671147154
O   O11       1.0  0.81750  0.31380  0.43970  1.0000 -0.5671147154
O   O12       1.0  0.18250  0.81380  0.06030  1.0000 -0.5671147154
O   O13       1.0  0.97710  0.59590  0.58090  1.0000 -0.5335742431
O   O14       1.0  0.02290  0.09590  0.91910  1.0000 -0.5335742431
O   O15       1.0  0.02290  0.40410  0.41910  1.0000 -0.5335742431
O   O16       1.0  0.97710  0.90410  0.08090  1.0000 -0.5335742431
O   O17       1.0  0.34790  0.91300  0.87160  1.0000 -0.5598176466
O   O18       1.0  0.65210  0.41300  0.62840  1.0000 -0.5598176466
O   O19       1.0  0.65210  0.08700  0.12840  1.0000 -0.5598176466
O   O20       1.0  0.34790  0.58700  0.37160  1.0000 -0.5598176466
O   O21       1.0  0.30570  0.95040  0.73290  1.0000 -0.4828513013
O   O22       1.0  0.69430  0.45040  0.76710  1.0000 -0.4828513013
O   O23       1.0  0.69430  0.04960  0.26710  1.0000 -0.4828513013
O   O24       1.0  0.30570  0.54960  0.23290  1.0000 -0.4828513013
O   O25       1.0  0.70480  0.92950  0.78310  1.0000 -0.5237022387
O   O26       1.0  0.29520  0.42950  0.71690  1.0000 -0.5237022387
O   O27       1.0  0.29520  0.07050  0.21690  1.0000 -0.5237022387
O   O28       1.0  0.70480  0.57050  0.28310  1.0000 -0.5237022387
O   O29       1.0  0.99590  0.91570  0.89730  1.0000 -0.5598176466
O   O30       1.0  0.00410  0.41570  0.60270  1.0000 -0.5598176466
O   O31       1.0  0.00410  0.08430  0.10270  1.0000 -0.5598176466
O   O32       1.0  0.99590  0.58430  0.39730  1.0000 -0.5598176466
O   O33       1.0  0.69950  0.48260  0.45350  1.0000 -0.8623007881
O   O34       1.0  0.30050  0.98260  0.04650  1.0000 -0.8623007881
O   O35       1.0  0.30050  0.51740  0.54650  1.0000 -0.8623007881
O   O36       1.0  0.69950  0.01740  0.95350  1.0000 -0.8623007881
