# DDEC6 charges by PACMAN v1.1 (https://github.com/mtap-research/PACMAN-charge/)
data_2004[Ag][sra]3[ASR]1
_chemical_formula_sum              "Ag12 H120 C144 N72"
_cell_length_a       10.4641
_cell_length_b       15.6701
_cell_length_c       31.1907
_cell_angle_alpha    90
_cell_angle_beta     94.884
_cell_angle_gamma    90

_symmetry_space_group_name_H-M    "P 1"
_symmetry_Int_Tables_number       1

loop_
  _symmetry_equiv_pos_as_xyz
  'x, y, z'

loop_
  _atom_site_type_symbol
  _atom_site_label
  _atom_site_symmetry_multiplicity
  _atom_site_fract_x
  _atom_site_fract_y
  _atom_site_fract_z
  _atom_site_occupancy
  _atom_site_charge
Ag  Ag1       1.0  0.33130  0.94134  0.48724  1.0000 0.2587996417
Ag  Ag2       1.0  0.66870  0.05866  0.51276  1.0000 0.2587996417
Ag  Ag3       1.0  0.16870  0.44134  0.01276  1.0000 0.2587996417
Ag  Ag4       1.0  0.83130  0.55866  0.98724  1.0000 0.2587996417
Ag  Ag5       1.0  0.48231  0.57694  0.66532  1.0000 0.2587996417
Ag  Ag6       1.0  0.51769  0.42306  0.33468  1.0000 0.2587996417
Ag  Ag7       1.0  0.01769  0.07694  0.83468  1.0000 0.2587996417
Ag  Ag8       1.0  0.98231  0.92306  0.16532  1.0000 0.2587996417
Ag  Ag9       1.0  0.82522  0.44063  0.67153  1.0000 0.2587996417
Ag  Ag10      1.0  0.17478  0.55937  0.32847  1.0000 0.2587996417
Ag  Ag11      1.0  0.67478  0.94063  0.82847  1.0000 0.2587996417
Ag  Ag12      1.0  0.32522  0.05937  0.17153  1.0000 0.2587996417
H   H1        1.0  0.35433  0.56030  0.41434  1.0000 0.0782965701
H   H2        1.0  0.64567  0.43970  0.58566  1.0000 0.0782965701
H   H3        1.0  0.14567  0.06030  0.08566  1.0000 0.0782965701
H   H4        1.0  0.85433  0.93970  0.91434  1.0000 0.0782965701
H   H5        1.0  0.52940  0.65796  0.44398  1.0000 0.1079236792
H   H6        1.0  0.47060  0.34204  0.55602  1.0000 0.1079236792
H   H7        1.0  0.97060  0.15796  0.05602  1.0000 0.1079236792
H   H8        1.0  0.02940  0.84204  0.94398  1.0000 0.1079236792
H   H9        1.0  0.30185  0.87018  0.38979  1.0000 0.103427585
H   H10       1.0  0.69815  0.12982  0.61021  1.0000 0.1079236792
H   H11       1.0  0.19815  0.37018  0.11021  1.0000 0.103427585
H   H12       1.0  0.80185  0.62982  0.88979  1.0000 0.1079236792
H   H13       1.0  0.13707  0.76242  0.36079  1.0000 0.0782965701
H   H14       1.0  0.86293  0.23758  0.63921  1.0000 0.0782965701
H   H15       1.0  0.36293  0.26242  0.13921  1.0000 0.0782965701
H   H16       1.0  0.63707  0.73758  0.86079  1.0000 0.0782965701
H   H17       1.0  0.12128  0.93494  0.40795  1.0000 0.0705613167
H   H18       1.0  0.87872  0.06506  0.59205  1.0000 0.0705613167
H   H19       1.0  0.37872  0.43494  0.09205  1.0000 0.0705613167
H   H20       1.0  0.62128  0.56506  0.90795  1.0000 0.0705613167
H   H21       1.0  0.88402  0.91817  0.39478  1.0000 0.1079236792
H   H22       1.0  0.11598  0.08183  0.60522  1.0000 0.1079236792
H   H23       1.0  0.61598  0.41817  0.10522  1.0000 0.1079236792
H   H24       1.0  0.38402  0.58183  0.89478  1.0000 0.1079236792
H   H25       1.0  0.87151  0.87996  0.53264  1.0000 0.103427585
H   H26       1.0  0.12849  0.12004  0.46736  1.0000 0.103427585
H   H27       1.0  0.62849  0.37996  0.96736  1.0000 0.103427585
H   H28       1.0  0.37151  0.62004  0.03264  1.0000 0.103427585
H   H29       1.0  0.11409  0.89110  0.53950  1.0000 0.0782965701
H   H30       1.0  0.88591  0.10890  0.46050  1.0000 0.0782965701
H   H31       1.0  0.38591  0.39110  0.96050  1.0000 0.0782965701
H   H32       1.0  0.61409  0.60890  0.03950  1.0000 0.0782965701
H   H33       1.0  0.47271  0.93047  0.57809  1.0000 0.0782965701
H   H34       1.0  0.52729  0.06953  0.42191  1.0000 0.0782965701
H   H35       1.0  0.02729  0.43047  0.92191  1.0000 0.0782965701
H   H36       1.0  0.97271  0.56953  0.07809  1.0000 0.0782965701
H   H37       1.0  0.65219  0.83971  0.61166  1.0000 0.1079236792
H   H38       1.0  0.34781  0.16029  0.38834  1.0000 0.1079236792
H   H39       1.0  0.84781  0.33971  0.88834  1.0000 0.1079236792
H   H40       1.0  0.15219  0.66029  0.11166  1.0000 0.1079236792
H   H41       1.0  0.47320  0.62277  0.54392  1.0000 0.1079236792
H   H42       1.0  0.52680  0.37723  0.45608  1.0000 0.1079236792
H   H43       1.0  0.02680  0.12277  0.95608  1.0000 0.1079236792
H   H44       1.0  0.97320  0.87723  0.04392  1.0000 0.1079236792
H   H45       1.0  0.30347  0.72432  0.51110  1.0000 0.0782965701
H   H46       1.0  0.69653  0.27568  0.48890  1.0000 0.0782965701
H   H47       1.0  0.19653  0.22432  0.98890  1.0000 0.0782965701
H   H48       1.0  0.80347  0.77568  0.01110  1.0000 0.0782965701
H   H49       1.0  0.28895  0.60433  0.58441  1.0000 0.0705613167
H   H50       1.0  0.71105  0.39567  0.41559  1.0000 0.0705613167
H   H51       1.0  0.21105  0.10433  0.91559  1.0000 0.0705613167
H   H52       1.0  0.78895  0.89567  0.08441  1.0000 0.0705613167
H   H53       1.0  0.05572  0.61648  0.56512  1.0000 0.103427585
H   H54       1.0  0.94428  0.38352  0.43488  1.0000 0.1079236792
H   H55       1.0  0.44428  0.11648  0.93488  1.0000 0.103427585
H   H56       1.0  0.55572  0.88352  0.06512  1.0000 0.103427585
H   H57       1.0  0.00441  0.61723  0.70285  1.0000 0.1079236792
H   H58       1.0  0.99559  0.38277  0.29715  1.0000 0.1079236792
H   H59       1.0  0.49559  0.11723  0.79715  1.0000 0.1079236792
H   H60       1.0  0.50441  0.88277  0.20285  1.0000 0.1079236792
H   H61       1.0  0.24442  0.60824  0.71596  1.0000 0.0705613167
H   H62       1.0  0.75558  0.39176  0.28404  1.0000 0.0705613167
H   H63       1.0  0.25558  0.10824  0.78404  1.0000 0.0705613167
H   H64       1.0  0.74442  0.89176  0.21596  1.0000 0.0705613167
H   H65       1.0  0.03035  0.40983  0.74888  1.0000 0.0705613167
H   H66       1.0  0.96965  0.59017  0.25112  1.0000 0.0705613167
H   H67       1.0  0.46965  0.90983  0.75112  1.0000 0.0705613167
H   H68       1.0  0.53035  0.09017  0.24888  1.0000 0.0705613167
H   H69       1.0  0.26679  0.39149  0.76280  1.0000 0.1079236792
H   H70       1.0  0.73321  0.60851  0.23720  1.0000 0.1079236792
H   H71       1.0  0.23321  0.89149  0.73720  1.0000 0.1079236792
H   H72       1.0  0.76679  0.10851  0.26280  1.0000 0.1079236792
H   H73       1.0  0.29106  0.39930  0.62397  1.0000 0.1079236792
H   H74       1.0  0.70894  0.60070  0.37603  1.0000 0.1079236792
H   H75       1.0  0.20894  0.89930  0.87603  1.0000 0.1079236792
H   H76       1.0  0.79106  0.10070  0.12397  1.0000 0.1079236792
H   H77       1.0  0.04894  0.41258  0.61600  1.0000 0.0782965701
H   H78       1.0  0.95106  0.58742  0.38400  1.0000 0.0782965701
H   H79       1.0  0.45106  0.91258  0.88400  1.0000 0.0782965701
H   H80       1.0  0.54894  0.08742  0.11600  1.0000 0.0782965701
H   H81       1.0  0.82552  0.06577  0.74864  1.0000 0.0782965701
H   H82       1.0  0.17448  0.93423  0.25136  1.0000 0.0782965701
H   H83       1.0  0.67448  0.56577  0.75136  1.0000 0.0782965701
H   H84       1.0  0.32552  0.43423  0.24864  1.0000 0.0782965701
H   H85       1.0  0.65179  0.15654  0.71163  1.0000 0.1079236792
H   H86       1.0  0.34821  0.84346  0.28837  1.0000 0.1079236792
H   H87       1.0  0.84821  0.65654  0.78837  1.0000 0.1079236792
H   H88       1.0  0.15179  0.34346  0.21163  1.0000 0.1079236792
H   H89       1.0  0.83016  0.37601  0.77767  1.0000 0.1079236792
H   H90       1.0  0.16984  0.62399  0.22233  1.0000 0.1079236792
H   H91       1.0  0.66984  0.87601  0.72233  1.0000 0.1079236792
H   H92       1.0  0.33016  0.12399  0.27767  1.0000 0.1079236792
H   H93       1.0  0.99686  0.27509  0.81263  1.0000 0.0782965701
H   H94       1.0  0.00314  0.72491  0.18737  1.0000 0.0782965701
H   H95       1.0  0.50314  0.77509  0.68737  1.0000 0.0782965701
H   H96       1.0  0.49686  0.22491  0.31263  1.0000 0.0782965701
H   H97       1.0  0.75656  0.78298  0.38420  1.0000 0.2418612775
H   H98       1.0  0.24344  0.21702  0.61580  1.0000 0.2418612775
H   H99       1.0  0.74344  0.28298  0.11580  1.0000 0.2418612775
H   H100      1.0  0.25656  0.71702  0.88420  1.0000 0.2418612775
H   H101      1.0  0.78141  0.72361  0.42824  1.0000 0.2492892359
H   H102      1.0  0.21859  0.27639  0.57176  1.0000 0.2492892359
H   H103      1.0  0.71859  0.22361  0.07176  1.0000 0.2492892359
H   H104      1.0  0.28141  0.77639  0.92824  1.0000 0.2492892359
H   H105      1.0  0.92653  0.77843  0.59063  1.0000 0.2492892359
H   H106      1.0  0.07347  0.22157  0.40937  1.0000 0.2492892359
H   H107      1.0  0.57347  0.27843  0.90937  1.0000 0.2492892359
H   H108      1.0  0.42653  0.72157  0.09063  1.0000 0.2492892359
H   H109      1.0  0.89585  0.72116  0.54633  1.0000 0.2418612775
H   H110      1.0  0.10415  0.27884  0.45367  1.0000 0.2418612775
H   H111      1.0  0.60415  0.22116  0.95367  1.0000 0.2492892359
H   H112      1.0  0.39585  0.77884  0.04633  1.0000 0.2418612775
H   H113      1.0  0.37474  0.21702  0.71829  1.0000 0.2418612775
H   H114      1.0  0.62526  0.78298  0.28171  1.0000 0.2418612775
H   H115      1.0  0.12526  0.71702  0.78171  1.0000 0.2418612775
H   H116      1.0  0.87474  0.28298  0.21829  1.0000 0.2418612775
H   H117      1.0  0.40064  0.25975  0.76712  1.0000 0.2492892359
H   H118      1.0  0.59936  0.74025  0.23288  1.0000 0.2492892359
H   H119      1.0  0.09936  0.75975  0.73288  1.0000 0.2492892359
H   H120      1.0  0.90064  0.24025  0.26712  1.0000 0.2492892359
C   C1        1.0  0.34629  0.62964  0.40984  1.0000 0.0782965701
C   C2        1.0  0.65371  0.37036  0.59016  1.0000 0.0782965701
C   C3        1.0  0.15371  0.12964  0.09016  1.0000 0.0782965701
C   C4        1.0  0.84629  0.87036  0.90984  1.0000 0.0782965701
C   C5        1.0  0.44400  0.68374  0.42567  1.0000 -0.1825625741
C   C6        1.0  0.55600  0.31626  0.57433  1.0000 -0.1825625741
C   C7        1.0  0.05600  0.18374  0.07433  1.0000 -0.1825625741
C   C8        1.0  0.94400  0.81626  0.92567  1.0000 -0.1825625741
C   C9        1.0  0.42981  0.77289  0.41887  1.0000 0.0509479769
C   C10       1.0  0.57019  0.22711  0.58113  1.0000 0.0509479769
C   C11       1.0  0.07019  0.27289  0.08113  1.0000 0.0509479769
C   C12       1.0  0.92981  0.72711  0.91887  1.0000 0.0509479769
C   C13       1.0  0.31503  0.80193  0.39619  1.0000 -0.199594361
C   C14       1.0  0.68497  0.19807  0.60381  1.0000 -0.199594361
C   C15       1.0  0.18497  0.30193  0.10381  1.0000 -0.199594361
C   C16       1.0  0.81503  0.69807  0.89619  1.0000 -0.199594361
C   C17       1.0  0.22394  0.74266  0.38053  1.0000 0.0705613167
C   C18       1.0  0.77606  0.25734  0.61947  1.0000 0.0705613167
C   C19       1.0  0.27606  0.24266  0.11947  1.0000 0.0705613167
C   C20       1.0  0.72394  0.75734  0.88053  1.0000 0.0705613167
C   C21       1.0  0.52788  0.83183  0.43555  1.0000 0.170441294
C   C22       1.0  0.47212  0.16817  0.56445  1.0000 0.170441294
C   C23       1.0  0.97212  0.33183  0.06445  1.0000 0.170441294
C   C24       1.0  0.02788  0.66817  0.93555  1.0000 0.170441294
C   C25       1.0  0.72069  0.88605  0.45726  1.0000 0.1507901996
C   C26       1.0  0.27931  0.11395  0.54274  1.0000 0.1507901996
C   C27       1.0  0.77931  0.38605  0.04274  1.0000 0.1507901996
C   C28       1.0  0.22069  0.61395  0.95726  1.0000 0.1507901996
C   C29       1.0  0.06301  0.91845  0.43426  1.0000 0.0615646434
C   C30       1.0  0.93699  0.08155  0.56574  1.0000 0.0615646434
C   C31       1.0  0.43699  0.41845  0.06574  1.0000 0.0615646434
C   C32       1.0  0.56301  0.58155  0.93426  1.0000 0.0615646434
C   C33       1.0  0.93111  0.90958  0.42722  1.0000 -0.2114187163
C   C34       1.0  0.06889  0.09042  0.57278  1.0000 -0.199594361
C   C35       1.0  0.56889  0.40958  0.07278  1.0000 -0.2114187163
C   C36       1.0  0.43111  0.59042  0.92722  1.0000 -0.2114187163
C   C37       1.0  0.85846  0.89533  0.46294  1.0000 0.0391569808
C   C38       1.0  0.14154  0.10467  0.53706  1.0000 0.0391569808
C   C39       1.0  0.64154  0.39533  0.03706  1.0000 0.0391569808
C   C40       1.0  0.35846  0.60467  0.96294  1.0000 0.0391569808
C   C41       1.0  0.92514  0.89025  0.50445  1.0000 -0.1906971503
C   C42       1.0  0.07486  0.10975  0.49555  1.0000 -0.1906971503
C   C43       1.0  0.57486  0.39025  0.99555  1.0000 -0.1906971503
C   C44       1.0  0.42514  0.60975  0.00445  1.0000 -0.1906971503
C   C45       1.0  0.05772  0.89647  0.50832  1.0000 0.0782965701
C   C46       1.0  0.94228  0.10353  0.49168  1.0000 0.0782965701
C   C47       1.0  0.44228  0.39647  0.99168  1.0000 0.0782965701
C   C48       1.0  0.55772  0.60353  0.00832  1.0000 0.0782965701
C   C49       1.0  0.47573  0.86162  0.57180  1.0000 0.0782965701
C   C50       1.0  0.52427  0.13838  0.42820  1.0000 0.0782965701
C   C51       1.0  0.02427  0.36162  0.92820  1.0000 0.0782965701
C   C52       1.0  0.97573  0.63838  0.07180  1.0000 0.0782965701
C   C53       1.0  0.57528  0.81154  0.59012  1.0000 -0.1825625741
C   C54       1.0  0.42472  0.18846  0.40988  1.0000 -0.1825625741
C   C55       1.0  0.92472  0.31154  0.90988  1.0000 -0.1825625741
C   C56       1.0  0.07528  0.68846  0.09012  1.0000 -0.1825625741
C   C57       1.0  0.57410  0.72312  0.58097  1.0000 0.0509479769
C   C58       1.0  0.42590  0.27688  0.41903  1.0000 0.0509479769
C   C59       1.0  0.92590  0.22312  0.91903  1.0000 0.0509479769
C   C60       1.0  0.07410  0.77688  0.08097  1.0000 0.0509479769
C   C61       1.0  0.47340  0.69052  0.55278  1.0000 -0.199594361
C   C62       1.0  0.52660  0.30948  0.44722  1.0000 -0.199594361
C   C63       1.0  0.02660  0.19052  0.94722  1.0000 -0.199594361
C   C64       1.0  0.97340  0.80948  0.05278  1.0000 -0.199594361
C   C65       1.0  0.37961  0.74628  0.53500  1.0000 0.0705613167
C   C66       1.0  0.62039  0.25372  0.46500  1.0000 0.0705613167
C   C67       1.0  0.12039  0.24628  0.96500  1.0000 0.0705613167
C   C68       1.0  0.87961  0.75372  0.03500  1.0000 0.0705613167
C   C69       1.0  0.67529  0.66825  0.60010  1.0000 0.1754793692
C   C70       1.0  0.32471  0.33175  0.39990  1.0000 0.1754793692
C   C71       1.0  0.82471  0.16825  0.89990  1.0000 0.1754793692
C   C72       1.0  0.17529  0.83175  0.10010  1.0000 0.1754793692
C   C73       1.0  0.87106  0.62300  0.62431  1.0000 0.1431794147
C   C74       1.0  0.12894  0.37700  0.37569  1.0000 0.1431794147
C   C75       1.0  0.62894  0.12300  0.87569  1.0000 0.1431794147
C   C76       1.0  0.37106  0.87700  0.12431  1.0000 0.1431794147
C   C77       1.0  0.22264  0.61002  0.60960  1.0000 0.0705613167
C   C78       1.0  0.77736  0.38998  0.39040  1.0000 0.0705613167
C   C79       1.0  0.27736  0.11002  0.89040  1.0000 0.0705613167
C   C80       1.0  0.72264  0.88998  0.10960  1.0000 0.0705613167
C   C81       1.0  0.09214  0.61766  0.59922  1.0000 -0.199594361
C   C82       1.0  0.90786  0.38234  0.40078  1.0000 -0.199594361
C   C83       1.0  0.40786  0.11766  0.90078  1.0000 -0.199594361
C   C84       1.0  0.59214  0.88234  0.09922  1.0000 -0.199594361
C   C85       1.0  0.00788  0.61967  0.63280  1.0000 0.0391569808
C   C86       1.0  0.99212  0.38033  0.36720  1.0000 0.0391569808
C   C87       1.0  0.49212  0.11967  0.86720  1.0000 0.0391569808
C   C88       1.0  0.50788  0.88033  0.13280  1.0000 0.0391569808
C   C89       1.0  0.06518  0.61505  0.67590  1.0000 -0.1906971503
C   C90       1.0  0.93482  0.38495  0.32410  1.0000 -0.1906971503
C   C91       1.0  0.43482  0.11505  0.82410  1.0000 -0.1906971503
C   C92       1.0  0.56518  0.88495  0.17590  1.0000 -0.1906971503
C   C93       1.0  0.19680  0.61060  0.68321  1.0000 0.0705613167
C   C94       1.0  0.80320  0.38940  0.31679  1.0000 0.0705613167
C   C95       1.0  0.30320  0.11060  0.81679  1.0000 0.0705613167
C   C96       1.0  0.69680  0.88940  0.18321  1.0000 0.0705613167
C   C97       1.0  0.09147  0.40408  0.72222  1.0000 0.0615646434
C   C98       1.0  0.90853  0.59592  0.27778  1.0000 0.0615646434
C   C99       1.0  0.40853  0.90408  0.77778  1.0000 0.0615646434
C   C100      1.0  0.59147  0.09592  0.22222  1.0000 0.0615646434
C   C101      1.0  0.22267  0.39310  0.72957  1.0000 -0.199594361
C   C102      1.0  0.77733  0.60690  0.27043  1.0000 -0.199594361
C   C103      1.0  0.27733  0.89310  0.77043  1.0000 -0.199594361
C   C104      1.0  0.72267  0.10690  0.22957  1.0000 -0.199594361
C   C105      1.0  0.29855  0.39113  0.69393  1.0000 0.0391569808
C   C106      1.0  0.70145  0.60887  0.30607  1.0000 0.0391569808
C   C107      1.0  0.20145  0.89113  0.80607  1.0000 0.0391569808
C   C108      1.0  0.79855  0.10887  0.19393  1.0000 0.0391569808
C   C109      1.0  0.23506  0.40038  0.65203  1.0000 -0.1906971503
C   C110      1.0  0.76494  0.59962  0.34797  1.0000 -0.1906971503
C   C111      1.0  0.26494  0.90038  0.84797  1.0000 -0.1906971503
C   C112      1.0  0.73506  0.09962  0.15203  1.0000 -0.1906971503
C   C113      1.0  0.10307  0.40784  0.64762  1.0000 0.0782965701
C   C114      1.0  0.89693  0.59216  0.35238  1.0000 0.0782965701
C   C115      1.0  0.39693  0.90784  0.85238  1.0000 0.0782965701
C   C116      1.0  0.60307  0.09216  0.14762  1.0000 0.0782965701
C   C117      1.0  0.43618  0.38248  0.70040  1.0000 0.1507901996
C   C118      1.0  0.56382  0.61752  0.29960  1.0000 0.1507901996
C   C119      1.0  0.06382  0.88248  0.79960  1.0000 0.1507901996
C   C120      1.0  0.93618  0.11752  0.20040  1.0000 0.1507901996
C   C121      1.0  0.62905  0.32991  0.72269  1.0000 0.170441294
C   C122      1.0  0.37095  0.67009  0.27731  1.0000 0.170441294
C   C123      1.0  0.87095  0.82991  0.77731  1.0000 0.170441294
C   C124      1.0  0.12905  0.17009  0.22269  1.0000 0.170441294
C   C125      1.0  0.82369  0.13510  0.75369  1.0000 0.0782965701
C   C126      1.0  0.17631  0.86490  0.24631  1.0000 0.0782965701
C   C127      1.0  0.67631  0.63510  0.74631  1.0000 0.0782965701
C   C128      1.0  0.32369  0.36490  0.25369  1.0000 0.0782965701
C   C129      1.0  0.72695  0.18517  0.73372  1.0000 -0.1825625741
C   C130      1.0  0.27305  0.81483  0.26628  1.0000 -0.1825625741
C   C131      1.0  0.77305  0.68517  0.76628  1.0000 -0.1825625741
C   C132      1.0  0.22695  0.31483  0.23372  1.0000 -0.1825625741
C   C133      1.0  0.72829  0.27431  0.74158  1.0000 0.0509479769
C   C134      1.0  0.27171  0.72569  0.25842  1.0000 0.0509479769
C   C135      1.0  0.77171  0.77431  0.75842  1.0000 0.0509479769
C   C136      1.0  0.22829  0.22569  0.24158  1.0000 0.0509479769
C   C137      1.0  0.82928  0.30780  0.76979  1.0000 -0.199594361
C   C138      1.0  0.17072  0.69220  0.23021  1.0000 -0.199594361
C   C139      1.0  0.67072  0.80780  0.73021  1.0000 -0.199594361
C   C140      1.0  0.32928  0.19220  0.26979  1.0000 -0.199594361
C   C141      1.0  0.92088  0.25250  0.78885  1.0000 0.0705613167
C   C142      1.0  0.07912  0.74750  0.21115  1.0000 0.0705613167
C   C143      1.0  0.57912  0.75250  0.71115  1.0000 0.0705613167
C   C144      1.0  0.42088  0.24750  0.28885  1.0000 0.0705613167
N   N1        1.0  0.12891  0.91020  0.47376  1.0000 -0.2393044315
N   N2        1.0  0.87109  0.08980  0.52624  1.0000 -0.2393044315
N   N3        1.0  0.37109  0.41020  0.02624  1.0000 -0.2393044315
N   N4        1.0  0.62891  0.58980  0.97376  1.0000 -0.2393044315
N   N5        1.0  0.23609  0.65644  0.38691  1.0000 -0.2629697677
N   N6        1.0  0.76391  0.34356  0.61309  1.0000 -0.2629697677
N   N7        1.0  0.26391  0.15644  0.11309  1.0000 -0.2629697677
N   N8        1.0  0.73609  0.84356  0.88691  1.0000 -0.2629697677
N   N9        1.0  0.51035  0.90264  0.45891  1.0000 -0.2114187163
N   N10       1.0  0.48965  0.09736  0.54109  1.0000 -0.2114187163
N   N11       1.0  0.98965  0.40264  0.04109  1.0000 -0.2114187163
N   N12       1.0  0.01035  0.59736  0.95891  1.0000 -0.2114187163
N   N13       1.0  0.63083  0.93593  0.47288  1.0000 -0.2184398165
N   N14       1.0  0.36917  0.06407  0.52712  1.0000 -0.2184398165
N   N15       1.0  0.86917  0.43593  0.02712  1.0000 -0.2184398165
N   N16       1.0  0.13083  0.56407  0.97288  1.0000 -0.2184398165
N   N17       1.0  0.65866  0.82015  0.43355  1.0000 0.0705613167
N   N18       1.0  0.34134  0.17985  0.56645  1.0000 0.0705613167
N   N19       1.0  0.84134  0.32015  0.06645  1.0000 0.0705613167
N   N20       1.0  0.15866  0.67985  0.93355  1.0000 0.0705613167
N   N21       1.0  0.71138  0.75502  0.40899  1.0000 -0.544263674
N   N22       1.0  0.28862  0.24498  0.59101  1.0000 -0.544263674
N   N23       1.0  0.78862  0.25502  0.09101  1.0000 -0.544263674
N   N24       1.0  0.21138  0.74498  0.90899  1.0000 -0.5478508722
N   N25       1.0  0.37765  0.83136  0.54422  1.0000 -0.2832737696
N   N26       1.0  0.62235  0.16864  0.45578  1.0000 -0.2832737696
N   N27       1.0  0.12235  0.33136  0.95578  1.0000 -0.2832737696
N   N28       1.0  0.87765  0.66864  0.04422  1.0000 -0.2832737696
N   N29       1.0  0.66099  0.60208  0.62642  1.0000 -0.2184398165
N   N30       1.0  0.33901  0.39792  0.37358  1.0000 -0.2184398165
N   N31       1.0  0.83901  0.10208  0.87358  1.0000 -0.2184398165
N   N32       1.0  0.16099  0.89792  0.12642  1.0000 -0.2184398165
N   N33       1.0  0.78281  0.57425  0.64217  1.0000 -0.2184398165
N   N34       1.0  0.21719  0.42575  0.35783  1.0000 -0.2184398165
N   N35       1.0  0.71719  0.07425  0.85783  1.0000 -0.2184398165
N   N36       1.0  0.28281  0.92575  0.14217  1.0000 -0.2184398165
N   N37       1.0  0.80508  0.68192  0.59689  1.0000 0.0782965701
N   N38       1.0  0.19492  0.31808  0.40311  1.0000 0.0782965701
N   N39       1.0  0.69492  0.18192  0.90311  1.0000 0.0782965701
N   N40       1.0  0.30508  0.81808  0.09689  1.0000 0.0782965701
N   N41       1.0  0.85355  0.74811  0.57190  1.0000 -0.5478508722
N   N42       1.0  0.14645  0.25189  0.42810  1.0000 -0.5478508722
N   N43       1.0  0.64645  0.24811  0.92810  1.0000 -0.5478508722
N   N44       1.0  0.35355  0.75189  0.07190  1.0000 -0.5478508722
N   N45       1.0  0.27891  0.60749  0.65086  1.0000 -0.2470608857
N   N46       1.0  0.72109  0.39251  0.34914  1.0000 -0.2470608857
N   N47       1.0  0.22109  0.10749  0.84914  1.0000 -0.2470608857
N   N48       1.0  0.77891  0.89251  0.15086  1.0000 -0.2470608857
N   N49       1.0  0.02894  0.40993  0.68202  1.0000 -0.2393044315
N   N50       1.0  0.97106  0.59007  0.31798  1.0000 -0.2393044315
N   N51       1.0  0.47106  0.90993  0.81798  1.0000 -0.2393044315
N   N52       1.0  0.52894  0.09007  0.18202  1.0000 -0.2393044315
N   N53       1.0  0.52549  0.43754  0.68865  1.0000 -0.2184398165
N   N54       1.0  0.47451  0.56246  0.31135  1.0000 -0.2184398165
N   N55       1.0  0.97451  0.93754  0.81135  1.0000 -0.2184398165
N   N56       1.0  0.02549  0.06246  0.18865  1.0000 -0.2184398165
N   N57       1.0  0.64586  0.40535  0.70322  1.0000 -0.2114187163
N   N58       1.0  0.35414  0.59465  0.29678  1.0000 -0.2114187163
N   N59       1.0  0.85414  0.90535  0.79678  1.0000 -0.2114187163
N   N60       1.0  0.14586  0.09465  0.20322  1.0000 -0.2114187163
N   N61       1.0  0.49838  0.31394  0.72168  1.0000 0.0782965701
N   N62       1.0  0.50162  0.68606  0.27832  1.0000 0.0782965701
N   N63       1.0  0.00162  0.81394  0.77832  1.0000 0.0782965701
N   N64       1.0  0.99838  0.18606  0.22168  1.0000 0.0782965701
N   N65       1.0  0.44525  0.24096  0.74031  1.0000 -0.544263674
N   N66       1.0  0.55475  0.75904  0.25969  1.0000 -0.544263674
N   N67       1.0  0.05475  0.74096  0.75969  1.0000 -0.544263674
N   N68       1.0  0.94525  0.25904  0.24031  1.0000 -0.544263674
N   N69       1.0  0.92119  0.16645  0.78132  1.0000 -0.2393044315
N   N70       1.0  0.07881  0.83355  0.21868  1.0000 -0.2393044315
N   N71       1.0  0.57881  0.66645  0.71868  1.0000 -0.2393044315
N   N72       1.0  0.42119  0.33355  0.28132  1.0000 -0.2393044315
