# DDEC6 charges by PACMAN v1.1 (https://github.com/mtap-research/PACMAN-charge/)
data_2004[CdMo][nan]3[ASR]1
_chemical_formula_sum              "Cd10 Mo32 P16 H96 C120 N24 O108"
_cell_length_a       12.9676
_cell_length_b       16.1701
_cell_length_c       30.9055
_cell_angle_alpha    90
_cell_angle_beta     91.249
_cell_angle_gamma    90

_symmetry_space_group_name_H-M    "P 1"
_symmetry_Int_Tables_number       1

loop_
  _symmetry_equiv_pos_as_xyz
  'x, y, z'

loop_
  _atom_site_type_symbol
  _atom_site_label
  _atom_site_symmetry_multiplicity
  _atom_site_fract_x
  _atom_site_fract_y
  _atom_site_fract_z
  _atom_site_occupancy
  _atom_site_charge
Cd  Cd1       1.0  0.02210  0.45947  0.94283  1.0000 1.1638913579
Cd  Cd2       1.0  0.97790  0.95947  0.55717  1.0000 1.1638913579
Cd  Cd3       1.0  0.97790  0.54053  0.05717  1.0000 1.1638913579
Cd  Cd4       1.0  0.02210  0.04053  0.44283  1.0000 1.1665573305
Cd  Cd5       1.0  0.50000  0.50000  0.00000  1.0000 1.3313112445
Cd  Cd6       1.0  0.50000  0.00000  0.50000  1.0000 1.338551063
Cd  Cd7       1.0  0.89408  0.25231  0.93394  1.0000 0.9724825806
Cd  Cd8       1.0  0.10592  0.75231  0.56606  1.0000 0.9724825806
Cd  Cd9       1.0  0.10592  0.74769  0.06606  1.0000 0.9724825806
Cd  Cd10      1.0  0.89408  0.24769  0.43394  1.0000 0.9724825806
Mo  Mo1       1.0  0.72135  0.60570  0.06554  1.0000 1.6600959963
Mo  Mo2       1.0  0.27865  0.10570  0.43446  1.0000 1.6501312839
Mo  Mo3       1.0  0.27865  0.39430  0.93446  1.0000 1.6501312839
Mo  Mo4       1.0  0.72135  0.89430  0.56554  1.0000 1.6600959963
Mo  Mo5       1.0  0.69994  0.45260  0.09231  1.0000 1.767755527
Mo  Mo6       1.0  0.30006  0.95260  0.40769  1.0000 1.7614200301
Mo  Mo7       1.0  0.30006  0.54740  0.90769  1.0000 1.7505691237
Mo  Mo8       1.0  0.69994  0.04740  0.59231  1.0000 1.767755527
Mo  Mo9       1.0  0.64862  0.29237  0.01637  1.0000 1.9413438426
Mo  Mo10      1.0  0.35138  0.79237  0.48363  1.0000 1.9413438426
Mo  Mo11      1.0  0.35138  0.70763  0.98363  1.0000 1.9413438426
Mo  Mo12      1.0  0.64862  0.20763  0.51637  1.0000 1.9516638703
Mo  Mo13      1.0  0.63653  0.32580  0.93371  1.0000 1.6227830834
Mo  Mo14      1.0  0.36347  0.82580  0.56629  1.0000 1.6083985356
Mo  Mo15      1.0  0.36347  0.67420  0.06629  1.0000 1.6083985356
Mo  Mo16      1.0  0.63653  0.17420  0.43371  1.0000 1.6083985356
Mo  Mo17      1.0  0.66675  0.53310  0.89821  1.0000 1.6600959963
Mo  Mo18      1.0  0.33325  0.03310  0.60179  1.0000 1.6600959963
Mo  Mo19      1.0  0.33325  0.46690  0.10179  1.0000 1.6501312839
Mo  Mo20      1.0  0.66675  0.96690  0.39821  1.0000 1.6600959963
Mo  Mo21      1.0  0.69531  0.65399  0.95353  1.0000 1.8486115324
Mo  Mo22      1.0  0.30469  0.15399  0.54647  1.0000 1.8580548949
Mo  Mo23      1.0  0.30469  0.34601  0.04647  1.0000 1.8486115324
Mo  Mo24      1.0  0.69531  0.84601  0.45353  1.0000 1.8486115324
Mo  Mo25      1.0  0.80508  0.34647  0.76309  1.0000 1.1089911647
Mo  Mo26      1.0  0.19492  0.84647  0.73691  1.0000 1.1189278152
Mo  Mo27      1.0  0.19492  0.65353  0.23691  1.0000 1.1189278152
Mo  Mo28      1.0  0.80508  0.15353  0.26309  1.0000 1.1189278152
Mo  Mo29      1.0  0.89021  0.31036  0.69209  1.0000 1.1486505456
Mo  Mo30      1.0  0.10979  0.81036  0.80791  1.0000 1.1638913579
Mo  Mo31      1.0  0.10979  0.68964  0.30791  1.0000 1.1638913579
Mo  Mo32      1.0  0.89021  0.18964  0.19209  1.0000 1.1665573305
P   P1        1.0  0.79079  0.46503  0.99135  1.0000 1.4987823672
P   P2        1.0  0.20921  0.96503  0.50865  1.0000 1.4928525872
P   P3        1.0  0.20921  0.53497  0.00865  1.0000 1.4928525872
P   P4        1.0  0.79079  0.03497  0.49135  1.0000 1.4987823672
P   P5        1.0  0.82380  0.38240  0.86940  1.0000 1.4582793302
P   P6        1.0  0.17620  0.88240  0.63060  1.0000 1.4582793302
P   P7        1.0  0.17620  0.61760  0.13060  1.0000 1.4582793302
P   P8        1.0  0.82380  0.11760  0.36940  1.0000 1.4582793302
P   P9        1.0  0.11485  0.26976  0.98432  1.0000 1.4987823672
P   P10       1.0  0.88515  0.76976  0.51568  1.0000 1.4987823672
P   P11       1.0  0.88515  0.73024  0.01568  1.0000 1.4987823672
P   P12       1.0  0.11485  0.23024  0.48432  1.0000 1.4987823672
P   P13       1.0  0.83170  0.27436  0.09187  1.0000 1.4987823672
P   P14       1.0  0.16830  0.77436  0.40813  1.0000 1.4987823672
P   P15       1.0  0.16830  0.72564  0.90813  1.0000 1.4987823672
P   P16       1.0  0.83170  0.22564  0.59187  1.0000 1.4987823672
H   H1        1.0  0.79290  0.09910  0.98150  1.0000 0.1296090069
H   H2        1.0  0.20710  0.59910  0.51850  1.0000 0.1296090069
H   H3        1.0  0.20710  0.90090  0.01850  1.0000 0.1296090069
H   H4        1.0  0.79290  0.40090  0.48150  1.0000 0.1296090069
H   H5        1.0  0.80680  0.95610  0.98850  1.0000 0.1498466816
H   H6        1.0  0.19320  0.45610  0.51150  1.0000 0.1498466816
H   H7        1.0  0.19320  0.04390  0.01150  1.0000 0.1498466816
H   H8        1.0  0.80680  0.54390  0.48850  1.0000 0.1498466816
H   H9        1.0  0.94240  0.88800  0.95430  1.0000 0.1498466816
H   H10       1.0  0.05760  0.38800  0.54570  1.0000 0.1498466816
H   H11       1.0  0.05760  0.11200  0.04570  1.0000 0.1498466816
H   H12       1.0  0.94240  0.61200  0.45430  1.0000 0.1498466816
H   H13       1.0  0.03640  0.96100  0.90390  1.0000 0.1296090069
H   H14       1.0  0.96360  0.46100  0.59610  1.0000 0.1296090069
H   H15       1.0  0.96360  0.03900  0.09610  1.0000 0.1296090069
H   H16       1.0  0.03640  0.53900  0.40390  1.0000 0.1296090069
H   H17       1.0  0.10640  0.03210  0.85540  1.0000 0.1296090069
H   H18       1.0  0.89360  0.53210  0.64460  1.0000 0.1296090069
H   H19       1.0  0.89360  0.96790  0.14460  1.0000 0.1296090069
H   H20       1.0  0.10640  0.46790  0.35540  1.0000 0.1296090069
H   H21       1.0  0.19320  0.11350  0.80740  1.0000 0.1195156496
H   H22       1.0  0.80680  0.61350  0.69260  1.0000 0.1195156496
H   H23       1.0  0.80680  0.88650  0.19260  1.0000 0.1195156496
H   H24       1.0  0.19320  0.38650  0.30740  1.0000 0.1195156496
H   H25       1.0  0.15700  0.25930  0.80530  1.0000 0.1296090069
H   H26       1.0  0.84300  0.75930  0.69470  1.0000 0.1195156496
H   H27       1.0  0.84300  0.74070  0.19470  1.0000 0.1296090069
H   H28       1.0  0.15700  0.24070  0.30530  1.0000 0.1195156496
H   H29       1.0  0.04230  0.30880  0.85470  1.0000 0.1296090069
H   H30       1.0  0.95770  0.80880  0.64530  1.0000 0.1296090069
H   H31       1.0  0.95770  0.69120  0.14530  1.0000 0.1296090069
H   H32       1.0  0.04230  0.19120  0.35470  1.0000 0.1296090069
H   H33       1.0  0.89730  0.16940  0.79170  1.0000 0.109623636
H   H34       1.0  0.10270  0.66940  0.70830  1.0000 0.109623636
H   H35       1.0  0.10270  0.83060  0.20830  1.0000 0.109623636
H   H36       1.0  0.89730  0.33060  0.29170  1.0000 0.109623636
H   H37       1.0  0.85060  0.04180  0.82450  1.0000 0.1195156496
H   H38       1.0  0.14940  0.54180  0.67550  1.0000 0.1195156496
H   H39       1.0  0.14940  0.95820  0.17550  1.0000 0.1195156496
H   H40       1.0  0.85060  0.45820  0.32450  1.0000 0.1195156496
H   H41       1.0  0.68180  0.03210  0.84720  1.0000 0.109623636
H   H42       1.0  0.31820  0.53210  0.65280  1.0000 0.109623636
H   H43       1.0  0.31820  0.96790  0.15280  1.0000 0.109623636
H   H44       1.0  0.68180  0.46790  0.34720  1.0000 0.109623636
H   H45       1.0  0.56670  0.13880  0.83890  1.0000 0.1296090069
H   H46       1.0  0.43330  0.63880  0.66110  1.0000 0.1296090069
H   H47       1.0  0.43330  0.86120  0.16110  1.0000 0.1296090069
H   H48       1.0  0.56670  0.36120  0.33890  1.0000 0.1296090069
H   H49       1.0  0.45530  0.23840  0.82260  1.0000 0.1378445457
H   H50       1.0  0.54470  0.73840  0.67740  1.0000 0.1378445457
H   H51       1.0  0.54470  0.76160  0.17740  1.0000 0.1378445457
H   H52       1.0  0.45530  0.26160  0.32260  1.0000 0.1378445457
H   H53       1.0  0.36580  0.35710  0.81220  1.0000 0.1195156496
H   H54       1.0  0.63420  0.85710  0.68780  1.0000 0.1195156496
H   H55       1.0  0.63420  0.64290  0.18780  1.0000 0.1195156496
H   H56       1.0  0.36580  0.14290  0.31220  1.0000 0.1195156496
H   H57       1.0  0.44320  0.47090  0.78490  1.0000 0.1296090069
H   H58       1.0  0.55680  0.97090  0.71510  1.0000 0.1296090069
H   H59       1.0  0.55680  0.52910  0.21510  1.0000 0.1296090069
H   H60       1.0  0.44320  0.02910  0.28490  1.0000 0.1296090069
H   H61       1.0  0.61820  0.46610  0.76970  1.0000 0.109623636
H   H62       1.0  0.38180  0.96610  0.73030  1.0000 0.109623636
H   H63       1.0  0.38180  0.53390  0.23030  1.0000 0.109623636
H   H64       1.0  0.61820  0.03390  0.26970  1.0000 0.109623636
H   H65       1.0  0.10340  0.38370  0.66190  1.0000 0.109623636
H   H66       1.0  0.89660  0.88370  0.83810  1.0000 0.109623636
H   H67       1.0  0.89660  0.61630  0.33810  1.0000 0.109623636
H   H68       1.0  0.10340  0.11630  0.16190  1.0000 0.109623636
H   H69       1.0  0.27420  0.35220  0.65720  1.0000 0.1378445457
H   H70       1.0  0.72580  0.85220  0.84280  1.0000 0.1378445457
H   H71       1.0  0.72580  0.64780  0.34280  1.0000 0.1378445457
H   H72       1.0  0.27420  0.14780  0.15720  1.0000 0.1378445457
H   H73       1.0  0.32640  0.22010  0.67370  1.0000 0.1195156496
H   H74       1.0  0.67360  0.72010  0.82630  1.0000 0.1195156496
H   H75       1.0  0.67360  0.77990  0.32630  1.0000 0.1195156496
H   H76       1.0  0.32640  0.27990  0.17370  1.0000 0.1195156496
H   H77       1.0  0.20790  0.12040  0.69000  1.0000 0.1378445457
H   H78       1.0  0.79210  0.62040  0.81000  1.0000 0.1378445457
H   H79       1.0  0.79210  0.87960  0.31000  1.0000 0.1378445457
H   H80       1.0  0.20790  0.37960  0.19000  1.0000 0.1378445457
H   H81       1.0  0.08970  0.03320  0.70240  1.0000 0.1378445457
H   H82       1.0  0.91030  0.53320  0.79760  1.0000 0.1378445457
H   H83       1.0  0.91030  0.96680  0.29760  1.0000 0.1378445457
H   H84       1.0  0.08970  0.46680  0.20240  1.0000 0.1378445457
H   H85       1.0  0.95250  0.94420  0.71400  1.0000 0.1296090069
H   H86       1.0  0.04750  0.44420  0.78600  1.0000 0.1296090069
H   H87       1.0  0.04750  0.05580  0.28600  1.0000 0.1296090069
H   H88       1.0  0.95250  0.55580  0.21400  1.0000 0.1296090069
H   H89       1.0  0.78680  0.99620  0.71370  1.0000 0.1195156496
H   H90       1.0  0.21320  0.49620  0.78630  1.0000 0.1195156496
H   H91       1.0  0.21320  0.00380  0.28630  1.0000 0.1195156496
H   H92       1.0  0.78680  0.50380  0.21370  1.0000 0.1195156496
H   H93       1.0  0.76080  0.13560  0.70050  1.0000 0.1195156496
H   H94       1.0  0.23920  0.63560  0.79950  1.0000 0.1296090069
H   H95       1.0  0.23920  0.86440  0.29950  1.0000 0.1195156496
H   H96       1.0  0.76080  0.36440  0.20050  1.0000 0.1296090069
C   C1        1.0  0.83990  0.07070  0.96470  1.0000 0.1195156496
C   C2        1.0  0.16010  0.57070  0.53530  1.0000 0.1195156496
C   C3        1.0  0.16010  0.92930  0.03530  1.0000 0.109623636
C   C4        1.0  0.83990  0.42930  0.46470  1.0000 0.109623636
C   C5        1.0  0.85100  0.98490  0.97050  1.0000 -0.1419800484
C   C6        1.0  0.14900  0.48490  0.52950  1.0000 -0.1419800484
C   C7        1.0  0.14900  0.01510  0.02950  1.0000 -0.1419800484
C   C8        1.0  0.85100  0.51510  0.47050  1.0000 -0.1419800484
C   C9        1.0  0.92910  0.94360  0.94900  1.0000 -0.0111692209
C   C10       1.0  0.07090  0.44360  0.55100  1.0000 -0.0111692209
C   C11       1.0  0.07090  0.05640  0.05100  1.0000 -0.0111692209
C   C12       1.0  0.92910  0.55640  0.44900  1.0000 -0.0111692209
C   C13       1.0  0.98600  0.98730  0.91980  1.0000 -0.1990174317
C   C14       1.0  0.01400  0.48730  0.58020  1.0000 -0.1990174317
C   C15       1.0  0.01400  0.01270  0.08020  1.0000 -0.1990174317
C   C16       1.0  0.98600  0.51270  0.41980  1.0000 -0.1990174317
C   C17       1.0  0.09510  0.08890  0.85480  1.0000 -0.1785164886
C   C18       1.0  0.90490  0.58890  0.64520  1.0000 -0.1785164886
C   C19       1.0  0.90490  0.91110  0.14520  1.0000 -0.1785164886
C   C20       1.0  0.09510  0.41110  0.35480  1.0000 -0.1785164886
C   C21       1.0  0.14590  0.13680  0.82600  1.0000 -0.0441863165
C   C22       1.0  0.85410  0.63680  0.67400  1.0000 -0.0441863165
C   C23       1.0  0.85410  0.86320  0.17400  1.0000 -0.0441863165
C   C24       1.0  0.14590  0.36320  0.32600  1.0000 -0.0441863165
C   C25       1.0  0.12540  0.22420  0.82490  1.0000 -0.1681982826
C   C26       1.0  0.87460  0.72420  0.67510  1.0000 -0.1681982826
C   C27       1.0  0.87460  0.77580  0.17510  1.0000 -0.1681982826
C   C28       1.0  0.12540  0.27580  0.32490  1.0000 -0.1681982826
C   C29       1.0  0.05650  0.25240  0.85430  1.0000 0.109623636
C   C30       1.0  0.94350  0.75240  0.64570  1.0000 0.109623636
C   C31       1.0  0.94350  0.74760  0.14570  1.0000 0.109623636
C   C32       1.0  0.05650  0.24760  0.35430  1.0000 0.109623636
C   C33       1.0  0.96650  0.07410  0.91410  1.0000 0.1800434353
C   C34       1.0  0.03350  0.57410  0.58590  1.0000 0.1800434353
C   C35       1.0  0.03350  0.92590  0.08590  1.0000 0.1800434353
C   C36       1.0  0.96650  0.42590  0.41410  1.0000 0.1800434353
C   C37       1.0  0.02730  0.12380  0.88300  1.0000 0.1800434353
C   C38       1.0  0.97270  0.62380  0.61700  1.0000 0.1800434353
C   C39       1.0  0.97270  0.87620  0.11700  1.0000 0.1800434353
C   C40       1.0  0.02730  0.37620  0.38300  1.0000 0.1800434353
C   C41       1.0  0.82960  0.16120  0.80020  1.0000 0.1296090069
C   C42       1.0  0.17040  0.66120  0.69980  1.0000 0.1296090069
C   C43       1.0  0.17040  0.83880  0.19980  1.0000 0.1296090069
C   C44       1.0  0.82960  0.33880  0.30020  1.0000 0.1296090069
C   C45       1.0  0.80370  0.08480  0.82050  1.0000 -0.1785164886
C   C46       1.0  0.19630  0.58480  0.67950  1.0000 -0.1785164886
C   C47       1.0  0.19630  0.91520  0.17950  1.0000 -0.1785164886
C   C48       1.0  0.80370  0.41520  0.32050  1.0000 -0.1785164886
C   C49       1.0  0.70340  0.08040  0.83380  1.0000 -0.0552019031
C   C50       1.0  0.29660  0.58040  0.66620  1.0000 -0.0552019031
C   C51       1.0  0.29660  0.91960  0.16620  1.0000 -0.0552019031
C   C52       1.0  0.70340  0.41960  0.33380  1.0000 -0.0552019031
C   C53       1.0  0.63310  0.14330  0.82840  1.0000 -0.1579608536
C   C54       1.0  0.36690  0.64330  0.67160  1.0000 -0.1579608536
C   C55       1.0  0.36690  0.85670  0.17160  1.0000 -0.1579608536
C   C56       1.0  0.63310  0.35670  0.32840  1.0000 -0.1579608536
C   C57       1.0  0.48770  0.28470  0.81130  1.0000 -0.1681982826
C   C58       1.0  0.51230  0.78470  0.68870  1.0000 -0.1681982826
C   C59       1.0  0.51230  0.71530  0.18870  1.0000 -0.1681982826
C   C60       1.0  0.48770  0.21530  0.31130  1.0000 -0.1681982826
C   C61       1.0  0.43510  0.35500  0.80530  1.0000 -0.0441863165
C   C62       1.0  0.56490  0.85500  0.69470  1.0000 -0.0441863165
C   C63       1.0  0.56490  0.64500  0.19470  1.0000 -0.0441863165
C   C64       1.0  0.43510  0.14500  0.30530  1.0000 -0.0441863165
C   C65       1.0  0.48060  0.42250  0.78940  1.0000 -0.1474447326
C   C66       1.0  0.51940  0.92250  0.71060  1.0000 -0.1474447326
C   C67       1.0  0.51940  0.57750  0.21060  1.0000 -0.1474447326
C   C68       1.0  0.48060  0.07750  0.28940  1.0000 -0.1474447326
C   C69       1.0  0.58600  0.41870  0.77980  1.0000 0.0938362242
C   C70       1.0  0.41400  0.91870  0.72020  1.0000 0.0996328614
C   C71       1.0  0.41400  0.58130  0.22020  1.0000 0.0938362242
C   C72       1.0  0.58600  0.08130  0.27980  1.0000 0.0938362242
C   C73       1.0  0.66360  0.21220  0.80720  1.0000 0.1498466816
C   C74       1.0  0.33640  0.71220  0.69280  1.0000 0.1498466816
C   C75       1.0  0.33640  0.78780  0.19280  1.0000 0.1498466816
C   C76       1.0  0.66360  0.28780  0.30720  1.0000 0.1498466816
C   C77       1.0  0.59550  0.28120  0.80020  1.0000 0.1800434353
C   C78       1.0  0.40450  0.78120  0.69980  1.0000 0.1800434353
C   C79       1.0  0.40450  0.71880  0.19980  1.0000 0.1800434353
C   C80       1.0  0.59550  0.21880  0.30020  1.0000 0.1800434353
C   C81       1.0  0.12490  0.32990  0.66760  1.0000 0.0387167334
C   C82       1.0  0.87510  0.82990  0.83240  1.0000 0.0387167334
C   C83       1.0  0.87510  0.67010  0.33240  1.0000 0.0387167334
C   C84       1.0  0.12490  0.17010  0.16760  1.0000 0.0387167334
C   C85       1.0  0.22670  0.31200  0.66500  1.0000 -0.1579608536
C   C86       1.0  0.77330  0.81200  0.83500  1.0000 -0.1579608536
C   C87       1.0  0.77330  0.68800  0.33500  1.0000 -0.1579608536
C   C88       1.0  0.22670  0.18800  0.16500  1.0000 -0.1579608536
C   C89       1.0  0.25680  0.23370  0.67430  1.0000 -0.0456136838
C   C90       1.0  0.74320  0.73370  0.82570  1.0000 -0.0441863165
C   C91       1.0  0.74320  0.76630  0.32570  1.0000 -0.0441863165
C   C92       1.0  0.25680  0.26630  0.17430  1.0000 -0.0456136838
C   C93       1.0  0.18670  0.17440  0.68440  1.0000 -0.1579608536
C   C94       1.0  0.81330  0.67440  0.81560  1.0000 -0.1579608536
C   C95       1.0  0.81330  0.82560  0.31560  1.0000 -0.1579608536
C   C96       1.0  0.18670  0.32560  0.18440  1.0000 -0.1579608536
C   C97       1.0  0.02230  0.05290  0.70240  1.0000 -0.1579608536
C   C98       1.0  0.97770  0.55290  0.79760  1.0000 -0.1579608536
C   C99       1.0  0.97770  0.94710  0.29760  1.0000 -0.1579608536
C   C100      1.0  0.02230  0.44710  0.20240  1.0000 -0.1579608536
C   C101      1.0  0.94080  0.00020  0.70930  1.0000 -0.0308744144
C   C102      1.0  0.05920  0.50020  0.79070  1.0000 -0.0308744144
C   C103      1.0  0.05920  0.99980  0.29070  1.0000 -0.0308744144
C   C104      1.0  0.94080  0.49980  0.20930  1.0000 -0.0308744144
C   C105      1.0  0.84260  0.03090  0.70900  1.0000 -0.1681982826
C   C106      1.0  0.15740  0.53090  0.79100  1.0000 -0.1681982826
C   C107      1.0  0.15740  0.96910  0.29100  1.0000 -0.1681982826
C   C108      1.0  0.84260  0.46910  0.20900  1.0000 -0.1681982826
C   C109      1.0  0.82770  0.11480  0.70180  1.0000 0.0996328614
C   C110      1.0  0.17230  0.61480  0.79820  1.0000 0.0996328614
C   C111      1.0  0.17230  0.88520  0.29820  1.0000 0.0996328614
C   C112      1.0  0.82770  0.38520  0.20180  1.0000 0.0996328614
C   C113      1.0  0.08440  0.19560  0.68620  1.0000 0.1925183236
C   C114      1.0  0.91560  0.69560  0.81380  1.0000 0.1925183236
C   C115      1.0  0.91560  0.80440  0.31380  1.0000 0.1925183236
C   C116      1.0  0.08440  0.30440  0.18620  1.0000 0.1925183236
C   C117      1.0  0.00160  0.13590  0.69540  1.0000 0.1925183236
C   C118      1.0  0.99840  0.63590  0.80460  1.0000 0.1925183236
C   C119      1.0  0.99840  0.86410  0.30460  1.0000 0.1925183236
C   C120      1.0  0.00160  0.36410  0.19540  1.0000 0.1925183236
N   N1        1.0  0.89320  0.11170  0.93680  1.0000 -0.2704184565
N   N2        1.0  0.10680  0.61170  0.56320  1.0000 -0.2704184565
N   N3        1.0  0.10680  0.88830  0.06320  1.0000 -0.2704184565
N   N4        1.0  0.89320  0.38830  0.43680  1.0000 -0.2704184565
N   N5        1.0  0.00850  0.20450  0.88240  1.0000 -0.2569337525
N   N6        1.0  0.99150  0.70450  0.61760  1.0000 -0.2569337525
N   N7        1.0  0.99150  0.79550  0.11760  1.0000 -0.2569337525
N   N8        1.0  0.00850  0.29550  0.38240  1.0000 -0.2569337525
N   N9        1.0  0.76230  0.22000  0.79290  1.0000 -0.2704184565
N   N10       1.0  0.23770  0.72000  0.70710  1.0000 -0.2704184565
N   N11       1.0  0.23770  0.78000  0.20710  1.0000 -0.2704184565
N   N12       1.0  0.76230  0.28000  0.29290  1.0000 -0.2704184565
N   N13       1.0  0.64130  0.35010  0.78460  1.0000 -0.2799837329
N   N14       1.0  0.35870  0.85010  0.71540  1.0000 -0.2799837329
N   N15       1.0  0.35870  0.64990  0.21540  1.0000 -0.2799837329
N   N16       1.0  0.64130  0.14990  0.28460  1.0000 -0.2799837329
N   N17       1.0  0.05370  0.27360  0.67810  1.0000 -0.2799837329
N   N18       1.0  0.94630  0.77360  0.82190  1.0000 -0.2799837329
N   N19       1.0  0.94630  0.72640  0.32190  1.0000 -0.2799837329
N   N20       1.0  0.05370  0.22640  0.17810  1.0000 -0.2799837329
N   N21       1.0  0.90710  0.16650  0.69640  1.0000 -0.2704184565
N   N22       1.0  0.09290  0.66650  0.80360  1.0000 -0.2704184565
N   N23       1.0  0.09290  0.83350  0.30360  1.0000 -0.2704184565
N   N24       1.0  0.90710  0.33350  0.19640  1.0000 -0.2704184565
O   O1        1.0  0.82070  0.52400  0.08673  1.0000 -0.8902358773
O   O2        1.0  0.17930  0.02400  0.41327  1.0000 -0.8902358773
O   O3        1.0  0.17930  0.47600  0.91327  1.0000 -0.8902358773
O   O4        1.0  0.82070  0.97600  0.58673  1.0000 -0.8902358773
O   O5        1.0  0.60670  0.52640  0.05888  1.0000 -0.8902358773
O   O6        1.0  0.39330  0.02640  0.44112  1.0000 -0.8902358773
O   O7        1.0  0.39330  0.47360  0.94112  1.0000 -0.8902358773
O   O8        1.0  0.60670  0.97360  0.55888  1.0000 -0.8902358773
O   O9        1.0  0.75970  0.55550  0.00066  1.0000 -0.9013287314
O   O10       1.0  0.24030  0.05550  0.49934  1.0000 -0.9013287314
O   O11       1.0  0.24030  0.44450  0.99934  1.0000 -0.9013287314
O   O12       1.0  0.75970  0.94450  0.50066  1.0000 -0.9013287314
O   O13       1.0  0.13790  0.33630  0.95002  1.0000 -0.8448298984
O   O14       1.0  0.86210  0.83630  0.54998  1.0000 -0.8448298984
O   O15       1.0  0.86210  0.66370  0.04998  1.0000 -0.8448298984
O   O16       1.0  0.13790  0.16370  0.45002  1.0000 -0.8448298984
O   O17       1.0  0.64720  0.67840  0.01741  1.0000 -0.9319201969
O   O18       1.0  0.35280  0.17840  0.48259  1.0000 -0.9319201969
O   O19       1.0  0.35280  0.32160  0.98259  1.0000 -0.9319201969
O   O20       1.0  0.64720  0.82160  0.51741  1.0000 -0.9319201969
O   O21       1.0  0.56260  0.37130  0.98338  1.0000 -0.9013287314
O   O22       1.0  0.43740  0.87130  0.51662  1.0000 -0.9013287314
O   O23       1.0  0.43740  0.62870  0.01662  1.0000 -0.9013287314
O   O24       1.0  0.56260  0.12870  0.48338  1.0000 -0.9013287314
O   O25       1.0  0.74220  0.26960  0.96887  1.0000 -0.8688700311
O   O26       1.0  0.25780  0.76960  0.53113  1.0000 -0.8688700311
O   O27       1.0  0.25780  0.73040  0.03113  1.0000 -0.8688700311
O   O28       1.0  0.74220  0.23040  0.46887  1.0000 -0.8688700311
O   O29       1.0  0.74570  0.31700  0.88617  1.0000 -0.7963098102
O   O30       1.0  0.25430  0.81700  0.61383  1.0000 -0.7926402403
O   O31       1.0  0.25430  0.68300  0.11383  1.0000 -0.7963098102
O   O32       1.0  0.74570  0.18300  0.38617  1.0000 -0.7963098102
O   O33       1.0  0.74020  0.44090  0.94784  1.0000 -0.8542475872
O   O34       1.0  0.25980  0.94090  0.55216  1.0000 -0.8542475872
O   O35       1.0  0.25980  0.55910  0.05216  1.0000 -0.8542475872
O   O36       1.0  0.74020  0.05910  0.44784  1.0000 -0.8542475872
O   O37       1.0  0.57690  0.42430  0.89815  1.0000 -0.9319201969
O   O38       1.0  0.42310  0.92430  0.60185  1.0000 -0.9319201969
O   O39       1.0  0.42310  0.57570  0.10185  1.0000 -0.9319201969
O   O40       1.0  0.57690  0.07570  0.39815  1.0000 -0.9319201969
O   O41       1.0  0.58750  0.56840  0.94874  1.0000 -0.8902358773
O   O42       1.0  0.41250  0.06840  0.55126  1.0000 -0.8902358773
O   O43       1.0  0.41250  0.43160  0.05126  1.0000 -0.8902358773
O   O44       1.0  0.58750  0.93160  0.44874  1.0000 -0.8902358773
O   O45       1.0  0.78380  0.60280  0.91198  1.0000 -0.7926402403
O   O46       1.0  0.21620  0.10280  0.58802  1.0000 -0.7926402403
O   O47       1.0  0.21620  0.39720  0.08802  1.0000 -0.7926402403
O   O48       1.0  0.78380  0.89720  0.41198  1.0000 -0.7926402403
O   O49       1.0  0.17230  0.28640  0.02644  1.0000 -0.7484938416
O   O50       1.0  0.82770  0.78640  0.47356  1.0000 -0.7484938416
O   O51       1.0  0.82770  0.71360  0.97356  1.0000 -0.7484938416
O   O52       1.0  0.17230  0.21360  0.52644  1.0000 -0.7484938416
O   O53       1.0  0.74440  0.40850  0.02623  1.0000 -0.8564868781
O   O54       1.0  0.25560  0.90850  0.47377  1.0000 -0.8564868781
O   O55       1.0  0.25560  0.59150  0.97377  1.0000 -0.8542475872
O   O56       1.0  0.74440  0.09150  0.52623  1.0000 -0.8564868781
O   O57       1.0  0.60140  0.35510  0.07311  1.0000 -0.9695655816
O   O58       1.0  0.39860  0.85510  0.42689  1.0000 -0.9695655816
O   O59       1.0  0.39860  0.64490  0.92689  1.0000 -0.9695655816
O   O60       1.0  0.60140  0.14490  0.57311  1.0000 -0.9695655816
O   O61       1.0  0.80380  0.36050  0.10679  1.0000 -0.8067941331
O   O62       1.0  0.19620  0.86050  0.39321  1.0000 -0.8067941331
O   O63       1.0  0.19620  0.63950  0.89321  1.0000 -0.8067941331
O   O64       1.0  0.80380  0.13950  0.60679  1.0000 -0.8067941331
O   O65       1.0  0.75980  0.24150  0.05631  1.0000 -0.7963098102
O   O66       1.0  0.24020  0.74150  0.44369  1.0000 -0.7926402403
O   O67       1.0  0.24020  0.75850  0.94369  1.0000 -0.7963098102
O   O68       1.0  0.75980  0.25850  0.55631  1.0000 -0.7963098102
O   O69       1.0  0.77110  0.46630  0.86386  1.0000 -0.7707486265
O   O70       1.0  0.22890  0.96630  0.63614  1.0000 -0.7707486265
O   O71       1.0  0.22890  0.53370  0.13614  1.0000 -0.7707486265
O   O72       1.0  0.77110  0.03370  0.36386  1.0000 -0.7707486265
O   O73       1.0  0.90750  0.45850  0.99392  1.0000 -0.7707486265
O   O74       1.0  0.09250  0.95850  0.50608  1.0000 -0.7707486265
O   O75       1.0  0.09250  0.54150  0.00608  1.0000 -0.7707486265
O   O76       1.0  0.90750  0.04150  0.49392  1.0000 -0.7707486265
O   O77       1.0  0.91460  0.38030  0.90157  1.0000 -0.8067941331
O   O78       1.0  0.08540  0.88030  0.59843  1.0000 -0.8067941331
O   O79       1.0  0.08540  0.61970  0.09843  1.0000 -0.8067941331
O   O80       1.0  0.91460  0.11970  0.40157  1.0000 -0.8067941331
O   O81       1.0  0.00030  0.26680  0.99092  1.0000 -0.7484938416
O   O82       1.0  0.99970  0.76680  0.50908  1.0000 -0.7484938416
O   O83       1.0  0.99970  0.73320  0.00908  1.0000 -0.7484938416
O   O84       1.0  0.00030  0.23320  0.49092  1.0000 -0.7484938416
O   O85       1.0  0.14640  0.18350  0.96655  1.0000 -0.8194450401
O   O86       1.0  0.85360  0.68350  0.53345  1.0000 -0.8194450401
O   O87       1.0  0.85360  0.81650  0.03345  1.0000 -0.8194450401
O   O88       1.0  0.14640  0.31650  0.46655  1.0000 -0.8194450401
O   O89       1.0  0.94310  0.27960  0.07371  1.0000 -0.7484938416
O   O90       1.0  0.05690  0.77960  0.42629  1.0000 -0.7484938416
O   O91       1.0  0.05690  0.72040  0.92629  1.0000 -0.7484938416
O   O92       1.0  0.94310  0.22040  0.57371  1.0000 -0.7484938416
O   O93       1.0  0.94020  0.30460  0.75161  1.0000 -0.7606571057
O   O94       1.0  0.05980  0.80460  0.74839  1.0000 -0.7606571057
O   O95       1.0  0.05980  0.69540  0.24839  1.0000 -0.7606571057
O   O96       1.0  0.94020  0.19540  0.25161  1.0000 -0.7606571057
O   O97       1.0  0.74930  0.30020  0.70927  1.0000 -0.7606571057
O   O98       1.0  0.25070  0.80020  0.79073  1.0000 -0.7606571057
O   O99       1.0  0.25070  0.69980  0.29073  1.0000 -0.7606571057
O   O100      1.0  0.74930  0.19980  0.20927  1.0000 -0.7606571057
O   O101      1.0  0.86160  0.35450  0.82551  1.0000 -0.7421930843
O   O102      1.0  0.13840  0.85450  0.67449  1.0000 -0.7421930843
O   O103      1.0  0.13840  0.64550  0.17449  1.0000 -0.7421930843
O   O104      1.0  0.86160  0.14550  0.32551  1.0000 -0.7421930843
O   O105      1.0  0.83580  0.21590  0.12991  1.0000 -0.7826478892
O   O106      1.0  0.16420  0.71590  0.37009  1.0000 -0.7826478892
O   O107      1.0  0.16420  0.78410  0.87009  1.0000 -0.7826478892
O   O108      1.0  0.83580  0.28410  0.62991  1.0000 -0.7826478892
