# DDEC6 charges by PACMAN v1.1 (https://github.com/mtap-research/PACMAN-charge/)
data_2004[Cu][dia]3[ASR]2
_chemical_formula_sum              "Cu4 H64 C64 S8 I4"
_cell_length_a       7.201
_cell_length_b       12.4
_cell_length_c       20.784
_cell_angle_alpha    90
_cell_angle_beta     90
_cell_angle_gamma    90

_symmetry_space_group_name_H-M    "P 1"
_symmetry_Int_Tables_number       1

loop_
  _symmetry_equiv_pos_as_xyz
  'x, y, z'

loop_
  _atom_site_type_symbol
  _atom_site_label
  _atom_site_symmetry_multiplicity
  _atom_site_fract_x
  _atom_site_fract_y
  _atom_site_fract_z
  _atom_site_occupancy
  _atom_site_charge
Cu  Cu1       1.0  0.76352  0.16219  0.25000  1.0000 0.088742492
Cu  Cu2       1.0  0.73648  0.66219  0.75000  1.0000 0.088742492
Cu  Cu3       1.0  0.26352  0.33781  0.25000  1.0000 0.088742492
Cu  Cu4       1.0  0.23648  0.83781  0.75000  1.0000 0.088742492
H   H1        1.0  0.64430  0.82430  0.10010  1.0000 0.1193791237
H   H2        1.0  0.85570  0.32430  0.60010  1.0000 0.1193791237
H   H3        1.0  0.64430  0.82430  0.39990  1.0000 0.1193791237
H   H4        1.0  0.14430  0.67570  0.10010  1.0000 0.1193791237
H   H5        1.0  0.35570  0.17570  0.89990  1.0000 0.1193791237
H   H6        1.0  0.14430  0.67570  0.39990  1.0000 0.1193791237
H   H7        1.0  0.35570  0.17570  0.60010  1.0000 0.1193791237
H   H8        1.0  0.85570  0.32430  0.89990  1.0000 0.1193791237
H   H9        1.0  0.49510  0.75140  0.01030  1.0000 0.1193791237
H   H10       1.0  0.00490  0.25140  0.51030  1.0000 0.1193791237
H   H11       1.0  0.49510  0.75140  0.48970  1.0000 0.1193791237
H   H12       1.0  0.99510  0.74860  0.01030  1.0000 0.1193791237
H   H13       1.0  0.50490  0.24860  0.98970  1.0000 0.1193791237
H   H14       1.0  0.99510  0.74860  0.48970  1.0000 0.1193791237
H   H15       1.0  0.50490  0.24860  0.51030  1.0000 0.1193791237
H   H16       1.0  0.00490  0.25140  0.98970  1.0000 0.1193791237
H   H17       1.0  0.71030  0.98920  0.89970  1.0000 0.1193791237
H   H18       1.0  0.78970  0.48920  0.39970  1.0000 0.1193791237
H   H19       1.0  0.71030  0.98920  0.60030  1.0000 0.1193791237
H   H20       1.0  0.21030  0.51080  0.89970  1.0000 0.1193791237
H   H21       1.0  0.28970  0.01080  0.10030  1.0000 0.1193791237
H   H22       1.0  0.21030  0.51080  0.60030  1.0000 0.1193791237
H   H23       1.0  0.28970  0.01080  0.39970  1.0000 0.1193791237
H   H24       1.0  0.78970  0.48920  0.10030  1.0000 0.1193791237
H   H25       1.0  0.84640  0.06560  0.99010  1.0000 0.1124292176
H   H26       1.0  0.65360  0.56560  0.49010  1.0000 0.1124292176
H   H27       1.0  0.84640  0.06560  0.50990  1.0000 0.1124292176
H   H28       1.0  0.34640  0.43440  0.99010  1.0000 0.1124292176
H   H29       1.0  0.15360  0.93440  0.00990  1.0000 0.1124292176
H   H30       1.0  0.34640  0.43440  0.50990  1.0000 0.1124292176
H   H31       1.0  0.15360  0.93440  0.49010  1.0000 0.1124292176
H   H32       1.0  0.65360  0.56560  0.00990  1.0000 0.1124292176
H   H33       1.0  0.89900  0.07260  0.10020  1.0000 0.1383652773
H   H34       1.0  0.60100  0.57260  0.60020  1.0000 0.1383652773
H   H35       1.0  0.89900  0.07260  0.39980  1.0000 0.1383652773
H   H36       1.0  0.39900  0.42740  0.10020  1.0000 0.1383652773
H   H37       1.0  0.10100  0.92740  0.89980  1.0000 0.1383652773
H   H38       1.0  0.39900  0.42740  0.39980  1.0000 0.1383652773
H   H39       1.0  0.10100  0.92740  0.60020  1.0000 0.1383652773
H   H40       1.0  0.60100  0.57260  0.89980  1.0000 0.1383652773
H   H41       1.0  0.88770  0.96650  0.13950  1.0000 0.1383652773
H   H42       1.0  0.61230  0.46650  0.63950  1.0000 0.1383652773
H   H43       1.0  0.88770  0.96650  0.36050  1.0000 0.1383652773
H   H44       1.0  0.38770  0.53350  0.13950  1.0000 0.1383652773
H   H45       1.0  0.11230  0.03350  0.86050  1.0000 0.1383652773
H   H46       1.0  0.38770  0.53350  0.36050  1.0000 0.1383652773
H   H47       1.0  0.11230  0.03350  0.63950  1.0000 0.1383652773
H   H48       1.0  0.61230  0.46650  0.86050  1.0000 0.1383652773
H   H49       1.0  0.62890  0.21990  0.09460  1.0000 0.1336636703
H   H50       1.0  0.87110  0.71990  0.59460  1.0000 0.1336636703
H   H51       1.0  0.62890  0.21990  0.40540  1.0000 0.1336636703
H   H52       1.0  0.12890  0.28010  0.09460  1.0000 0.1336636703
H   H53       1.0  0.37110  0.78010  0.90540  1.0000 0.1336636703
H   H54       1.0  0.12890  0.28010  0.40540  1.0000 0.1336636703
H   H55       1.0  0.37110  0.78010  0.59460  1.0000 0.1336636703
H   H56       1.0  0.87110  0.71990  0.90540  1.0000 0.1336636703
H   H57       1.0  0.45000  0.21920  0.13620  1.0000 0.1336636703
H   H58       1.0  0.05000  0.71920  0.63620  1.0000 0.1336636703
H   H59       1.0  0.45000  0.21920  0.36380  1.0000 0.1336636703
H   H60       1.0  0.95000  0.28080  0.13620  1.0000 0.1336636703
H   H61       1.0  0.55000  0.78080  0.86380  1.0000 0.1336636703
H   H62       1.0  0.95000  0.28080  0.36380  1.0000 0.1336636703
H   H63       1.0  0.55000  0.78080  0.63620  1.0000 0.1336636703
H   H64       1.0  0.05000  0.71920  0.86380  1.0000 0.1336636703
C   C1        1.0  0.65190  0.86020  0.05980  1.0000 -0.1626443256
C   C2        1.0  0.84810  0.36020  0.55980  1.0000 -0.1626443256
C   C3        1.0  0.65190  0.86020  0.44020  1.0000 -0.1626443256
C   C4        1.0  0.15190  0.63980  0.05980  1.0000 -0.1626443256
C   C5        1.0  0.34810  0.13980  0.94020  1.0000 -0.1626443256
C   C6        1.0  0.15190  0.63980  0.44020  1.0000 -0.1626443256
C   C7        1.0  0.34810  0.13980  0.55980  1.0000 -0.1626443256
C   C8        1.0  0.84810  0.36020  0.94020  1.0000 -0.1626443256
C   C9        1.0  0.56480  0.81610  0.00610  1.0000 -0.1660013187
C   C10       1.0  0.93520  0.31610  0.50610  1.0000 -0.1660013187
C   C11       1.0  0.56480  0.81610  0.49390  1.0000 -0.1660013187
C   C12       1.0  0.06480  0.68390  0.00610  1.0000 -0.1660013187
C   C13       1.0  0.43520  0.18390  0.99390  1.0000 -0.1660013187
C   C14       1.0  0.06480  0.68390  0.49390  1.0000 -0.1660013187
C   C15       1.0  0.43520  0.18390  0.50610  1.0000 -0.1660013187
C   C16       1.0  0.93520  0.31610  0.99390  1.0000 -0.1660013187
C   C17       1.0  0.57900  0.86610  0.94630  1.0000 0.1193791237
C   C18       1.0  0.92100  0.36610  0.44630  1.0000 0.1193791237
C   C19       1.0  0.57900  0.86610  0.55370  1.0000 0.1193791237
C   C20       1.0  0.07900  0.63390  0.94630  1.0000 0.1193791237
C   C21       1.0  0.42100  0.13390  0.05370  1.0000 0.1193791237
C   C22       1.0  0.07900  0.63390  0.55370  1.0000 0.1193791237
C   C23       1.0  0.42100  0.13390  0.44630  1.0000 0.1193791237
C   C24       1.0  0.92100  0.36610  0.05370  1.0000 0.1193791237
C   C25       1.0  0.69060  0.95750  0.94080  1.0000 -0.1478795994
C   C26       1.0  0.80940  0.45750  0.44080  1.0000 -0.1478795994
C   C27       1.0  0.69060  0.95750  0.55920  1.0000 -0.1478795994
C   C28       1.0  0.19060  0.54250  0.94080  1.0000 -0.1478795994
C   C29       1.0  0.30940  0.04250  0.05920  1.0000 -0.1478795994
C   C30       1.0  0.19060  0.54250  0.55920  1.0000 -0.1478795994
C   C31       1.0  0.30940  0.04250  0.44080  1.0000 -0.1478795994
C   C32       1.0  0.80940  0.45750  0.05920  1.0000 -0.1478795994
C   C33       1.0  0.77300  0.00240  0.99460  1.0000 -0.1478795994
C   C34       1.0  0.72700  0.50240  0.49460  1.0000 -0.1478795994
C   C35       1.0  0.77300  0.00240  0.50540  1.0000 -0.1478795994
C   C36       1.0  0.27300  0.49760  0.99460  1.0000 -0.1478795994
C   C37       1.0  0.22700  0.99760  0.00540  1.0000 -0.1478795994
C   C38       1.0  0.27300  0.49760  0.50540  1.0000 -0.1478795994
C   C39       1.0  0.22700  0.99760  0.49460  1.0000 -0.1478795994
C   C40       1.0  0.72700  0.50240  0.00540  1.0000 -0.1478795994
C   C41       1.0  0.75040  0.95690  0.05480  1.0000 0.1193791237
C   C42       1.0  0.74960  0.45690  0.55480  1.0000 0.1193791237
C   C43       1.0  0.75040  0.95690  0.44520  1.0000 0.1193791237
C   C44       1.0  0.25040  0.54310  0.05480  1.0000 0.1193791237
C   C45       1.0  0.24960  0.04310  0.94520  1.0000 0.1193791237
C   C46       1.0  0.25040  0.54310  0.44520  1.0000 0.1193791237
C   C47       1.0  0.24960  0.04310  0.55480  1.0000 0.1193791237
C   C48       1.0  0.74960  0.45690  0.94520  1.0000 0.1193791237
C   C49       1.0  0.81970  0.01570  0.11360  1.0000 -0.2834388379
C   C50       1.0  0.68030  0.51570  0.61360  1.0000 -0.2834388379
C   C51       1.0  0.81970  0.01570  0.38640  1.0000 -0.2834388379
C   C52       1.0  0.31970  0.48430  0.11360  1.0000 -0.2834388379
C   C53       1.0  0.18030  0.98430  0.88640  1.0000 -0.2834388379
C   C54       1.0  0.31970  0.48430  0.38640  1.0000 -0.2834388379
C   C55       1.0  0.18030  0.98430  0.61360  1.0000 -0.2834388379
C   C56       1.0  0.68030  0.51570  0.88640  1.0000 -0.2834388379
C   C57       1.0  0.53080  0.17630  0.11070  1.0000 -0.2881830025
C   C58       1.0  0.96920  0.67630  0.61070  1.0000 -0.2881830025
C   C59       1.0  0.53080  0.17630  0.38930  1.0000 -0.2881830025
C   C60       1.0  0.03080  0.32370  0.11070  1.0000 -0.2881830025
C   C61       1.0  0.46920  0.82370  0.88930  1.0000 -0.2881830025
C   C62       1.0  0.03080  0.32370  0.38930  1.0000 -0.2881830025
C   C63       1.0  0.46920  0.82370  0.61070  1.0000 -0.2881830025
C   C64       1.0  0.96920  0.67630  0.88930  1.0000 -0.2881830025
S   S1        1.0  0.63170  0.07298  0.16211  1.0000 0.088742492
S   S2        1.0  0.86830  0.57298  0.66211  1.0000 0.088742492
S   S3        1.0  0.63170  0.07298  0.33789  1.0000 0.088742492
S   S4        1.0  0.13170  0.42702  0.16211  1.0000 0.088742492
S   S5        1.0  0.36830  0.92702  0.83789  1.0000 0.088742492
S   S6        1.0  0.13170  0.42702  0.33789  1.0000 0.088742492
S   S7        1.0  0.36830  0.92702  0.66211  1.0000 0.088742492
S   S8        1.0  0.86830  0.57298  0.83789  1.0000 0.088742492
I   I1        1.0  0.12819  0.14065  0.25000  1.0000 -0.3809395719
I   I2        1.0  0.37181  0.64065  0.75000  1.0000 -0.3809395719
I   I3        1.0  0.62819  0.35935  0.25000  1.0000 -0.3809395719
I   I4        1.0  0.87181  0.85935  0.75000  1.0000 -0.3809395719
