# DDEC6 charges by PACMAN v1.1 (https://github.com/mtap-research/PACMAN-charge/)
data_2004[Zn][nan]3[ASR]2
_chemical_formula_sum              "Zn8 H20 C2 N2 O12"
_cell_length_a       8.2881
_cell_length_b       8.2881
_cell_length_c       10.566
_cell_angle_alpha    90
_cell_angle_beta     90
_cell_angle_gamma    120

_symmetry_space_group_name_H-M    "P 1"
_symmetry_Int_Tables_number       1

loop_
  _symmetry_equiv_pos_as_xyz
  'x, y, z'

loop_
  _atom_site_type_symbol
  _atom_site_label
  _atom_site_symmetry_multiplicity
  _atom_site_fract_x
  _atom_site_fract_y
  _atom_site_fract_z
  _atom_site_occupancy
  _atom_site_charge
Zn  Zn1       1.0  0.57974  0.86455  0.99057  1.0000 0.9963025777
Zn  Zn2       1.0  0.13510  0.71703  0.98537  1.0000 0.9963025777
Zn  Zn3       1.0  0.28539  0.42194  0.98912  1.0000 0.9917035429
Zn  Zn4       1.0  0.42041  0.13611  0.01053  1.0000 0.9963025777
Zn  Zn5       1.0  0.86569  0.28450  0.01496  1.0000 0.9963025777
Zn  Zn6       1.0  0.71689  0.58236  0.01108  1.0000 0.9917035429
Zn  Zn7       1.0  0.00654  0.00123  0.16457  1.0000 0.8868273227
Zn  Zn8       1.0  0.99761  0.00734  0.84401  1.0000 0.8836164801
H   H1        1.0  0.66253  0.75242  0.19463  1.0000 0.3119964256
H   H2        1.0  0.52913  0.62352  0.81174  1.0000 0.3464152245
H   H3        1.0  0.25018  0.90965  0.19369  1.0000 0.3164657234
H   H4        1.0  0.37726  0.90599  0.81141  1.0000 0.3439388661
H   H5        1.0  0.88494  0.00786  0.36909  1.0000 0.2041837155
H   H6        1.0  0.94206  0.83959  0.38212  1.0000 0.2146859794
H   H7        1.0  0.25629  0.22585  0.39869  1.0000 0.0224540523
H   H8        1.0  0.08815  0.33906  0.19614  1.0000 0.3119964256
H   H9        1.0  0.09397  0.47336  0.81161  1.0000 0.3439388661
H   H10       1.0  0.33933  0.24800  0.80505  1.0000 0.3119964256
H   H11       1.0  0.47417  0.37940  0.18766  1.0000 0.3439388661
H   H12       1.0  0.85423  0.89364  0.61981  1.0000 0.2146859794
H   H13       1.0  0.94959  0.17243  0.51920  1.0000 0.0224540523
H   H14       1.0  0.16722  0.28335  0.60291  1.0000 0.0304010073
H   H15       1.0  0.74848  0.08710  0.80617  1.0000 0.3164657234
H   H16       1.0  0.62348  0.09402  0.18913  1.0000 0.3439388661
H   H17       1.0  0.07340  0.93557  0.64545  1.0000 0.2041837155
H   H18       1.0  0.91158  0.66531  0.80415  1.0000 0.3119964256
H   H19       1.0  0.90589  0.52857  0.18743  1.0000 0.3439388661
H   H20       1.0  0.21577  0.02076  0.47856  1.0000 0.0304010073
C   C1        1.0  0.14761  0.10054  0.44766  1.0000 -0.0523632196
C   C2        1.0  0.06515  0.15194  0.55621  1.0000 -0.0376214254
N   N1        1.0  0.99441  0.97831  0.36023  1.0000 -0.6087365718
N   N2        1.0  0.98661  0.99530  0.64777  1.0000 -0.6087365718
O   O1        1.0  0.74501  0.80464  0.11996  1.0000 -0.9192734332
O   O2        1.0  0.52796  0.62304  0.90422  1.0000 -0.968609956
O   O3        1.0  0.20049  0.93858  0.11765  1.0000 -0.9192734332
O   O4        1.0  0.37916  0.90672  0.90386  1.0000 -0.968609956
O   O5        1.0  0.06314  0.25860  0.12115  1.0000 -0.9192734332
O   O6        1.0  0.09353  0.47259  0.90413  1.0000 -0.9633892448
O   O7        1.0  0.25998  0.20021  0.88170  1.0000 -0.9192734332
O   O8        1.0  0.47429  0.37955  0.09514  1.0000 -0.968609956
O   O9        1.0  0.79849  0.06452  0.88476  1.0000 -0.9192734332
O   O10       1.0  0.62083  0.09380  0.09678  1.0000 -0.968609956
O   O11       1.0  0.93898  0.74464  0.88043  1.0000 -0.9192734332
O   O12       1.0  0.90684  0.52821  0.09491  1.0000 -0.968609956
