# DDEC6 charges by PACMAN v1.1 (https://github.com/mtap-research/PACMAN-charge/)
data_2004[Zn][nan]3[ASR]3
_chemical_formula_sum              "Zn8 H48 C64 N8 O28"
_cell_length_a       13.6688
_cell_length_b       13.6688
_cell_length_c       19.3657
_cell_angle_alpha    96.2809
_cell_angle_beta     96.2809
_cell_angle_gamma    143.586

_symmetry_space_group_name_H-M    "P 1"
_symmetry_Int_Tables_number       1

loop_
  _symmetry_equiv_pos_as_xyz
  'x, y, z'

loop_
  _atom_site_type_symbol
  _atom_site_label
  _atom_site_symmetry_multiplicity
  _atom_site_fract_x
  _atom_site_fract_y
  _atom_site_fract_z
  _atom_site_occupancy
  _atom_site_charge
Zn  Zn1       1.0  0.70516  0.65180  0.02887  1.0000 0.9114461811
Zn  Zn2       1.0  0.62613  0.80173  0.99164  1.0000 0.8498138609
Zn  Zn3       1.0  0.34820  0.29484  0.47113  1.0000 0.9114461811
Zn  Zn4       1.0  0.19827  0.37387  0.50836  1.0000 0.8498138609
Zn  Zn5       1.0  0.29484  0.34820  0.97113  1.0000 0.9114461811
Zn  Zn6       1.0  0.37387  0.19827  0.00836  1.0000 0.8498138609
Zn  Zn7       1.0  0.65180  0.70516  0.52887  1.0000 0.9114461811
Zn  Zn8       1.0  0.80173  0.62613  0.49164  1.0000 0.8498138609
H   H1        1.0  0.70810  0.59190  0.25930  1.0000 0.1402370529
H   H2        1.0  0.70720  0.85760  0.33660  1.0000 0.1478927853
H   H3        1.0  0.82460  0.93780  0.28630  1.0000 0.1564080687
H   H4        1.0  0.13260  0.62040  0.89320  1.0000 0.1402370529
H   H5        1.0  0.32770  0.66210  0.88730  1.0000 0.1212836402
H   H6        1.0  0.58120  0.92440  0.09510  1.0000 0.1212836402
H   H7        1.0  0.39460  0.89400  0.10580  1.0000 0.1310008314
H   H8        1.0  0.93070  0.54770  0.90810  1.0000 0.1310008314
H   H9        1.0  0.73640  0.50420  0.92350  1.0000 0.1212836402
H   H10       1.0  0.05770  0.86650  0.11270  1.0000 0.1212836402
H   H11       1.0  0.25500  0.90900  0.10510  1.0000 0.1310008314
H   H12       1.0  0.38539  0.47873  0.42271  1.0000 0.355360684
H   H13       1.0  0.40810  0.29190  0.24070  1.0000 0.1402370529
H   H14       1.0  0.14240  0.29280  0.16340  1.0000 0.1478927853
H   H15       1.0  0.06220  0.17540  0.21370  1.0000 0.1564080687
H   H16       1.0  0.37960  0.86740  0.60680  1.0000 0.1402370529
H   H17       1.0  0.33790  0.67230  0.61270  1.0000 0.1212836402
H   H18       1.0  0.07560  0.41880  0.40490  1.0000 0.1212836402
H   H19       1.0  0.10600  0.60540  0.39420  1.0000 0.1310008314
H   H20       1.0  0.45230  0.06930  0.59190  1.0000 0.1310008314
H   H21       1.0  0.49580  0.26360  0.57650  1.0000 0.1212836402
H   H22       1.0  0.13350  0.94230  0.38730  1.0000 0.1212836402
H   H23       1.0  0.09100  0.74500  0.39490  1.0000 0.1310008314
H   H24       1.0  0.52127  0.61461  0.07729  1.0000 0.355360684
H   H25       1.0  0.29190  0.40810  0.74070  1.0000 0.1402370529
H   H26       1.0  0.29280  0.14240  0.66340  1.0000 0.1478927853
H   H27       1.0  0.17540  0.06220  0.71370  1.0000 0.1564080687
H   H28       1.0  0.86740  0.37960  0.10680  1.0000 0.1402370529
H   H29       1.0  0.67230  0.33790  0.11270  1.0000 0.1212836402
H   H30       1.0  0.41880  0.07560  0.90490  1.0000 0.1212836402
H   H31       1.0  0.60540  0.10600  0.89420  1.0000 0.1310008314
H   H32       1.0  0.06930  0.45230  0.09190  1.0000 0.1310008314
H   H33       1.0  0.26360  0.49580  0.07650  1.0000 0.1212836402
H   H34       1.0  0.94230  0.13350  0.88730  1.0000 0.1212836402
H   H35       1.0  0.74500  0.09100  0.89490  1.0000 0.1310008314
H   H36       1.0  0.61461  0.52127  0.57729  1.0000 0.355360684
H   H37       1.0  0.59190  0.70810  0.75930  1.0000 0.1402370529
H   H38       1.0  0.85760  0.70720  0.83660  1.0000 0.1478927853
H   H39       1.0  0.93780  0.82460  0.78630  1.0000 0.1564080687
H   H40       1.0  0.62040  0.13260  0.39320  1.0000 0.1402370529
H   H41       1.0  0.66210  0.32770  0.38730  1.0000 0.1212836402
H   H42       1.0  0.92440  0.58120  0.59510  1.0000 0.1212836402
H   H43       1.0  0.89400  0.39460  0.60580  1.0000 0.1310008314
H   H44       1.0  0.54770  0.93070  0.40810  1.0000 0.1310008314
H   H45       1.0  0.50420  0.73640  0.42350  1.0000 0.1212836402
H   H46       1.0  0.86650  0.05770  0.61270  1.0000 0.1212836402
H   H47       1.0  0.90900  0.25500  0.60510  1.0000 0.1310008314
H   H48       1.0  0.47873  0.38539  0.92271  1.0000 0.355360684
C   C1        1.0  0.69297  0.67933  0.18115  1.0000 0.6346082361
C   C2        1.0  0.72316  0.67110  0.25763  1.0000 -0.2532080142
C   C3        1.0  0.76573  0.75905  0.31809  1.0000 0.0704794508
C   C4        1.0  0.75110  0.70566  0.38618  1.0000 0.5756206783
C   C5        1.0  0.80591  0.90233  0.32962  1.0000 -0.3681444405
C   C6        1.0  0.96969  0.06025  0.39737  1.0000 0.659778324
C   C7        1.0  0.22511  0.68551  0.93551  1.0000 -0.2079768935
C   C8        1.0  0.34118  0.70928  0.93243  1.0000 0.0614842539
C   C9        1.0  0.48949  0.86269  0.05329  1.0000 0.0704794508
C   C10       1.0  0.37784  0.84498  0.06001  1.0000 -0.2079768935
C   C11       1.0  0.24223  0.75645  0.00034  1.0000 0.1020638281
C   C12       1.0  0.11650  0.73022  0.00606  1.0000 0.1020638281
C   C13       1.0  0.95951  0.61283  0.95187  1.0000 -0.2079768935
C   C14       1.0  0.84389  0.58909  0.96069  1.0000 0.087432948
C   C15       1.0  0.02951  0.79793  0.07092  1.0000 0.1212836402
C   C16       1.0  0.14998  0.82510  0.06644  1.0000 -0.2079768935
C   C17       1.0  0.32067  0.30703  0.31885  1.0000 0.6346082361
C   C18       1.0  0.32890  0.27684  0.24237  1.0000 -0.2532080142
C   C19       1.0  0.24095  0.23427  0.18191  1.0000 0.0704794508
C   C20       1.0  0.29434  0.24890  0.11382  1.0000 0.5756206783
C   C21       1.0  0.09767  0.19409  0.17038  1.0000 -0.3681444405
C   C22       1.0  0.93975  0.03031  0.10263  1.0000 0.659778324
C   C23       1.0  0.31449  0.77489  0.56449  1.0000 -0.2079768935
C   C24       1.0  0.29072  0.65882  0.56757  1.0000 0.0614842539
C   C25       1.0  0.13731  0.51051  0.44671  1.0000 0.0704794508
C   C26       1.0  0.15502  0.62216  0.43999  1.0000 -0.2079768935
C   C27       1.0  0.24355  0.75777  0.49966  1.0000 0.1020638281
C   C28       1.0  0.26978  0.88350  0.49394  1.0000 0.1020638281
C   C29       1.0  0.38717  0.04049  0.54813  1.0000 -0.2079768935
C   C30       1.0  0.41091  0.15611  0.53931  1.0000 0.087432948
C   C31       1.0  0.20207  0.97049  0.42908  1.0000 0.1212836402
C   C32       1.0  0.17490  0.85002  0.43356  1.0000 -0.2079768935
C   C33       1.0  0.30703  0.32067  0.81885  1.0000 0.6346082361
C   C34       1.0  0.27684  0.32890  0.74237  1.0000 -0.2532080142
C   C35       1.0  0.23427  0.24095  0.68191  1.0000 0.0704794508
C   C36       1.0  0.24890  0.29434  0.61382  1.0000 0.5756206783
C   C37       1.0  0.19409  0.09767  0.67038  1.0000 -0.3681444405
C   C38       1.0  0.03031  0.93975  0.60263  1.0000 0.659778324
C   C39       1.0  0.77489  0.31449  0.06449  1.0000 -0.2079768935
C   C40       1.0  0.65882  0.29072  0.06757  1.0000 0.0614842539
C   C41       1.0  0.51051  0.13731  0.94671  1.0000 0.0704794508
C   C42       1.0  0.62216  0.15502  0.93999  1.0000 -0.2079768935
C   C43       1.0  0.75777  0.24355  0.99966  1.0000 0.1020638281
C   C44       1.0  0.88350  0.26978  0.99394  1.0000 0.1020638281
C   C45       1.0  0.04049  0.38717  0.04813  1.0000 -0.2079768935
C   C46       1.0  0.15611  0.41091  0.03931  1.0000 0.087432948
C   C47       1.0  0.97049  0.20207  0.92908  1.0000 0.1212836402
C   C48       1.0  0.85002  0.17490  0.93356  1.0000 -0.2079768935
C   C49       1.0  0.67933  0.69297  0.68115  1.0000 0.6346082361
C   C50       1.0  0.67110  0.72316  0.75763  1.0000 -0.2532080142
C   C51       1.0  0.75905  0.76573  0.81809  1.0000 0.0704794508
C   C52       1.0  0.70566  0.75110  0.88618  1.0000 0.5756206783
C   C53       1.0  0.90233  0.80591  0.82962  1.0000 -0.3681444405
C   C54       1.0  0.06025  0.96969  0.89737  1.0000 0.659778324
C   C55       1.0  0.68551  0.22511  0.43551  1.0000 -0.2079768935
C   C56       1.0  0.70928  0.34118  0.43243  1.0000 0.0614842539
C   C57       1.0  0.86269  0.48949  0.55329  1.0000 0.0704794508
C   C58       1.0  0.84498  0.37784  0.56001  1.0000 -0.2079768935
C   C59       1.0  0.75645  0.24223  0.50034  1.0000 0.1020638281
C   C60       1.0  0.73022  0.11650  0.50606  1.0000 0.1020638281
C   C61       1.0  0.61283  0.95951  0.45187  1.0000 -0.2079768935
C   C62       1.0  0.58909  0.84389  0.46069  1.0000 0.087432948
C   C63       1.0  0.79793  0.02951  0.57092  1.0000 0.1212836402
C   C64       1.0  0.82510  0.14998  0.56644  1.0000 -0.2079768935
N   N1        1.0  0.47353  0.79681  0.99090  1.0000 -0.2188713578
N   N2        1.0  0.87990  0.68238  0.02005  1.0000 -0.1973653761
N   N3        1.0  0.20319  0.52647  0.50910  1.0000 -0.2188713578
N   N4        1.0  0.31762  0.12010  0.47995  1.0000 -0.1973653761
N   N5        1.0  0.52647  0.20319  0.00910  1.0000 -0.2188713578
N   N6        1.0  0.12010  0.31762  0.97995  1.0000 -0.1973653761
N   N7        1.0  0.79681  0.47353  0.49090  1.0000 -0.2188713578
N   N8        1.0  0.68238  0.87990  0.52005  1.0000 -0.1973653761
O   O1        1.0  0.63154  0.72022  0.17178  1.0000 -0.5949660269
O   O2        1.0  0.72120  0.63238  0.13411  1.0000 -0.6131599275
O   O3        1.0  0.78877  0.64681  0.39463  1.0000 -0.5461910544
O   O4        1.0  0.70102  0.72204  0.42684  1.0000 -0.4986776514
O   O5        1.0  0.07499  0.08279  0.41929  1.0000 -0.5265825121
O   O6        1.0  0.98464  0.16108  0.42670  1.0000 -0.5589886037
O   O7        1.0  0.52127  0.61461  0.02565  1.0000 -0.8561297534
O   O8        1.0  0.27978  0.36846  0.32822  1.0000 -0.5949660269
O   O9        1.0  0.36762  0.27880  0.36589  1.0000 -0.6131599275
O   O10       1.0  0.35319  0.21123  0.10537  1.0000 -0.5461910544
O   O11       1.0  0.27796  0.29898  0.07316  1.0000 -0.4986776514
O   O12       1.0  0.91721  0.92501  0.08071  1.0000 -0.5265825121
O   O13       1.0  0.83892  0.01536  0.07330  1.0000 -0.5589886037
O   O14       1.0  0.38539  0.47873  0.47435  1.0000 -0.8561297534
O   O15       1.0  0.36846  0.27978  0.82822  1.0000 -0.5962362019
O   O16       1.0  0.27880  0.36762  0.86589  1.0000 -0.6131599275
O   O17       1.0  0.21123  0.35319  0.60537  1.0000 -0.5461910544
O   O18       1.0  0.29898  0.27796  0.57316  1.0000 -0.4986776514
O   O19       1.0  0.92501  0.91721  0.58071  1.0000 -0.5265825121
O   O20       1.0  0.01536  0.83892  0.57330  1.0000 -0.5589886037
O   O21       1.0  0.47873  0.38539  0.97435  1.0000 -0.8561297534
O   O22       1.0  0.72022  0.63154  0.67178  1.0000 -0.5962362019
O   O23       1.0  0.63238  0.72120  0.63411  1.0000 -0.6131599275
O   O24       1.0  0.64681  0.78877  0.89463  1.0000 -0.5461910544
O   O25       1.0  0.72204  0.70102  0.92684  1.0000 -0.4986776514
O   O26       1.0  0.08279  0.07499  0.91929  1.0000 -0.5265825121
O   O27       1.0  0.16108  0.98464  0.92670  1.0000 -0.5589886037
O   O28       1.0  0.61461  0.52127  0.52565  1.0000 -0.8561297534
