# DDEC6 charges by PACMAN v1.1 (https://github.com/mtap-research/PACMAN-charge/)
data_2004[Mn][dia]3[ASR]2
_chemical_formula_sum              "Mn12 H24 C24 O48"
_cell_length_a       11.7047
_cell_length_b       10.0946
_cell_length_c       18.556
_cell_angle_alpha    90
_cell_angle_beta     127.585
_cell_angle_gamma    90

_symmetry_space_group_name_H-M    "P 1"
_symmetry_Int_Tables_number       1

loop_
  _symmetry_equiv_pos_as_xyz
  'x, y, z'

loop_
  _atom_site_type_symbol
  _atom_site_label
  _atom_site_symmetry_multiplicity
  _atom_site_fract_x
  _atom_site_fract_y
  _atom_site_fract_z
  _atom_site_occupancy
  _atom_site_charge
Mn  Mn1       1.0  0.62592  0.91471  0.86948  1.0000 0.9748857648
Mn  Mn2       1.0  0.37408  0.41471  0.63052  1.0000 0.9748857648
Mn  Mn3       1.0  0.37408  0.08529  0.13052  1.0000 0.9748857648
Mn  Mn4       1.0  0.62592  0.58529  0.36948  1.0000 0.9748857648
Mn  Mn5       1.0  0.42216  0.09805  0.68289  1.0000 0.9794069857
Mn  Mn6       1.0  0.57784  0.59805  0.81711  1.0000 0.9794069857
Mn  Mn7       1.0  0.57784  0.90195  0.31711  1.0000 0.9794069857
Mn  Mn8       1.0  0.42216  0.40195  0.18289  1.0000 0.9794069857
Mn  Mn9       1.0  0.50000  0.00000  0.00000  1.0000 0.9963808388
Mn  Mn10      1.0  0.50000  0.50000  0.50000  1.0000 0.9963808388
Mn  Mn11      1.0  0.00000  0.00000  0.00000  1.0000 1.0071811409
Mn  Mn12      1.0  1.00000  0.50000  0.50000  1.0000 1.0071811409
H   H1        1.0  0.48400  0.74000  0.63240  1.0000 0.0840992734
H   H2        1.0  0.51600  0.24000  0.86760  1.0000 0.0840992734
H   H3        1.0  0.51600  0.26000  0.36760  1.0000 0.0840992734
H   H4        1.0  0.48400  0.76000  0.13240  1.0000 0.0840992734
H   H5        1.0  0.21300  0.02600  0.73080  1.0000 0.0870800521
H   H6        1.0  0.78700  0.52600  0.76920  1.0000 0.0870800521
H   H7        1.0  0.78700  0.97400  0.26920  1.0000 0.0870800521
H   H8        1.0  0.21300  0.47400  0.23080  1.0000 0.0870800521
H   H9        1.0  0.52200  0.61100  0.96240  1.0000 0.0728258186
H   H10       1.0  0.47800  0.11100  0.53760  1.0000 0.0728258186
H   H11       1.0  0.47800  0.38900  0.03760  1.0000 0.0728258186
H   H12       1.0  0.52200  0.88900  0.46240  1.0000 0.0728258186
H   H13       1.0  0.73100  0.20100  0.76560  1.0000 0.0728258186
H   H14       1.0  0.26900  0.70100  0.73440  1.0000 0.0728258186
H   H15       1.0  0.26900  0.79900  0.23440  1.0000 0.0728258186
H   H16       1.0  0.73100  0.29900  0.26560  1.0000 0.0728258186
H   H17       1.0  0.76800  0.16100  0.07120  1.0000 0.0870800521
H   H18       1.0  0.23200  0.66100  0.42880  1.0000 0.0870800521
H   H19       1.0  0.23200  0.83900  0.92880  1.0000 0.0870800521
H   H20       1.0  0.76800  0.33900  0.57120  1.0000 0.0870800521
H   H21       1.0  0.98900  0.70600  0.97810  1.0000 0.0870800521
H   H22       1.0  0.01100  0.20600  0.52190  1.0000 0.0870800521
H   H23       1.0  0.01100  0.29400  0.02190  1.0000 0.0870800521
H   H24       1.0  0.98900  0.79400  0.47810  1.0000 0.0870800521
C   C1        1.0  0.48850  0.81320  0.66728  1.0000 0.4855490159
C   C2        1.0  0.51150  0.31320  0.83272  1.0000 0.4855490159
C   C3        1.0  0.51150  0.18680  0.33272  1.0000 0.4855490159
C   C4        1.0  0.48850  0.68680  0.16728  1.0000 0.4855490159
C   C5        1.0  0.30600  0.00510  0.78696  1.0000 0.4654074342
C   C6        1.0  0.69400  0.50510  0.71304  1.0000 0.4654074342
C   C7        1.0  0.69400  0.99490  0.21304  1.0000 0.4654074342
C   C8        1.0  0.30600  0.49490  0.28696  1.0000 0.4654074342
C   C9        1.0  0.53550  0.70790  0.95732  1.0000 0.4619669125
C   C10       1.0  0.46450  0.20790  0.54268  1.0000 0.4619669125
C   C11       1.0  0.46450  0.29210  0.04268  1.0000 0.4619669125
C   C12       1.0  0.53550  0.79210  0.45732  1.0000 0.4619669125
C   C13       1.0  0.75810  0.13510  0.81419  1.0000 0.4619669125
C   C14       1.0  0.24190  0.63510  0.68581  1.0000 0.4619669125
C   C15       1.0  0.24190  0.86490  0.18581  1.0000 0.4619669125
C   C16       1.0  0.75810  0.36490  0.31419  1.0000 0.4619669125
C   C17       1.0  0.77580  0.10280  0.03422  1.0000 0.4836536974
C   C18       1.0  0.22420  0.60280  0.46578  1.0000 0.4836536974
C   C19       1.0  0.22420  0.89720  0.96578  1.0000 0.4836536974
C   C20       1.0  0.77580  0.39720  0.53422  1.0000 0.4836536974
C   C21       1.0  0.88390  0.71970  0.94229  1.0000 0.4855490159
C   C22       1.0  0.11610  0.21970  0.55771  1.0000 0.4855490159
C   C23       1.0  0.11610  0.28030  0.05771  1.0000 0.4836536974
C   C24       1.0  0.88390  0.78030  0.44229  1.0000 0.4836536974
O   O1        1.0  0.55658  0.79068  0.75167  1.0000 -0.5535532769
O   O2        1.0  0.44342  0.29068  0.74833  1.0000 -0.5535532769
O   O3        1.0  0.44342  0.20932  0.24833  1.0000 -0.5535532769
O   O4        1.0  0.55658  0.70932  0.25167  1.0000 -0.5535532769
O   O5        1.0  0.43355  0.91997  0.62804  1.0000 -0.4989927728
O   O6        1.0  0.56645  0.41997  0.87196  1.0000 -0.4989927728
O   O7        1.0  0.56645  0.08003  0.37196  1.0000 -0.4989927728
O   O8        1.0  0.43355  0.58003  0.12804  1.0000 -0.4989927728
O   O9        1.0  0.40752  0.99705  0.78048  1.0000 -0.5607930473
O   O10       1.0  0.59248  0.49705  0.71952  1.0000 -0.5607930473
O   O11       1.0  0.59248  0.00295  0.21952  1.0000 -0.5535532769
O   O12       1.0  0.40752  0.50295  0.28048  1.0000 -0.5607930473
O   O13       1.0  0.31770  0.99417  0.85729  1.0000 -0.4910702079
O   O14       1.0  0.68230  0.49417  0.64271  1.0000 -0.4910702079
O   O15       1.0  0.68230  0.00583  0.14271  1.0000 -0.4910702079
O   O16       1.0  0.31770  0.50583  0.35729  1.0000 -0.4910702079
O   O17       1.0  0.55512  0.73492  0.89798  1.0000 -0.5607930473
O   O18       1.0  0.44488  0.23492  0.60202  1.0000 -0.5607930473
O   O19       1.0  0.44488  0.26508  0.10202  1.0000 -0.5607930473
O   O20       1.0  0.55512  0.76508  0.39798  1.0000 -0.5607930473
O   O21       1.0  0.52885  0.78879  0.00393  1.0000 -0.4910702079
O   O22       1.0  0.47115  0.28879  0.49607  1.0000 -0.4910702079
O   O23       1.0  0.47115  0.21121  0.99607  1.0000 -0.4910702079
O   O24       1.0  0.52885  0.71121  0.50393  1.0000 -0.4910702079
O   O25       1.0  0.65138  0.07350  0.80055  1.0000 -0.5535532769
O   O26       1.0  0.34862  0.57350  0.69945  1.0000 -0.5535532769
O   O27       1.0  0.34862  0.92650  0.19945  1.0000 -0.5535532769
O   O28       1.0  0.65138  0.42650  0.30055  1.0000 -0.5535532769
O   O29       1.0  0.88572  0.11989  0.87925  1.0000 -0.4821776121
O   O30       1.0  0.11428  0.61989  0.62075  1.0000 -0.4821776121
O   O31       1.0  0.11428  0.88011  0.12075  1.0000 -0.4821776121
O   O32       1.0  0.88572  0.38011  0.37925  1.0000 -0.4821776121
O   O33       1.0  0.66498  0.02925  0.97928  1.0000 -0.5607930473
O   O34       1.0  0.33502  0.52925  0.52072  1.0000 -0.5607930473
O   O35       1.0  0.33502  0.97075  0.02072  1.0000 -0.5607930473
O   O36       1.0  0.66498  0.47075  0.47928  1.0000 -0.5607930473
O   O37       1.0  0.88751  0.10265  0.04207  1.0000 -0.4989927728
O   O38       1.0  0.11249  0.60265  0.45793  1.0000 -0.4989927728
O   O39       1.0  0.11249  0.89735  0.95793  1.0000 -0.4989927728
O   O40       1.0  0.88751  0.39735  0.54207  1.0000 -0.4989927728
O   O41       1.0  0.84107  0.83784  0.93640  1.0000 -0.5412380367
O   O42       1.0  0.15893  0.33784  0.56360  1.0000 -0.5412380367
O   O43       1.0  0.15893  0.16216  0.06360  1.0000 -0.5412380367
O   O44       1.0  0.84107  0.66216  0.43640  1.0000 -0.5412380367
O   O45       1.0  0.80679  0.61999  0.90695  1.0000 -0.4989927728
O   O46       1.0  0.19321  0.11999  0.59305  1.0000 -0.4989927728
O   O47       1.0  0.19321  0.38001  0.09305  1.0000 -0.4989927728
O   O48       1.0  0.80679  0.88001  0.40695  1.0000 -0.4989927728
