# DDEC6 charges by PACMAN v1.1 (https://github.com/mtap-research/PACMAN-charge/)
data_2004[Yb][pcu]3[ASR]1
_chemical_formula_sum              "Yb28 H176 C288 O128"
_cell_length_a       15.825
_cell_length_b       23.261
_cell_length_c       23.883
_cell_angle_alpha    90
_cell_angle_beta     91.142
_cell_angle_gamma    90

_symmetry_space_group_name_H-M    "P 1"
_symmetry_Int_Tables_number       1

loop_
  _symmetry_equiv_pos_as_xyz
  'x, y, z'

loop_
  _atom_site_type_symbol
  _atom_site_label
  _atom_site_symmetry_multiplicity
  _atom_site_fract_x
  _atom_site_fract_y
  _atom_site_fract_z
  _atom_site_occupancy
  _atom_site_charge
Yb  Yb1       1.0  0.24692  0.78704  0.98943  1.0000 2.1880122179
Yb  Yb2       1.0  0.75308  0.21296  0.01057  1.0000 2.1880122179
Yb  Yb3       1.0  0.25308  0.28704  0.51057  1.0000 2.1880122179
Yb  Yb4       1.0  0.74692  0.71296  0.48943  1.0000 2.1880122179
Yb  Yb5       1.0  0.16045  0.81063  0.12603  1.0000 2.1118170971
Yb  Yb6       1.0  0.83955  0.18937  0.87397  1.0000 2.1118170971
Yb  Yb7       1.0  0.33955  0.31063  0.37397  1.0000 2.1118170971
Yb  Yb8       1.0  0.66045  0.68937  0.62603  1.0000 2.1118170971
Yb  Yb9       1.0  0.03413  0.75347  0.02197  1.0000 2.0982053929
Yb  Yb10      1.0  0.96587  0.24653  0.97803  1.0000 2.0982053929
Yb  Yb11      1.0  0.46587  0.25347  0.47803  1.0000 2.0982053929
Yb  Yb12      1.0  0.53413  0.74653  0.52197  1.0000 2.0982053929
Yb  Yb13      1.0  0.19440  0.66899  0.08978  1.0000 2.0474800819
Yb  Yb14      1.0  0.80560  0.33101  0.91022  1.0000 2.0474800819
Yb  Yb15      1.0  0.30560  0.16899  0.41022  1.0000 2.0474800819
Yb  Yb16      1.0  0.69440  0.83101  0.58978  1.0000 2.0474800819
Yb  Yb17      1.0  0.32820  0.82683  0.85435  1.0000 2.1225941533
Yb  Yb18      1.0  0.67180  0.17317  0.14565  1.0000 2.1225941533
Yb  Yb19      1.0  0.17180  0.32683  0.64565  1.0000 2.1225941533
Yb  Yb20      1.0  0.82820  0.67317  0.35435  1.0000 2.1225941533
Yb  Yb21      1.0  0.29881  0.68116  0.87923  1.0000 2.0942542308
Yb  Yb22      1.0  0.70119  0.31884  0.12077  1.0000 2.0942542308
Yb  Yb23      1.0  0.20119  0.18116  0.62077  1.0000 2.0942542308
Yb  Yb24      1.0  0.79881  0.81884  0.37923  1.0000 2.0942542308
Yb  Yb25      1.0  0.46181  0.75872  0.94993  1.0000 2.0982053929
Yb  Yb26      1.0  0.53819  0.24128  0.05007  1.0000 2.0982053929
Yb  Yb27      1.0  0.03819  0.25872  0.55007  1.0000 2.0982053929
Yb  Yb28      1.0  0.96181  0.74128  0.44993  1.0000 2.0982053929
H   H1        1.0  0.12169  0.85749  0.01450  1.0000 0.4195392576
H   H2        1.0  0.87831  0.14251  0.98550  1.0000 0.4195392576
H   H3        1.0  0.37831  0.35749  0.48550  1.0000 0.4195392576
H   H4        1.0  0.62169  0.64251  0.51450  1.0000 0.4195392576
H   H5        1.0  0.15798  0.67688  0.97187  1.0000 0.4195392576
H   H6        1.0  0.84202  0.32312  0.02813  1.0000 0.4195392576
H   H7        1.0  0.34202  0.17688  0.52813  1.0000 0.4195392576
H   H8        1.0  0.65798  0.82312  0.47187  1.0000 0.4195392576
H   H9        1.0  0.32599  0.75904  0.09099  1.0000 0.4195392576
H   H10       1.0  0.67401  0.24096  0.90901  1.0000 0.4195392576
H   H11       1.0  0.17401  0.25904  0.40901  1.0000 0.4195392576
H   H12       1.0  0.82599  0.74096  0.59099  1.0000 0.4195392576
H   H13       1.0  0.05246  0.70884  0.14118  1.0000 0.4315120929
H   H14       1.0  0.94754  0.29116  0.85882  1.0000 0.4315120929
H   H15       1.0  0.44754  0.20884  0.35882  1.0000 0.4315120929
H   H16       1.0  0.55246  0.79116  0.64118  1.0000 0.4315120929
H   H17       1.0  0.16643  0.76941  0.88745  1.0000 0.4195392576
H   H18       1.0  0.83357  0.23059  0.11255  1.0000 0.4195392576
H   H19       1.0  0.33357  0.26941  0.61255  1.0000 0.4195392576
H   H20       1.0  0.66643  0.73059  0.38745  1.0000 0.4195392576
H   H21       1.0  0.37284  0.86086  0.96900  1.0000 0.4127793664
H   H22       1.0  0.62716  0.13914  0.03100  1.0000 0.4127793664
H   H23       1.0  0.12716  0.36086  0.53100  1.0000 0.4127793664
H   H24       1.0  0.87284  0.63914  0.46900  1.0000 0.4127793664
H   H25       1.0  0.33749  0.67870  0.99546  1.0000 0.4127793664
H   H26       1.0  0.66251  0.32130  0.00454  1.0000 0.4127793664
H   H27       1.0  0.16251  0.17870  0.50454  1.0000 0.4127793664
H   H28       1.0  0.83749  0.82130  0.49546  1.0000 0.4127793664
H   H29       1.0  0.44843  0.73519  0.82677  1.0000 0.4474279636
H   H30       1.0  0.55157  0.26481  0.17323  1.0000 0.4474279636
H   H31       1.0  0.05157  0.23519  0.67323  1.0000 0.4474279636
H   H32       1.0  0.94843  0.76481  0.32677  1.0000 0.4474279636
H   H33       1.0  0.95987  0.02774  0.89030  1.0000 0.0990933663
H   H34       1.0  0.04013  0.97226  0.10970  1.0000 0.0990933663
H   H35       1.0  0.54013  0.52774  0.60970  1.0000 0.0990933663
H   H36       1.0  0.45987  0.47226  0.39030  1.0000 0.0990933663
H   H37       1.0  0.03315  0.93149  0.89772  1.0000 0.0990933663
H   H38       1.0  0.96685  0.06851  0.10228  1.0000 0.0990933663
H   H39       1.0  0.46685  0.43149  0.60228  1.0000 0.0990933663
H   H40       1.0  0.53315  0.56851  0.39772  1.0000 0.0990933663
H   H41       1.0  0.17484  0.16703  0.94294  1.0000 0.1182880388
H   H42       1.0  0.82516  0.83297  0.05706  1.0000 0.1182880388
H   H43       1.0  0.32516  0.66703  0.55706  1.0000 0.1182880388
H   H44       1.0  0.67484  0.33297  0.44294  1.0000 0.1182880388
H   H45       1.0  0.32769  0.16045  0.96752  1.0000 0.110149519
H   H46       1.0  0.67231  0.83955  0.03248  1.0000 0.110149519
H   H47       1.0  0.17231  0.66045  0.53248  1.0000 0.110149519
H   H48       1.0  0.82769  0.33955  0.46752  1.0000 0.110149519
H   H49       1.0  0.40021  0.06578  0.96916  1.0000 0.0902124264
H   H50       1.0  0.59979  0.93422  0.03084  1.0000 0.0902124264
H   H51       1.0  0.09979  0.56578  0.53084  1.0000 0.0902124264
H   H52       1.0  0.90021  0.43422  0.46916  1.0000 0.0902124264
H   H53       1.0  0.32056  0.97616  0.94523  1.0000 0.0902124264
H   H54       1.0  0.67944  0.02384  0.05477  1.0000 0.0902124264
H   H55       1.0  0.17944  0.47616  0.55477  1.0000 0.0902124264
H   H56       1.0  0.82056  0.52384  0.44523  1.0000 0.0902124264
H   H57       1.0  0.32550  0.78369  0.39051  1.0000 0.1182880388
H   H58       1.0  0.67450  0.21631  0.60949  1.0000 0.1182880388
H   H59       1.0  0.17450  0.28369  0.10949  1.0000 0.1182880388
H   H60       1.0  0.82550  0.71631  0.89051  1.0000 0.1182880388
H   H61       1.0  0.24312  0.78110  0.29779  1.0000 0.1182880388
H   H62       1.0  0.75688  0.21890  0.70221  1.0000 0.1182880388
H   H63       1.0  0.25688  0.28110  0.20221  1.0000 0.1182880388
H   H64       1.0  0.74312  0.71890  0.79779  1.0000 0.1182880388
H   H65       1.0  0.40126  0.65531  0.18022  1.0000 0.110149519
H   H66       1.0  0.59874  0.34469  0.81978  1.0000 0.110149519
H   H67       1.0  0.09874  0.15531  0.31978  1.0000 0.110149519
H   H68       1.0  0.90126  0.84469  0.68022  1.0000 0.110149519
H   H69       1.0  0.53814  0.60306  0.19043  1.0000 0.0902124264
H   H70       1.0  0.46186  0.39694  0.80957  1.0000 0.0902124264
H   H71       1.0  0.96186  0.10306  0.30957  1.0000 0.0902124264
H   H72       1.0  0.03814  0.89694  0.69043  1.0000 0.0902124264
H   H73       1.0  0.61633  0.60196  0.28268  1.0000 0.0990933663
H   H74       1.0  0.38367  0.39804  0.71732  1.0000 0.0990933663
H   H75       1.0  0.88367  0.10196  0.21732  1.0000 0.0990933663
H   H76       1.0  0.11633  0.89804  0.78268  1.0000 0.0990933663
H   H77       1.0  0.56410  0.66041  0.36182  1.0000 0.110149519
H   H78       1.0  0.43590  0.33959  0.63818  1.0000 0.110149519
H   H79       1.0  0.93590  0.16041  0.13818  1.0000 0.110149519
H   H80       1.0  0.06410  0.83959  0.86182  1.0000 0.110149519
H   H81       1.0  0.74780  0.70337  0.17488  1.0000 0.110149519
H   H82       1.0  0.25220  0.29663  0.82512  1.0000 0.110149519
H   H83       1.0  0.75220  0.20337  0.32512  1.0000 0.110149519
H   H84       1.0  0.24780  0.79663  0.67488  1.0000 0.110149519
H   H85       1.0  0.67112  0.71091  0.08056  1.0000 0.110149519
H   H86       1.0  0.32888  0.28909  0.91944  1.0000 0.110149519
H   H87       1.0  0.82888  0.21091  0.41944  1.0000 0.110149519
H   H88       1.0  0.17112  0.78909  0.58056  1.0000 0.110149519
H   H89       1.0  0.42327  0.82308  0.11686  1.0000 0.110149519
H   H90       1.0  0.57673  0.17692  0.88314  1.0000 0.110149519
H   H91       1.0  0.07673  0.32308  0.38314  1.0000 0.110149519
H   H92       1.0  0.92327  0.67692  0.61686  1.0000 0.110149519
H   H93       1.0  0.36156  0.86783  0.20090  1.0000 0.0990933663
H   H94       1.0  0.63844  0.13217  0.79910  1.0000 0.0990933663
H   H95       1.0  0.13844  0.36783  0.29910  1.0000 0.0990933663
H   H96       1.0  0.86156  0.63217  0.70090  1.0000 0.0990933663
H   H97       1.0  0.43520  0.85876  0.29425  1.0000 0.0990933663
H   H98       1.0  0.56480  0.14124  0.70575  1.0000 0.0990933663
H   H99       1.0  0.06480  0.35876  0.20575  1.0000 0.0990933663
H   H100      1.0  0.93520  0.64124  0.79425  1.0000 0.0990933663
H   H101      1.0  0.57256  0.80730  0.30273  1.0000 0.110149519
H   H102      1.0  0.42744  0.19270  0.69727  1.0000 0.110149519
H   H103      1.0  0.92744  0.30730  0.19727  1.0000 0.110149519
H   H104      1.0  0.07256  0.69270  0.80273  1.0000 0.110149519
H   H105      1.0  0.88460  0.45460  0.03136  1.0000 0.1182880388
H   H106      1.0  0.11540  0.54540  0.96864  1.0000 0.1182880388
H   H107      1.0  0.61540  0.95460  0.46864  1.0000 0.1182880388
H   H108      1.0  0.38460  0.04540  0.53136  1.0000 0.1182880388
H   H109      1.0  0.98935  0.53684  0.02800  1.0000 0.110149519
H   H110      1.0  0.01065  0.46316  0.97200  1.0000 0.110149519
H   H111      1.0  0.51065  0.03684  0.47200  1.0000 0.110149519
H   H112      1.0  0.48935  0.96316  0.52800  1.0000 0.110149519
H   H113      1.0  0.08662  0.56249  0.21771  1.0000 0.1182880388
H   H114      1.0  0.91338  0.43751  0.78229  1.0000 0.1182880388
H   H115      1.0  0.41338  0.06249  0.28229  1.0000 0.1182880388
H   H116      1.0  0.58662  0.93751  0.71771  1.0000 0.1182880388
H   H117      1.0  0.04414  0.52248  0.30964  1.0000 0.0822732409
H   H118      1.0  0.95586  0.47752  0.69036  1.0000 0.0822732409
H   H119      1.0  0.45586  0.02248  0.19036  1.0000 0.0822732409
H   H120      1.0  0.54414  0.97752  0.80964  1.0000 0.0822732409
H   H121      1.0  0.92764  0.45042  0.31489  1.0000 0.0990933663
H   H122      1.0  0.07236  0.54958  0.68511  1.0000 0.0990933663
H   H123      1.0  0.57236  0.95042  0.18511  1.0000 0.0990933663
H   H124      1.0  0.42764  0.04958  0.81489  1.0000 0.0990933663
H   H125      1.0  0.85150  0.41885  0.22775  1.0000 0.110149519
H   H126      1.0  0.14850  0.58115  0.77225  1.0000 0.110149519
H   H127      1.0  0.64850  0.91885  0.27225  1.0000 0.110149519
H   H128      1.0  0.35150  0.08115  0.72775  1.0000 0.110149519
H   H129      1.0  0.54486  0.00841  0.07221  1.0000 0.0990933663
H   H130      1.0  0.45514  0.99159  0.92779  1.0000 0.0990933663
H   H131      1.0  0.95514  0.50841  0.42779  1.0000 0.0990933663
H   H132      1.0  0.04486  0.49159  0.57221  1.0000 0.0990933663
H   H133      1.0  0.45912  0.91782  0.05748  1.0000 0.0990933663
H   H134      1.0  0.54088  0.08218  0.94252  1.0000 0.0990933663
H   H135      1.0  0.04088  0.41782  0.44252  1.0000 0.0990933663
H   H136      1.0  0.95912  0.58218  0.55748  1.0000 0.0990933663
H   H137      1.0  0.34065  0.15312  0.11959  1.0000 0.110149519
H   H138      1.0  0.65935  0.84688  0.88041  1.0000 0.110149519
H   H139      1.0  0.15935  0.65312  0.38041  1.0000 0.110149519
H   H140      1.0  0.84065  0.34688  0.61959  1.0000 0.110149519
H   H141      1.0  0.18767  0.15238  0.13624  1.0000 0.0822732409
H   H142      1.0  0.81233  0.84762  0.86376  1.0000 0.0822732409
H   H143      1.0  0.31233  0.65238  0.36376  1.0000 0.0822732409
H   H144      1.0  0.68767  0.34762  0.63624  1.0000 0.0822732409
H   H145      1.0  0.10362  0.06248  0.12620  1.0000 0.0902124264
H   H146      1.0  0.89638  0.93752  0.87380  1.0000 0.0902124264
H   H147      1.0  0.39638  0.56248  0.37380  1.0000 0.0902124264
H   H148      1.0  0.60362  0.43752  0.62620  1.0000 0.0902124264
H   H149      1.0  0.17460  0.97068  0.10045  1.0000 0.0990933663
H   H150      1.0  0.82540  0.02932  0.89955  1.0000 0.0990933663
H   H151      1.0  0.32540  0.47068  0.39955  1.0000 0.0990933663
H   H152      1.0  0.67460  0.52932  0.60045  1.0000 0.0990933663
H   H153      1.0  0.53365  0.46640  0.13876  1.0000 0.110149519
H   H154      1.0  0.46635  0.53360  0.86124  1.0000 0.110149519
H   H155      1.0  0.96635  0.96640  0.36124  1.0000 0.110149519
H   H156      1.0  0.03365  0.03360  0.63876  1.0000 0.110149519
H   H157      1.0  0.43650  0.55282  0.14366  1.0000 0.0990933663
H   H158      1.0  0.56350  0.44718  0.85634  1.0000 0.0990933663
H   H159      1.0  0.06350  0.05282  0.35634  1.0000 0.0990933663
H   H160      1.0  0.93650  0.94718  0.64366  1.0000 0.0990933663
H   H161      1.0  0.26871  0.54492  0.97424  1.0000 0.0902124264
H   H162      1.0  0.73129  0.45508  0.02576  1.0000 0.0902124264
H   H163      1.0  0.23129  0.04492  0.52576  1.0000 0.0902124264
H   H164      1.0  0.76871  0.95508  0.47424  1.0000 0.0902124264
H   H165      1.0  0.25778  0.47777  0.89323  1.0000 0.0990933663
H   H166      1.0  0.74222  0.52223  0.10677  1.0000 0.0990933663
H   H167      1.0  0.24222  0.97777  0.60677  1.0000 0.0990933663
H   H168      1.0  0.75778  0.02223  0.39323  1.0000 0.0990933663
H   H169      1.0  0.35088  0.39156  0.88930  1.0000 0.0822732409
H   H170      1.0  0.64912  0.60844  0.11070  1.0000 0.0822732409
H   H171      1.0  0.14912  0.89156  0.61070  1.0000 0.0822732409
H   H172      1.0  0.85088  0.10844  0.38930  1.0000 0.0822732409
H   H173      1.0  0.45258  0.36988  0.96740  1.0000 0.110149519
H   H174      1.0  0.54742  0.63012  0.03260  1.0000 0.110149519
H   H175      1.0  0.04742  0.86988  0.53260  1.0000 0.110149519
H   H176      1.0  0.95258  0.13012  0.46740  1.0000 0.110149519
C   C1        1.0  0.02015  0.13113  0.90763  1.0000 0.6544543856
C   C2        1.0  0.97985  0.86887  0.09237  1.0000 0.6544543856
C   C3        1.0  0.47985  0.63113  0.59237  1.0000 0.6544543856
C   C4        1.0  0.52015  0.36887  0.40763  1.0000 0.6544543856
C   C5        1.0  0.07044  0.07621  0.91348  1.0000 -0.0719605072
C   C6        1.0  0.92956  0.92379  0.08652  1.0000 -0.0719605072
C   C7        1.0  0.42956  0.57621  0.58652  1.0000 -0.0719605072
C   C8        1.0  0.57044  0.42379  0.41348  1.0000 -0.0719605072
C   C9        1.0  0.02666  0.02480  0.90264  1.0000 -0.1006713533
C   C10       1.0  0.97334  0.97520  0.09736  1.0000 -0.1006713533
C   C11       1.0  0.47334  0.52480  0.59736  1.0000 -0.1006713533
C   C12       1.0  0.52666  0.47520  0.40264  1.0000 -0.1006713533
C   C13       1.0  0.06741  0.97166  0.90617  1.0000 -0.1103271772
C   C14       1.0  0.93259  0.02834  0.09383  1.0000 -0.1103271772
C   C15       1.0  0.43259  0.47166  0.59383  1.0000 -0.1103271772
C   C16       1.0  0.56741  0.52834  0.40617  1.0000 -0.1103271772
C   C17       1.0  0.15474  0.96956  0.91643  1.0000 -0.0513641405
C   C18       1.0  0.84526  0.03044  0.08357  1.0000 -0.0513641405
C   C19       1.0  0.34526  0.46956  0.58357  1.0000 -0.0513641405
C   C20       1.0  0.65474  0.53044  0.41643  1.0000 -0.0513641405
C   C21       1.0  0.20127  0.02046  0.92979  1.0000 0.0427809977
C   C22       1.0  0.79873  0.97954  0.07021  1.0000 0.0427809977
C   C23       1.0  0.29873  0.52046  0.57021  1.0000 0.0427809977
C   C24       1.0  0.70127  0.47954  0.42979  1.0000 0.0427809977
C   C25       1.0  0.15846  0.07514  0.92913  1.0000 0.0481359595
C   C26       1.0  0.84154  0.92486  0.07087  1.0000 0.0481359595
C   C27       1.0  0.34154  0.57514  0.57087  1.0000 0.0481359595
C   C28       1.0  0.65846  0.42486  0.42913  1.0000 0.0481359595
C   C29       1.0  0.20639  0.12521  0.94253  1.0000 -0.1103271772
C   C30       1.0  0.79361  0.87479  0.05747  1.0000 -0.1103271772
C   C31       1.0  0.29361  0.62521  0.55747  1.0000 -0.1103271772
C   C32       1.0  0.70639  0.37479  0.44253  1.0000 -0.1103271772
C   C33       1.0  0.29219  0.12154  0.95634  1.0000 -0.0798672651
C   C34       1.0  0.70781  0.87846  0.04366  1.0000 -0.0798672651
C   C35       1.0  0.20781  0.62154  0.54366  1.0000 -0.0798672651
C   C36       1.0  0.79219  0.37846  0.45634  1.0000 -0.0798672651
C   C37       1.0  0.33333  0.06794  0.95694  1.0000 -0.0798672651
C   C38       1.0  0.66667  0.93206  0.04306  1.0000 -0.0798672651
C   C39       1.0  0.16668  0.56794  0.54306  1.0000 -0.0798672651
C   C40       1.0  0.83332  0.43206  0.45694  1.0000 -0.0798672651
C   C41       1.0  0.28868  0.01803  0.94375  1.0000 -0.1298526584
C   C42       1.0  0.71132  0.98197  0.05625  1.0000 -0.1298526584
C   C43       1.0  0.21132  0.51803  0.55625  1.0000 -0.1298526584
C   C44       1.0  0.78868  0.48197  0.44375  1.0000 -0.1298526584
C   C45       1.0  0.19861  0.91312  0.90955  1.0000 0.6315513903
C   C46       1.0  0.80139  0.08688  0.09045  1.0000 0.6315513903
C   C47       1.0  0.30139  0.41312  0.59045  1.0000 0.6315513903
C   C48       1.0  0.69861  0.58688  0.40955  1.0000 0.6315513903
C   C49       1.0  0.46322  0.73129  0.41890  1.0000 0.5732290612
C   C50       1.0  0.53678  0.26871  0.58110  1.0000 0.5732290612
C   C51       1.0  0.03678  0.23129  0.08110  1.0000 0.5732290612
C   C52       1.0  0.96322  0.76871  0.91890  1.0000 0.5732290612
C   C53       1.0  0.42076  0.72577  0.36212  1.0000 -0.0513641405
C   C54       1.0  0.57924  0.27423  0.63788  1.0000 -0.0513641405
C   C55       1.0  0.07924  0.22577  0.13788  1.0000 -0.0513641405
C   C56       1.0  0.92076  0.77423  0.86212  1.0000 -0.0513641405
C   C57       1.0  0.34660  0.75786  0.35501  1.0000 -0.1006713533
C   C58       1.0  0.65340  0.24214  0.64499  1.0000 -0.1006713533
C   C59       1.0  0.15340  0.25786  0.14499  1.0000 -0.1006713533
C   C60       1.0  0.84660  0.74214  0.85501  1.0000 -0.1006713533
C   C61       1.0  0.30078  0.75586  0.30460  1.0000 -0.1006713533
C   C62       1.0  0.69922  0.24414  0.69540  1.0000 -0.1006713533
C   C63       1.0  0.19922  0.25586  0.19540  1.0000 -0.1006713533
C   C64       1.0  0.80078  0.74414  0.80460  1.0000 -0.1006713533
C   C65       1.0  0.32760  0.72211  0.25985  1.0000 -0.058886767
C   C66       1.0  0.67240  0.27789  0.74015  1.0000 -0.058886767
C   C67       1.0  0.17240  0.22211  0.24015  1.0000 -0.058886767
C   C68       1.0  0.82760  0.77789  0.75985  1.0000 -0.058886767
C   C69       1.0  0.40404  0.68911  0.26484  1.0000 0.0585048935
C   C70       1.0  0.59596  0.31089  0.73516  1.0000 0.0585048935
C   C71       1.0  0.09596  0.18911  0.23516  1.0000 0.0585048935
C   C72       1.0  0.90404  0.81089  0.76484  1.0000 0.0585048935
C   C73       1.0  0.43709  0.65648  0.22000  1.0000 -0.1192430569
C   C74       1.0  0.56291  0.34352  0.78000  1.0000 -0.1192430569
C   C75       1.0  0.06291  0.15648  0.28000  1.0000 -0.1192430569
C   C76       1.0  0.93709  0.84352  0.72000  1.0000 -0.1192430569
C   C77       1.0  0.51262  0.62643  0.22618  1.0000 -0.0904344441
C   C78       1.0  0.48738  0.37357  0.77382  1.0000 -0.0904344441
C   C79       1.0  0.98738  0.12643  0.27382  1.0000 -0.0904344441
C   C80       1.0  0.01262  0.87357  0.72618  1.0000 -0.0904344441
C   C81       1.0  0.55722  0.62630  0.27771  1.0000 -0.0798672651
C   C82       1.0  0.44278  0.37370  0.72229  1.0000 -0.0798672651
C   C83       1.0  0.94278  0.12630  0.22229  1.0000 -0.0798672651
C   C84       1.0  0.05722  0.87370  0.77771  1.0000 -0.0798672651
C   C85       1.0  0.52767  0.65833  0.32233  1.0000 -0.141711401
C   C86       1.0  0.47233  0.34167  0.67767  1.0000 -0.141711401
C   C87       1.0  0.97233  0.15833  0.17767  1.0000 -0.141711401
C   C88       1.0  0.02767  0.84167  0.82233  1.0000 -0.141711401
C   C89       1.0  0.45177  0.69103  0.31731  1.0000 0.0427809977
C   C90       1.0  0.54823  0.30897  0.68269  1.0000 0.0427809977
C   C91       1.0  0.04823  0.19103  0.18269  1.0000 0.0427809977
C   C92       1.0  0.95177  0.80897  0.81731  1.0000 0.0427809977
C   C93       1.0  0.27025  0.72545  0.20865  1.0000 0.6376022489
C   C94       1.0  0.72975  0.27455  0.79135  1.0000 0.6376022489
C   C95       1.0  0.22975  0.22545  0.29135  1.0000 0.6376022489
C   C96       1.0  0.77025  0.77455  0.70865  1.0000 0.6376022489
C   C97       1.0  0.71490  0.75192  0.26765  1.0000 0.6315513903
C   C98       1.0  0.28510  0.24808  0.73235  1.0000 0.6315513903
C   C99       1.0  0.78510  0.25192  0.23235  1.0000 0.6315513903
C   C100      1.0  0.21490  0.74808  0.76765  1.0000 0.6315513903
C   C101      1.0  0.65706  0.75507  0.21709  1.0000 -0.0513641405
C   C102      1.0  0.34294  0.24493  0.78291  1.0000 -0.0513641405
C   C103      1.0  0.84294  0.25507  0.28291  1.0000 -0.0513641405
C   C104      1.0  0.15706  0.74493  0.71709  1.0000 -0.0513641405
C   C105      1.0  0.68837  0.72712  0.16984  1.0000 -0.1006713533
C   C106      1.0  0.31163  0.27288  0.83016  1.0000 -0.1006713533
C   C107      1.0  0.81163  0.22712  0.33016  1.0000 -0.1006713533
C   C108      1.0  0.18837  0.77288  0.66984  1.0000 -0.1006713533
C   C109      1.0  0.64593  0.73065  0.11840  1.0000 -0.1103271772
C   C110      1.0  0.35407  0.26935  0.88160  1.0000 -0.1103271772
C   C111      1.0  0.85407  0.23065  0.38160  1.0000 -0.1103271772
C   C112      1.0  0.14593  0.76935  0.61840  1.0000 -0.1103271772
C   C113      1.0  0.56974  0.76127  0.11333  1.0000 -0.0437655023
C   C114      1.0  0.43026  0.23873  0.88667  1.0000 -0.0437655023
C   C115      1.0  0.93026  0.26127  0.38667  1.0000 -0.0437655023
C   C116      1.0  0.06974  0.73873  0.61333  1.0000 -0.0437655023
C   C117      1.0  0.53384  0.78870  0.16090  1.0000 0.0481359595
C   C118      1.0  0.46616  0.21130  0.83910  1.0000 0.0481359595
C   C119      1.0  0.96616  0.28870  0.33910  1.0000 0.0481359595
C   C120      1.0  0.03384  0.71130  0.66090  1.0000 0.0481359595
C   C121      1.0  0.45634  0.81979  0.15749  1.0000 -0.141711401
C   C122      1.0  0.54366  0.18021  0.84251  1.0000 -0.141711401
C   C123      1.0  0.04366  0.31979  0.34251  1.0000 -0.141711401
C   C124      1.0  0.95634  0.68021  0.65749  1.0000 -0.141711401
C   C125      1.0  0.42192  0.84497  0.20472  1.0000 -0.0798672651
C   C126      1.0  0.57808  0.15503  0.79528  1.0000 -0.0798672651
C   C127      1.0  0.07808  0.34497  0.29528  1.0000 -0.0798672651
C   C128      1.0  0.92192  0.65503  0.70472  1.0000 -0.0798672651
C   C129      1.0  0.46375  0.84013  0.25692  1.0000 -0.0719605072
C   C130      1.0  0.53625  0.15987  0.74308  1.0000 -0.0719605072
C   C131      1.0  0.03625  0.34013  0.24308  1.0000 -0.0719605072
C   C132      1.0  0.96375  0.65987  0.75692  1.0000 -0.0719605072
C   C133      1.0  0.54093  0.81109  0.26175  1.0000 -0.1192430569
C   C134      1.0  0.45907  0.18891  0.73825  1.0000 -0.1192430569
C   C135      1.0  0.95907  0.31109  0.23825  1.0000 -0.1192430569
C   C136      1.0  0.04093  0.68891  0.76175  1.0000 -0.1192430569
C   C137      1.0  0.57836  0.78545  0.21422  1.0000 0.0585048935
C   C138      1.0  0.42164  0.21455  0.78578  1.0000 0.0585048935
C   C139      1.0  0.92164  0.28545  0.28578  1.0000 0.0585048935
C   C140      1.0  0.07836  0.71455  0.71422  1.0000 0.0585048935
C   C141      1.0  0.53128  0.76397  0.05535  1.0000 0.5644737834
C   C142      1.0  0.46872  0.23603  0.94465  1.0000 0.5644737834
C   C143      1.0  0.96872  0.26397  0.44465  1.0000 0.5644737834
C   C144      1.0  0.03128  0.73603  0.55535  1.0000 0.5644737834
C   C145      1.0  0.81805  0.40756  0.12202  1.0000 0.5732290612
C   C146      1.0  0.18195  0.59244  0.87798  1.0000 0.5732290612
C   C147      1.0  0.68195  0.90756  0.37798  1.0000 0.5732290612
C   C148      1.0  0.31805  0.09244  0.62202  1.0000 0.5732290612
C   C149      1.0  0.88762  0.45142  0.12208  1.0000 -0.0513641405
C   C150      1.0  0.11238  0.54858  0.87792  1.0000 -0.0513641405
C   C151      1.0  0.61238  0.95142  0.37792  1.0000 -0.0513641405
C   C152      1.0  0.38762  0.04858  0.62208  1.0000 -0.0513641405
C   C153      1.0  0.91218  0.47295  0.06994  1.0000 -0.1103271772
C   C154      1.0  0.08782  0.52705  0.93006  1.0000 -0.1103271772
C   C155      1.0  0.58782  0.97295  0.43006  1.0000 -0.1103271772
C   C156      1.0  0.41218  0.02705  0.56994  1.0000 -0.1103271772
C   C157      1.0  0.97192  0.51692  0.06767  1.0000 -0.1006713533
C   C158      1.0  0.02808  0.48308  0.93233  1.0000 -0.1006713533
C   C159      1.0  0.52808  0.01692  0.43233  1.0000 -0.1006713533
C   C160      1.0  0.47192  0.98308  0.56767  1.0000 -0.1006713533
C   C161      1.0  0.01183  0.53841  0.11608  1.0000 -0.0513641405
C   C162      1.0  0.98817  0.46159  0.88392  1.0000 -0.0513641405
C   C163      1.0  0.48817  0.03841  0.38392  1.0000 -0.0513641405
C   C164      1.0  0.51183  0.96159  0.61608  1.0000 -0.0513641405
C   C165      1.0  0.99325  0.51416  0.16951  1.0000 0.0481359595
C   C166      1.0  0.00675  0.48584  0.83049  1.0000 0.0481359595
C   C167      1.0  0.50675  0.01416  0.33049  1.0000 0.0481359595
C   C168      1.0  0.49325  0.98584  0.66951  1.0000 0.0481359595
C   C169      1.0  0.03563  0.53074  0.21987  1.0000 -0.1298526584
C   C170      1.0  0.96437  0.46926  0.78013  1.0000 -0.1298526584
C   C171      1.0  0.46437  0.03074  0.28013  1.0000 -0.1298526584
C   C172      1.0  0.53563  0.96926  0.71987  1.0000 -0.1298526584
C   C173      1.0  0.01197  0.50802  0.27134  1.0000 -0.0719605072
C   C174      1.0  0.98803  0.49198  0.72866  1.0000 -0.0719605072
C   C175      1.0  0.48803  0.00802  0.22866  1.0000 -0.0719605072
C   C176      1.0  0.51197  0.99198  0.77134  1.0000 -0.0719605072
C   C177      1.0  0.94630  0.46762  0.27434  1.0000 -0.0798672651
C   C178      1.0  0.05370  0.53238  0.72566  1.0000 -0.0798672651
C   C179      1.0  0.55370  0.96762  0.22566  1.0000 -0.0798672651
C   C180      1.0  0.44630  0.03238  0.77434  1.0000 -0.0798672651
C   C181      1.0  0.90449  0.44930  0.22558  1.0000 -0.1192430569
C   C182      1.0  0.09551  0.55070  0.77442  1.0000 -0.1192430569
C   C183      1.0  0.59551  0.94930  0.27442  1.0000 -0.1192430569
C   C184      1.0  0.40449  0.05070  0.72558  1.0000 -0.1192430569
C   C185      1.0  0.92743  0.47136  0.17254  1.0000 0.0481359595
C   C186      1.0  0.07257  0.52864  0.82746  1.0000 0.0481359595
C   C187      1.0  0.57257  0.97136  0.32746  1.0000 0.0481359595
C   C188      1.0  0.42743  0.02864  0.67254  1.0000 0.0481359595
C   C189      1.0  0.07093  0.58868  0.10750  1.0000 0.5732290612
C   C190      1.0  0.92907  0.41132  0.89250  1.0000 0.5732290612
C   C191      1.0  0.42907  0.08868  0.39250  1.0000 0.5732290612
C   C192      1.0  0.57093  0.91132  0.60750  1.0000 0.5732290612
C   C193      1.0  0.48927  0.11372  0.10171  1.0000 0.6376022489
C   C194      1.0  0.51073  0.88628  0.89829  1.0000 0.6376022489
C   C195      1.0  0.01073  0.61372  0.39829  1.0000 0.6376022489
C   C196      1.0  0.98927  0.38628  0.60171  1.0000 0.6376022489
C   C197      1.0  0.43708  0.06008  0.09289  1.0000 -0.058886767
C   C198      1.0  0.56292  0.93992  0.90711  1.0000 -0.058886767
C   C199      1.0  0.06292  0.56008  0.40711  1.0000 -0.058886767
C   C200      1.0  0.93708  0.43992  0.59289  1.0000 -0.058886767
C   C201      1.0  0.47623  0.00866  0.07737  1.0000 -0.1103271772
C   C202      1.0  0.52377  0.99134  0.92263  1.0000 -0.1103271772
C   C203      1.0  0.02377  0.50866  0.42263  1.0000 -0.1103271772
C   C204      1.0  0.97623  0.49134  0.57737  1.0000 -0.1103271772
C   C205      1.0  0.42891  0.95820  0.07009  1.0000 -0.1006713533
C   C206      1.0  0.57109  0.04180  0.92991  1.0000 -0.1006713533
C   C207      1.0  0.07109  0.45820  0.42991  1.0000 -0.1006713533
C   C208      1.0  0.92891  0.54180  0.57009  1.0000 -0.1006713533
C   C209      1.0  0.34258  0.95729  0.08219  1.0000 -0.0719605072
C   C210      1.0  0.65742  0.04271  0.91781  1.0000 -0.0719605072
C   C211      1.0  0.15742  0.45729  0.41781  1.0000 -0.0719605072
C   C212      1.0  0.84258  0.54271  0.58219  1.0000 -0.0719605072
C   C213      1.0  0.29964  0.00923  0.09599  1.0000 0.0481359595
C   C214      1.0  0.70036  0.99077  0.90401  1.0000 0.0481359595
C   C215      1.0  0.20036  0.50923  0.40401  1.0000 0.0481359595
C   C216      1.0  0.79964  0.49077  0.59599  1.0000 0.0481359595
C   C217      1.0  0.34765  0.06158  0.10098  1.0000 0.0427809977
C   C218      1.0  0.65235  0.93842  0.89902  1.0000 0.0427809977
C   C219      1.0  0.15235  0.56158  0.39902  1.0000 0.0427809977
C   C220      1.0  0.84765  0.43842  0.60098  1.0000 0.0427809977
C   C221      1.0  0.30518  0.11287  0.11580  1.0000 -0.1192430569
C   C222      1.0  0.69482  0.88713  0.88420  1.0000 -0.1192430569
C   C223      1.0  0.19482  0.61287  0.38420  1.0000 -0.1192430569
C   C224      1.0  0.80518  0.38713  0.61580  1.0000 -0.1192430569
C   C225      1.0  0.21888  0.11243  0.12484  1.0000 -0.0719605072
C   C226      1.0  0.78112  0.88757  0.87516  1.0000 -0.0719605072
C   C227      1.0  0.28112  0.61243  0.37516  1.0000 -0.0719605072
C   C228      1.0  0.71888  0.38757  0.62484  1.0000 -0.0719605072
C   C229      1.0  0.17166  0.06149  0.11898  1.0000 -0.0798672651
C   C230      1.0  0.82834  0.93851  0.88102  1.0000 -0.0798672651
C   C231      1.0  0.32834  0.56149  0.38102  1.0000 -0.0798672651
C   C232      1.0  0.67166  0.43851  0.61898  1.0000 -0.0798672651
C   C233      1.0  0.21109  0.01049  0.10465  1.0000 -0.1192430569
C   C234      1.0  0.78891  0.98951  0.89535  1.0000 -0.1192430569
C   C235      1.0  0.28891  0.51049  0.39535  1.0000 -0.1192430569
C   C236      1.0  0.71109  0.48951  0.60465  1.0000 -0.1192430569
C   C237      1.0  0.29686  0.90066  0.08190  1.0000 0.6376022489
C   C238      1.0  0.70314  0.09934  0.91810  1.0000 0.6376022489
C   C239      1.0  0.20314  0.40066  0.41810  1.0000 0.6376022489
C   C240      1.0  0.79686  0.59934  0.58190  1.0000 0.6376022489
C   C241      1.0  0.52961  0.38172  0.06973  1.0000 0.6376022489
C   C242      1.0  0.47039  0.61828  0.93027  1.0000 0.6376022489
C   C243      1.0  0.97039  0.88172  0.43027  1.0000 0.6376022489
C   C244      1.0  0.02961  0.11828  0.56973  1.0000 0.6376022489
C   C245      1.0  0.47793  0.43555  0.06230  1.0000 -0.058886767
C   C246      1.0  0.52207  0.56445  0.93770  1.0000 -0.058886767
C   C247      1.0  0.02207  0.93555  0.43770  1.0000 -0.058886767
C   C248      1.0  0.97793  0.06445  0.56230  1.0000 -0.058886767
C   C249      1.0  0.48608  0.47542  0.10598  1.0000 -0.0904344441
C   C250      1.0  0.51392  0.52458  0.89402  1.0000 -0.0904344441
C   C251      1.0  0.01392  0.97542  0.39402  1.0000 -0.0904344441
C   C252      1.0  0.98608  0.02458  0.60598  1.0000 -0.0904344441
C   C253      1.0  0.43386  0.52330  0.10792  1.0000 -0.1103271772
C   C254      1.0  0.56614  0.47670  0.89208  1.0000 -0.1103271772
C   C255      1.0  0.06614  0.02330  0.39208  1.0000 -0.1103271772
C   C256      1.0  0.93386  0.97670  0.60792  1.0000 -0.1103271772
C   C257      1.0  0.37404  0.53332  0.06476  1.0000 -0.0513641405
C   C258      1.0  0.62596  0.46668  0.93524  1.0000 -0.0513641405
C   C259      1.0  0.12596  0.03332  0.43524  1.0000 -0.0513641405
C   C260      1.0  0.87404  0.96668  0.56476  1.0000 -0.0513641405
C   C261      1.0  0.36732  0.49578  0.01764  1.0000 0.0427809977
C   C262      1.0  0.63268  0.50422  0.98236  1.0000 0.0427809977
C   C263      1.0  0.13268  0.99578  0.48236  1.0000 0.0427809977
C   C264      1.0  0.86732  0.00422  0.51764  1.0000 0.0427809977
C   C265      1.0  0.30890  0.50643  0.97306  1.0000 -0.1006713533
C   C266      1.0  0.69110  0.49357  0.02694  1.0000 -0.1006713533
C   C267      1.0  0.19110  0.00643  0.52694  1.0000 -0.1006713533
C   C268      1.0  0.80890  0.99357  0.47306  1.0000 -0.1006713533
C   C269      1.0  0.30261  0.46891  0.92761  1.0000 -0.0719605072
C   C270      1.0  0.69739  0.53109  0.07239  1.0000 -0.0719605072
C   C271      1.0  0.19739  0.96891  0.57239  1.0000 -0.0719605072
C   C272      1.0  0.80261  0.03109  0.42761  1.0000 -0.0719605072
C   C273      1.0  0.35501  0.42026  0.92569  1.0000 -0.0904344441
C   C274      1.0  0.64499  0.57974  0.07431  1.0000 -0.0904344441
C   C275      1.0  0.14499  0.92026  0.57431  1.0000 -0.0904344441
C   C276      1.0  0.85501  0.07974  0.42569  1.0000 -0.0904344441
C   C277      1.0  0.41270  0.40822  0.96920  1.0000 -0.1103271772
C   C278      1.0  0.58730  0.59178  0.03080  1.0000 -0.1103271772
C   C279      1.0  0.08730  0.90822  0.53080  1.0000 -0.1103271772
C   C280      1.0  0.91270  0.09178  0.46920  1.0000 -0.1103271772
C   C281      1.0  0.41992  0.44523  0.01629  1.0000 0.0585048935
C   C282      1.0  0.58008  0.55477  0.98371  1.0000 0.0585048935
C   C283      1.0  0.08008  0.94523  0.48371  1.0000 0.0585048935
C   C284      1.0  0.91992  0.05477  0.51629  1.0000 0.0585048935
C   C285      1.0  0.31388  0.58174  0.07369  1.0000 0.5732290612
C   C286      1.0  0.68612  0.41826  0.92631  1.0000 0.5732290612
C   C287      1.0  0.18612  0.08174  0.42631  1.0000 0.5732290612
C   C288      1.0  0.81388  0.91826  0.57369  1.0000 0.5732290612
O   O1        1.0  0.12902  0.82153  0.03472  1.0000 -1.2270047512
O   O2        1.0  0.87098  0.17847  0.96528  1.0000 -1.2270047512
O   O3        1.0  0.37098  0.32153  0.46528  1.0000 -1.2270047512
O   O4        1.0  0.62902  0.67847  0.53472  1.0000 -1.2270047512
O   O5        1.0  0.15702  0.70576  0.00192  1.0000 -1.1911288049
O   O6        1.0  0.84298  0.29424  0.99808  1.0000 -1.1911288049
O   O7        1.0  0.34298  0.20576  0.49808  1.0000 -1.1911288049
O   O8        1.0  0.65702  0.79424  0.50192  1.0000 -1.1911288049
O   O9        1.0  0.26530  0.75726  0.08327  1.0000 -1.1911288049
O   O10       1.0  0.73470  0.24274  0.91673  1.0000 -1.1911288049
O   O11       1.0  0.23470  0.25726  0.41673  1.0000 -1.1911288049
O   O12       1.0  0.76530  0.74274  0.58327  1.0000 -1.1911288049
O   O13       1.0  0.07737  0.73011  0.11053  1.0000 -1.2587907559
O   O14       1.0  0.92263  0.26989  0.88947  1.0000 -1.2587907559
O   O15       1.0  0.42263  0.23011  0.38947  1.0000 -1.2587907559
O   O16       1.0  0.57737  0.76989  0.61053  1.0000 -1.2587907559
O   O17       1.0  0.22760  0.76814  0.89354  1.0000 -1.1981880909
O   O18       1.0  0.77240  0.23186  0.10646  1.0000 -1.1981880909
O   O19       1.0  0.27240  0.26814  0.60646  1.0000 -1.1981880909
O   O20       1.0  0.72760  0.73186  0.39354  1.0000 -1.1981880909
O   O21       1.0  0.36114  0.82802  0.94502  1.0000 -1.2244329101
O   O22       1.0  0.63886  0.17198  0.05498  1.0000 -1.2244329101
O   O23       1.0  0.13886  0.32802  0.55498  1.0000 -1.2270047512
O   O24       1.0  0.86114  0.67198  0.44502  1.0000 -1.2270047512
O   O25       1.0  0.33600  0.71036  0.96811  1.0000 -1.1911288049
O   O26       1.0  0.66400  0.28964  0.03189  1.0000 -1.1911288049
O   O27       1.0  0.16400  0.21036  0.53189  1.0000 -1.1911288049
O   O28       1.0  0.83600  0.78964  0.46811  1.0000 -1.1911288049
O   O29       1.0  0.40969  0.74370  0.85679  1.0000 -1.284398908
O   O30       1.0  0.59031  0.25630  0.14321  1.0000 -1.284398908
O   O31       1.0  0.09031  0.24370  0.64321  1.0000 -1.284398908
O   O32       1.0  0.90969  0.75630  0.35679  1.0000 -1.284398908
O   O33       1.0  0.96047  0.13064  0.87090  1.0000 -0.6711751676
O   O34       1.0  0.03953  0.86936  0.12910  1.0000 -0.6711751676
O   O35       1.0  0.53953  0.63064  0.62910  1.0000 -0.6711751676
O   O36       1.0  0.46047  0.36936  0.37090  1.0000 -0.6711751676
O   O37       1.0  0.04060  0.17249  0.93992  1.0000 -0.6711751676
O   O38       1.0  0.95940  0.82751  0.06008  1.0000 -0.6711751676
O   O39       1.0  0.45940  0.67249  0.56008  1.0000 -0.6711751676
O   O40       1.0  0.54060  0.32751  0.43992  1.0000 -0.6711751676
O   O41       1.0  0.18539  0.87671  0.94790  1.0000 -0.640468294
O   O42       1.0  0.81461  0.12329  0.05210  1.0000 -0.640468294
O   O43       1.0  0.31461  0.37671  0.55210  1.0000 -0.640468294
O   O44       1.0  0.68539  0.62329  0.44790  1.0000 -0.640468294
O   O45       1.0  0.24286  0.90644  0.86631  1.0000 -0.65960241
O   O46       1.0  0.75714  0.09356  0.13369  1.0000 -0.65960241
O   O47       1.0  0.25714  0.40644  0.63369  1.0000 -0.65960241
O   O48       1.0  0.74286  0.59356  0.36631  1.0000 -0.65960241
O   O49       1.0  0.54263  0.72255  0.42469  1.0000 -0.65960241
O   O50       1.0  0.45737  0.27745  0.57531  1.0000 -0.65960241
O   O51       1.0  0.95737  0.22255  0.07531  1.0000 -0.65960241
O   O52       1.0  0.04263  0.77745  0.92469  1.0000 -0.65960241
O   O53       1.0  0.41611  0.74665  0.45949  1.0000 -0.65960241
O   O54       1.0  0.58389  0.25335  0.54051  1.0000 -0.65960241
O   O55       1.0  0.08389  0.24665  0.04051  1.0000 -0.65960241
O   O56       1.0  0.91611  0.75335  0.95949  1.0000 -0.6478555768
O   O57       1.0  0.26907  0.68359  0.17446  1.0000 -0.6478555768
O   O58       1.0  0.73093  0.31641  0.82554  1.0000 -0.6478555768
O   O59       1.0  0.23093  0.18359  0.32554  1.0000 -0.6478555768
O   O60       1.0  0.76907  0.81641  0.67446  1.0000 -0.6478555768
O   O61       1.0  0.22479  0.77072  0.20446  1.0000 -0.6977307743
O   O62       1.0  0.77521  0.22928  0.79554  1.0000 -0.6977307743
O   O63       1.0  0.27521  0.27072  0.29554  1.0000 -0.6977307743
O   O64       1.0  0.72479  0.72928  0.70446  1.0000 -0.6977307743
O   O65       1.0  0.75233  0.70372  0.27522  1.0000 -0.6898968166
O   O66       1.0  0.24767  0.29628  0.72478  1.0000 -0.6898968166
O   O67       1.0  0.74767  0.20372  0.22478  1.0000 -0.6898968166
O   O68       1.0  0.25233  0.79628  0.77522  1.0000 -0.6898968166
O   O69       1.0  0.72516  0.79749  0.29620  1.0000 -0.65960241
O   O70       1.0  0.27484  0.20251  0.70380  1.0000 -0.65960241
O   O71       1.0  0.77484  0.29749  0.20380  1.0000 -0.65960241
O   O72       1.0  0.22516  0.70251  0.79620  1.0000 -0.65960241
O   O73       1.0  0.58331  0.76139  0.01508  1.0000 -0.6264649129
O   O74       1.0  0.41669  0.23861  0.98492  1.0000 -0.6264649129
O   O75       1.0  0.91669  0.26139  0.48492  1.0000 -0.6264649129
O   O76       1.0  0.08331  0.73861  0.51508  1.0000 -0.6264649129
O   O77       1.0  0.45129  0.76811  0.04837  1.0000 -0.65960241
O   O78       1.0  0.54871  0.23189  0.95163  1.0000 -0.65960241
O   O79       1.0  0.04871  0.26811  0.45163  1.0000 -0.65960241
O   O80       1.0  0.95129  0.73189  0.54837  1.0000 -0.65960241
O   O81       1.0  0.82393  0.36701  0.08580  1.0000 -0.640468294
O   O82       1.0  0.17607  0.63299  0.91420  1.0000 -0.640468294
O   O83       1.0  0.67607  0.86701  0.41420  1.0000 -0.640468294
O   O84       1.0  0.32393  0.13299  0.58580  1.0000 -0.640468294
O   O85       1.0  0.75728  0.41225  0.15538  1.0000 -0.6062049887
O   O86       1.0  0.24272  0.58775  0.84462  1.0000 -0.6062049887
O   O87       1.0  0.74272  0.91225  0.34462  1.0000 -0.6062049887
O   O88       1.0  0.25728  0.08775  0.65538  1.0000 -0.6062049887
O   O89       1.0  0.09493  0.59725  0.05715  1.0000 -0.6478555768
O   O90       1.0  0.90507  0.40275  0.94285  1.0000 -0.6478555768
O   O91       1.0  0.40507  0.09725  0.44285  1.0000 -0.6478555768
O   O92       1.0  0.59493  0.90275  0.55715  1.0000 -0.6478555768
O   O93       1.0  0.09316  0.62005  0.14888  1.0000 -0.6062049887
O   O94       1.0  0.90684  0.37995  0.85112  1.0000 -0.6062049887
O   O95       1.0  0.40684  0.12005  0.35112  1.0000 -0.6062049887
O   O96       1.0  0.59316  0.87995  0.64888  1.0000 -0.6062049887
O   O97       1.0  0.55074  0.11001  0.13694  1.0000 -0.6711751676
O   O98       1.0  0.44926  0.88999  0.86306  1.0000 -0.6711751676
O   O99       1.0  0.94926  0.61001  0.36306  1.0000 -0.6711751676
O   O100      1.0  0.05074  0.38999  0.63694  1.0000 -0.6711751676
O   O101      1.0  0.46666  0.15767  0.07369  1.0000 -0.6711751676
O   O102      1.0  0.53334  0.84233  0.92631  1.0000 -0.6711751676
O   O103      1.0  0.03334  0.65767  0.42631  1.0000 -0.6711751676
O   O104      1.0  0.96666  0.34233  0.57369  1.0000 -0.6711751676
O   O105      1.0  0.31336  0.86842  0.04046  1.0000 -0.6478555768
O   O106      1.0  0.68664  0.13158  0.95954  1.0000 -0.6478555768
O   O107      1.0  0.18664  0.36842  0.45954  1.0000 -0.6478555768
O   O108      1.0  0.81336  0.63158  0.54046  1.0000 -0.6478555768
O   O109      1.0  0.24737  0.88927  0.12163  1.0000 -0.6711751676
O   O110      1.0  0.75263  0.11073  0.87837  1.0000 -0.6711751676
O   O111      1.0  0.25263  0.38927  0.37837  1.0000 -0.6711751676
O   O112      1.0  0.74737  0.61073  0.62163  1.0000 -0.6711751676
O   O113      1.0  0.59946  0.38780  0.09632  1.0000 -0.65960241
O   O114      1.0  0.40054  0.61220  0.90368  1.0000 -0.65960241
O   O115      1.0  0.90054  0.88780  0.40368  1.0000 -0.65960241
O   O116      1.0  0.09946  0.11220  0.59632  1.0000 -0.65960241
O   O117      1.0  0.49745  0.33535  0.05109  1.0000 -0.6898968166
O   O118      1.0  0.50255  0.66465  0.94891  1.0000 -0.6898968166
O   O119      1.0  0.00255  0.83535  0.44891  1.0000 -0.6898968166
O   O120      1.0  0.99745  0.16465  0.55109  1.0000 -0.6898968166
O   O121      1.0  0.31411  0.62670  0.04332  1.0000 -0.6264649129
O   O122      1.0  0.68589  0.37330  0.95668  1.0000 -0.6264649129
O   O123      1.0  0.18589  0.12670  0.45668  1.0000 -0.6264649129
O   O124      1.0  0.81411  0.87330  0.54332  1.0000 -0.6264649129
O   O125      1.0  0.26468  0.57359  0.11407  1.0000 -0.5844197518
O   O126      1.0  0.73532  0.42641  0.88593  1.0000 -0.5844197518
O   O127      1.0  0.23532  0.07359  0.38593  1.0000 -0.5844197518
O   O128      1.0  0.76468  0.92641  0.61407  1.0000 -0.5844197518
