# DDEC6 charges by PACMAN v1.1 (https://github.com/mtap-research/PACMAN-charge/)
data_2004[Fe][dia]3[ASR]2
_chemical_formula_sum              "Fe4 C8 Cl4 O18"
_cell_length_a       14
_cell_length_b       12.6667
_cell_length_c       8.73428
_cell_angle_alpha    79.3917
_cell_angle_beta     62.786
_cell_angle_gamma    37.8223

_symmetry_space_group_name_H-M    "P 1"
_symmetry_Int_Tables_number       1

loop_
  _symmetry_equiv_pos_as_xyz
  'x, y, z'

loop_
  _atom_site_type_symbol
  _atom_site_label
  _atom_site_symmetry_multiplicity
  _atom_site_fract_x
  _atom_site_fract_y
  _atom_site_fract_z
  _atom_site_occupancy
  _atom_site_charge
Fe  Fe1       1.0  0.86942  0.01918  0.97960  1.0000 1.1328848364
Fe  Fe2       1.0  0.13180  0.97960  0.01918  1.0000 1.1328848364
Fe  Fe3       1.0  0.23082  0.38058  0.11820  1.0000 1.1370299222
Fe  Fe4       1.0  0.27040  0.11820  0.38058  1.0000 1.1370299222
C   C1        1.0  0.50360  0.27200  0.11960  1.0000 0.5053684102
C   C2        1.0  0.10480  0.11960  0.27200  1.0000 0.5053684102
C   C3        1.0  0.97800  0.74640  0.14520  1.0000 0.5053684102
C   C4        1.0  0.13040  0.14520  0.74640  1.0000 0.5053684102
C   C5        1.0  0.13410  0.65010  0.95390  1.0000 0.4979638444
C   C6        1.0  0.26190  0.95390  0.65010  1.0000 0.4979638444
C   C7        1.0  0.59990  0.11590  0.98810  1.0000 0.4979638444
C   C8        1.0  0.29610  0.98810  0.11590  1.0000 0.4979638444
Cl  Cl1       1.0  0.15917  0.33227  0.97813  1.0000 -0.29326445
Cl  Cl2       1.0  0.53043  0.97813  0.33227  1.0000 -0.29326445
Cl  Cl3       1.0  0.91773  0.09083  0.71957  1.0000 -0.29326445
Cl  Cl4       1.0  0.27187  0.71957  0.09083  1.0000 -0.29326445
O   O1        1.0  0.17290  0.32710  0.32710  1.0000 -0.5730128227
O   O2        1.0  0.92290  0.07710  0.07710  1.0000 -0.5730128227
O   O3        1.0  0.59900  0.25480  0.13520  1.0000 -0.3681015609
O   O4        1.0  0.01100  0.13520  0.25480  1.0000 -0.3681015609
O   O5        1.0  0.99520  0.65100  0.23900  1.0000 -0.3681015609
O   O6        1.0  0.11480  0.23900  0.65100  1.0000 -0.3681015609
O   O7        1.0  0.26780  0.48400  0.90780  1.0000 -0.4063955683
O   O8        1.0  0.34040  0.90780  0.48400  1.0000 -0.4063955683
O   O9        1.0  0.76600  0.98220  0.90960  1.0000 -0.4063955683
O   O10       1.0  0.34220  0.90960  0.98220  1.0000 -0.4011018095
O   O11       1.0  0.10980  0.75080  0.85700  1.0000 -0.4011018095
O   O12       1.0  0.28240  0.85700  0.75080  1.0000 -0.4011018095
O   O13       1.0  0.49920  0.14020  0.96760  1.0000 -0.4011018095
O   O14       1.0  0.39300  0.96760  0.14020  1.0000 -0.4011018095
O   O15       1.0  0.33510  0.40530  0.20070  1.0000 -0.3855634866
O   O16       1.0  0.05890  0.20070  0.40530  1.0000 -0.3838032025
O   O17       1.0  0.84470  0.91490  0.19110  1.0000 -0.3838032025
O   O18       1.0  0.04930  0.19110  0.91490  1.0000 -0.3838032025
