# DDEC6 charges by PACMAN v1.1 (https://github.com/mtap-research/PACMAN-charge/)
data_2004[Mn][fet]3[ASR]2
_chemical_formula_sum              "Mn4 H48 C56 N8 O16"
_cell_length_a       8.852
_cell_length_b       17.847
_cell_length_c       11.686
_cell_angle_alpha    90
_cell_angle_beta     99.67
_cell_angle_gamma    90

_symmetry_space_group_name_H-M    "P 1"
_symmetry_Int_Tables_number       1

loop_
  _symmetry_equiv_pos_as_xyz
  'x, y, z'

loop_
  _atom_site_type_symbol
  _atom_site_label
  _atom_site_symmetry_multiplicity
  _atom_site_fract_x
  _atom_site_fract_y
  _atom_site_fract_z
  _atom_site_occupancy
  _atom_site_charge
Mn  Mn1       1.0  0.79412  0.17015  0.38127  1.0000 0.8707335125
Mn  Mn2       1.0  0.29412  0.32985  0.38127  1.0000 0.8707335125
Mn  Mn3       1.0  0.20588  0.82985  0.61873  1.0000 0.8707335125
Mn  Mn4       1.0  0.70588  0.67015  0.61873  1.0000 0.8707335125
H   H1        1.0  0.98090  0.23570  0.18700  1.0000 0.1104812341
H   H2        1.0  0.48090  0.26430  0.18700  1.0000 0.1104812341
H   H3        1.0  0.01910  0.76430  0.81300  1.0000 0.1104812341
H   H4        1.0  0.51910  0.73570  0.81300  1.0000 0.1104812341
H   H5        1.0  0.98370  0.23710  0.99270  1.0000 0.1215868521
H   H6        1.0  0.48370  0.26290  0.99270  1.0000 0.1215868521
H   H7        1.0  0.01630  0.76290  0.00730  1.0000 0.1215868521
H   H8        1.0  0.51630  0.73710  0.00730  1.0000 0.1215868521
H   H9        1.0  0.61610  0.10620  0.94840  1.0000 0.1390099506
H   H10       1.0  0.11610  0.39380  0.94840  1.0000 0.1390099506
H   H11       1.0  0.38390  0.89380  0.05160  1.0000 0.1390099506
H   H12       1.0  0.88390  0.60620  0.05160  1.0000 0.1390099506
H   H13       1.0  0.62380  0.10820  0.14410  1.0000 0.1215868521
H   H14       1.0  0.12380  0.39180  0.14410  1.0000 0.1215868521
H   H15       1.0  0.37620  0.89180  0.85590  1.0000 0.1215868521
H   H16       1.0  0.87620  0.60820  0.85590  1.0000 0.1215868521
H   H17       1.0  0.95100  0.24690  0.61520  1.0000 0.1104812341
H   H18       1.0  0.45100  0.25310  0.61520  1.0000 0.1104812341
H   H19       1.0  0.04900  0.75310  0.38480  1.0000 0.1104812341
H   H20       1.0  0.54900  0.74690  0.38480  1.0000 0.1104812341
H   H21       1.0  0.95830  0.25020  0.81080  1.0000 0.1278492342
H   H22       1.0  0.45830  0.24980  0.81080  1.0000 0.1278492342
H   H23       1.0  0.04170  0.74980  0.18920  1.0000 0.1278492342
H   H24       1.0  0.54170  0.75020  0.18920  1.0000 0.1278492342
H   H25       1.0  0.63580  0.09170  0.77470  1.0000 0.1390099506
H   H26       1.0  0.13580  0.40830  0.77470  1.0000 0.1390099506
H   H27       1.0  0.36420  0.90830  0.22530  1.0000 0.1390099506
H   H28       1.0  0.86420  0.59170  0.22530  1.0000 0.1390099506
H   H29       1.0  0.63790  0.09310  0.57890  1.0000 0.1215868521
H   H30       1.0  0.13790  0.40690  0.57890  1.0000 0.1215868521
H   H31       1.0  0.36210  0.90690  0.42110  1.0000 0.1215868521
H   H32       1.0  0.86210  0.59310  0.42110  1.0000 0.1215868521
H   H33       1.0  0.71900  0.88170  0.38620  1.0000 0.1104812341
H   H34       1.0  0.21900  0.61830  0.38620  1.0000 0.1104812341
H   H35       1.0  0.28100  0.11830  0.61380  1.0000 0.1104812341
H   H36       1.0  0.78100  0.38170  0.61380  1.0000 0.1104812341
H   H37       1.0  0.88570  0.91440  0.40140  1.0000 0.1215868521
H   H38       1.0  0.38570  0.58560  0.40140  1.0000 0.1215868521
H   H39       1.0  0.11430  0.08560  0.59860  1.0000 0.1215868521
H   H40       1.0  0.61430  0.41440  0.59860  1.0000 0.1215868521
H   H41       1.0  0.88380  0.94390  0.59190  1.0000 0.1390099506
H   H42       1.0  0.38380  0.55610  0.59190  1.0000 0.1390099506
H   H43       1.0  0.11620  0.05610  0.40810  1.0000 0.1390099506
H   H44       1.0  0.61620  0.44390  0.40810  1.0000 0.1390099506
H   H45       1.0  0.70710  0.92840  0.57880  1.0000 0.1390099506
H   H46       1.0  0.20710  0.57160  0.57880  1.0000 0.1390099506
H   H47       1.0  0.29290  0.07160  0.42120  1.0000 0.1390099506
H   H48       1.0  0.79290  0.42840  0.42120  1.0000 0.1390099506
C   C1        1.0  0.90550  0.20920  0.13840  1.0000 0.0837327222
C   C2        1.0  0.40550  0.29080  0.13840  1.0000 0.0837327222
C   C3        1.0  0.09450  0.79080  0.86160  1.0000 0.0837327222
C   C4        1.0  0.59450  0.70920  0.86160  1.0000 0.0837327222
C   C5        1.0  0.90790  0.21030  0.02110  1.0000 -0.2067114594
C   C6        1.0  0.40790  0.28970  0.02110  1.0000 -0.2067114594
C   C7        1.0  0.09210  0.78970  0.97890  1.0000 -0.2067114594
C   C8        1.0  0.59210  0.71030  0.97890  1.0000 -0.2067114594
C   C9        1.0  0.79960  0.17216  0.94570  1.0000 0.0991872107
C   C10       1.0  0.29960  0.32784  0.94570  1.0000 0.0991872107
C   C11       1.0  0.20040  0.82784  0.05430  1.0000 0.0991872107
C   C12       1.0  0.70040  0.67216  0.05430  1.0000 0.0991872107
C   C13       1.0  0.69230  0.13340  0.99510  1.0000 -0.2032456865
C   C14       1.0  0.19230  0.36660  0.99510  1.0000 -0.2032456865
C   C15       1.0  0.30770  0.86660  0.00490  1.0000 -0.2032456865
C   C16       1.0  0.80770  0.63340  0.00490  1.0000 -0.2032456865
C   C17       1.0  0.69770  0.13500  0.11330  1.0000 0.0661226975
C   C18       1.0  0.19770  0.36500  0.11330  1.0000 0.0661226975
C   C19       1.0  0.30230  0.86500  0.88670  1.0000 0.0661226975
C   C20       1.0  0.80230  0.63500  0.88670  1.0000 0.0661226975
C   C21       1.0  0.88660  0.21510  0.64770  1.0000 0.0888408701
C   C22       1.0  0.38660  0.28490  0.64770  1.0000 0.0888408701
C   C23       1.0  0.11340  0.78490  0.35230  1.0000 0.0888408701
C   C24       1.0  0.61340  0.71510  0.35230  1.0000 0.0888408701
C   C25       1.0  0.89140  0.21740  0.76580  1.0000 -0.2067114594
C   C26       1.0  0.39140  0.28260  0.76580  1.0000 -0.2067114594
C   C27       1.0  0.10860  0.78260  0.23420  1.0000 -0.2067114594
C   C28       1.0  0.60860  0.71740  0.23420  1.0000 -0.2067114594
C   C29       1.0  0.79710  0.17115  0.81810  1.0000 0.0991872107
C   C30       1.0  0.29710  0.32885  0.81810  1.0000 0.0991872107
C   C31       1.0  0.20290  0.82885  0.18190  1.0000 0.0991872107
C   C32       1.0  0.70290  0.67115  0.18190  1.0000 0.0991872107
C   C33       1.0  0.70150  0.12410  0.74460  1.0000 -0.1861313154
C   C34       1.0  0.20150  0.37590  0.74460  1.0000 -0.1861313154
C   C35       1.0  0.29850  0.87590  0.25540  1.0000 -0.1861313154
C   C36       1.0  0.79850  0.62410  0.25540  1.0000 -0.1861313154
C   C37       1.0  0.70350  0.12510  0.62650  1.0000 0.0991872107
C   C38       1.0  0.20350  0.37490  0.62650  1.0000 0.0991872107
C   C39       1.0  0.29650  0.87490  0.37350  1.0000 0.0991872107
C   C40       1.0  0.79650  0.62510  0.37350  1.0000 0.0991872107
C   C41       1.0  0.72120  0.99707  0.38270  1.0000 0.6073850523
C   C42       1.0  0.22120  0.50293  0.38270  1.0000 0.6073850523
C   C43       1.0  0.27880  0.00293  0.61730  1.0000 0.6073850523
C   C44       1.0  0.77880  0.49707  0.61730  1.0000 0.6073850523
C   C45       1.0  0.78590  0.92070  0.42390  1.0000 -0.2905286943
C   C46       1.0  0.28590  0.57930  0.42390  1.0000 -0.2905286943
C   C47       1.0  0.21410  0.07930  0.57610  1.0000 -0.2905286943
C   C48       1.0  0.71410  0.42070  0.57610  1.0000 -0.2905286943
C   C49       1.0  0.80110  0.91228  0.55400  1.0000 -0.3113873472
C   C50       1.0  0.30110  0.58772  0.55400  1.0000 -0.3113873472
C   C51       1.0  0.19890  0.08772  0.44600  1.0000 -0.3113873472
C   C52       1.0  0.69890  0.41228  0.44600  1.0000 -0.3113873472
C   C53       1.0  0.83360  0.83167  0.58900  1.0000 0.6285472045
C   C54       1.0  0.33360  0.66833  0.58900  1.0000 0.6285472045
C   C55       1.0  0.16640  0.16833  0.41100  1.0000 0.6285472045
C   C56       1.0  0.66640  0.33167  0.41100  1.0000 0.6285472045
N   N1        1.0  0.80170  0.17237  0.18590  1.0000 -0.2067114594
N   N2        1.0  0.30170  0.32763  0.18590  1.0000 -0.2067114594
N   N3        1.0  0.19830  0.82763  0.81410  1.0000 -0.2067114594
N   N4        1.0  0.69830  0.67237  0.81410  1.0000 -0.2067114594
N   N5        1.0  0.79480  0.16987  0.57780  1.0000 -0.2175120433
N   N6        1.0  0.29480  0.33013  0.57780  1.0000 -0.2175120433
N   N7        1.0  0.20520  0.83013  0.42220  1.0000 -0.2175120433
N   N8        1.0  0.70520  0.66987  0.42220  1.0000 -0.2175120433
O   O1        1.0  0.81620  0.04956  0.38580  1.0000 -0.580581816
O   O2        1.0  0.31620  0.45044  0.38580  1.0000 -0.580581816
O   O3        1.0  0.18380  0.95044  0.61420  1.0000 -0.580581816
O   O4        1.0  0.68380  0.54956  0.61420  1.0000 -0.580581816
O   O5        1.0  0.58170  0.00255  0.35090  1.0000 -0.5927135517
O   O6        1.0  0.08170  0.49745  0.35090  1.0000 -0.5927135517
O   O7        1.0  0.41830  0.99745  0.64910  1.0000 -0.5927135517
O   O8        1.0  0.91830  0.50255  0.64910  1.0000 -0.5927135517
O   O9        1.0  0.72570  0.79231  0.61210  1.0000 -0.571184503
O   O10       1.0  0.22570  0.70769  0.61210  1.0000 -0.571184503
O   O11       1.0  0.27430  0.20769  0.38790  1.0000 -0.571184503
O   O12       1.0  0.77430  0.29231  0.38790  1.0000 -0.571184503
O   O13       1.0  0.96540  0.80634  0.58800  1.0000 -0.571184503
O   O14       1.0  0.46540  0.69366  0.58800  1.0000 -0.571184503
O   O15       1.0  0.03460  0.19366  0.41200  1.0000 -0.571184503
O   O16       1.0  0.53460  0.30634  0.41200  1.0000 -0.571184503
