# DDEC6 charges by PACMAN v1.1 (https://github.com/mtap-research/PACMAN-charge/)
data_2004[Ho][pcu]3[ASR]1
_chemical_formula_sum              "Ho28 H176 C288 O132"
_cell_length_a       15.961
_cell_length_b       23.415
_cell_length_c       24.165
_cell_angle_alpha    90
_cell_angle_beta     91.832
_cell_angle_gamma    90

_symmetry_space_group_name_H-M    "P 1"
_symmetry_Int_Tables_number       1

loop_
  _symmetry_equiv_pos_as_xyz
  'x, y, z'

loop_
  _atom_site_type_symbol
  _atom_site_label
  _atom_site_symmetry_multiplicity
  _atom_site_fract_x
  _atom_site_fract_y
  _atom_site_fract_z
  _atom_site_occupancy
  _atom_site_charge
Ho  Ho1       1.0  0.24619  0.78832  0.98828  1.0000 2.219123666
Ho  Ho2       1.0  0.75381  0.21168  0.01172  1.0000 2.219123666
Ho  Ho3       1.0  0.25381  0.28832  0.51172  1.0000 2.219123666
Ho  Ho4       1.0  0.74619  0.71168  0.48828  1.0000 2.219123666
Ho  Ho5       1.0  0.16475  0.81375  0.12516  1.0000 2.15954635
Ho  Ho6       1.0  0.83525  0.18625  0.87484  1.0000 2.15954635
Ho  Ho7       1.0  0.33525  0.31375  0.37484  1.0000 2.15954635
Ho  Ho8       1.0  0.66475  0.68625  0.62516  1.0000 2.15954635
Ho  Ho9       1.0  0.02675  0.74564  0.01589  1.0000 2.1103909061
Ho  Ho10      1.0  0.97325  0.25436  0.98411  1.0000 2.1103909061
Ho  Ho11      1.0  0.47325  0.24564  0.48411  1.0000 2.1103909061
Ho  Ho12      1.0  0.52675  0.75436  0.51589  1.0000 2.1103909061
Ho  Ho13      1.0  0.19837  0.66474  0.08838  1.0000 2.0474005387
Ho  Ho14      1.0  0.80163  0.33526  0.91162  1.0000 2.0474005387
Ho  Ho15      1.0  0.30163  0.16474  0.41162  1.0000 2.0474005387
Ho  Ho16      1.0  0.69837  0.83526  0.58838  1.0000 2.0474005387
Ho  Ho17      1.0  0.32671  0.83084  0.85221  1.0000 2.15954635
Ho  Ho18      1.0  0.67329  0.16916  0.14779  1.0000 2.15954635
Ho  Ho19      1.0  0.17329  0.33084  0.64779  1.0000 2.15954635
Ho  Ho20      1.0  0.82671  0.66916  0.35221  1.0000 2.15954635
Ho  Ho21      1.0  0.29500  0.67700  0.87950  1.0000 2.1103909061
Ho  Ho22      1.0  0.70500  0.32300  0.12050  1.0000 2.1103909061
Ho  Ho23      1.0  0.20500  0.17700  0.62050  1.0000 2.1103909061
Ho  Ho24      1.0  0.79500  0.82300  0.37950  1.0000 2.1103909061
Ho  Ho25      1.0  0.46597  0.75740  0.95256  1.0000 2.1157414958
Ho  Ho26      1.0  0.53403  0.24260  0.04744  1.0000 2.1103909061
Ho  Ho27      1.0  0.03403  0.25740  0.54744  1.0000 2.1103909061
Ho  Ho28      1.0  0.96597  0.74260  0.45256  1.0000 2.1103909061
H   H1        1.0  0.11518  0.85426  0.02157  1.0000 0.4190879528
H   H2        1.0  0.88482  0.14574  0.97843  1.0000 0.4190879528
H   H3        1.0  0.38482  0.35426  0.47843  1.0000 0.4190879528
H   H4        1.0  0.61518  0.64574  0.52157  1.0000 0.4190879528
H   H5        1.0  0.15074  0.67967  0.97372  1.0000 0.4108447179
H   H6        1.0  0.84926  0.32033  0.02628  1.0000 0.4108447179
H   H7        1.0  0.34926  0.17967  0.52628  1.0000 0.4108447179
H   H8        1.0  0.65074  0.82033  0.47372  1.0000 0.4108447179
H   H9        1.0  0.31891  0.75885  0.09389  1.0000 0.4190879528
H   H10       1.0  0.68109  0.24115  0.90611  1.0000 0.4190879528
H   H11       1.0  0.18109  0.25885  0.40611  1.0000 0.4190879528
H   H12       1.0  0.81891  0.74115  0.59389  1.0000 0.4190879528
H   H13       1.0  0.05829  0.71349  0.13660  1.0000 0.4370945513
H   H14       1.0  0.94171  0.28651  0.86340  1.0000 0.4370945513
H   H15       1.0  0.44171  0.21349  0.36340  1.0000 0.4370945513
H   H16       1.0  0.55829  0.78651  0.63660  1.0000 0.4370945513
H   H17       1.0  0.17661  0.76968  0.87964  1.0000 0.4190879528
H   H18       1.0  0.82339  0.23032  0.12036  1.0000 0.4190879528
H   H19       1.0  0.32339  0.26968  0.62036  1.0000 0.4190879528
H   H20       1.0  0.67661  0.73032  0.37964  1.0000 0.4190879528
H   H21       1.0  0.37630  0.85958  0.95965  1.0000 0.4190879528
H   H22       1.0  0.62370  0.14042  0.04035  1.0000 0.4190879528
H   H23       1.0  0.12370  0.35958  0.54035  1.0000 0.4190879528
H   H24       1.0  0.87630  0.64042  0.45965  1.0000 0.4190879528
H   H25       1.0  0.34226  0.68145  0.99120  1.0000 0.4108447179
H   H26       1.0  0.65774  0.31855  0.00880  1.0000 0.4108447179
H   H27       1.0  0.15774  0.18145  0.50880  1.0000 0.4108447179
H   H28       1.0  0.84226  0.81855  0.49120  1.0000 0.4108447179
H   H29       1.0  0.44209  0.73710  0.83085  1.0000 0.4472160683
H   H30       1.0  0.55791  0.26290  0.16915  1.0000 0.4472160683
H   H31       1.0  0.05791  0.23710  0.66915  1.0000 0.4472160683
H   H32       1.0  0.94209  0.76290  0.33085  1.0000 0.4472160683
H   H33       1.0  0.95408  0.02117  0.92582  1.0000 0.1005397614
H   H34       1.0  0.04592  0.97883  0.07418  1.0000 0.1005397614
H   H35       1.0  0.54592  0.52117  0.57418  1.0000 0.1005397614
H   H36       1.0  0.45408  0.47883  0.42582  1.0000 0.1005397614
H   H37       1.0  0.03305  0.92884  0.92834  1.0000 0.1104931274
H   H38       1.0  0.96695  0.07116  0.07166  1.0000 0.1104931274
H   H39       1.0  0.46695  0.42884  0.57166  1.0000 0.1104931274
H   H40       1.0  0.53305  0.57116  0.42834  1.0000 0.1104931274
H   H41       1.0  0.16630  0.16643  0.91323  1.0000 0.1195647517
H   H42       1.0  0.83370  0.83357  0.08677  1.0000 0.1195647517
H   H43       1.0  0.33370  0.66643  0.58677  1.0000 0.1195647517
H   H44       1.0  0.66630  0.33357  0.41323  1.0000 0.1195647517
H   H45       1.0  0.32028  0.16607  0.90629  1.0000 0.0901041747
H   H46       1.0  0.67972  0.83393  0.09371  1.0000 0.0901041747
H   H47       1.0  0.17972  0.66607  0.59371  1.0000 0.0901041747
H   H48       1.0  0.82028  0.33393  0.40629  1.0000 0.0901041747
H   H49       1.0  0.39925  0.07395  0.90721  1.0000 0.0849078268
H   H50       1.0  0.60075  0.92605  0.09279  1.0000 0.0849078268
H   H51       1.0  0.10075  0.57395  0.59279  1.0000 0.0849078268
H   H52       1.0  0.89925  0.42605  0.40721  1.0000 0.0849078268
H   H53       1.0  0.32245  0.98147  0.91322  1.0000 0.1005397614
H   H54       1.0  0.67755  0.01853  0.08678  1.0000 0.1005397614
H   H55       1.0  0.17755  0.48147  0.58678  1.0000 0.1005397614
H   H56       1.0  0.82245  0.51853  0.41322  1.0000 0.1005397614
H   H57       1.0  0.32150  0.77735  0.38709  1.0000 0.1195647517
H   H58       1.0  0.67850  0.22265  0.61291  1.0000 0.1195647517
H   H59       1.0  0.17850  0.27735  0.11291  1.0000 0.1195647517
H   H60       1.0  0.82150  0.72265  0.88709  1.0000 0.1195647517
H   H61       1.0  0.24565  0.77982  0.29396  1.0000 0.1104931274
H   H62       1.0  0.75435  0.22018  0.70604  1.0000 0.1104931274
H   H63       1.0  0.25435  0.27982  0.20604  1.0000 0.1104931274
H   H64       1.0  0.74565  0.72018  0.79396  1.0000 0.1104931274
H   H65       1.0  0.40738  0.65847  0.17723  1.0000 0.1195647517
H   H66       1.0  0.59262  0.34153  0.82277  1.0000 0.1195647517
H   H67       1.0  0.09262  0.15847  0.32277  1.0000 0.1195647517
H   H68       1.0  0.90738  0.84153  0.67723  1.0000 0.1195647517
H   H69       1.0  0.54056  0.60397  0.18903  1.0000 0.0901041747
H   H70       1.0  0.45944  0.39603  0.81097  1.0000 0.0901041747
H   H71       1.0  0.95944  0.10397  0.31097  1.0000 0.0901041747
H   H72       1.0  0.04056  0.89603  0.68903  1.0000 0.0901041747
H   H73       1.0  0.61906  0.60415  0.28098  1.0000 0.1005397614
H   H74       1.0  0.38094  0.39585  0.71902  1.0000 0.1005397614
H   H75       1.0  0.88094  0.10415  0.21902  1.0000 0.1005397614
H   H76       1.0  0.11906  0.89585  0.78098  1.0000 0.1005397614
H   H77       1.0  0.56270  0.65916  0.35980  1.0000 0.1104931274
H   H78       1.0  0.43730  0.34084  0.64020  1.0000 0.1104931274
H   H79       1.0  0.93730  0.15916  0.14020  1.0000 0.1104931274
H   H80       1.0  0.06270  0.84084  0.85980  1.0000 0.1104931274
H   H81       1.0  0.74760  0.70475  0.17493  1.0000 0.1195647517
H   H82       1.0  0.25240  0.29525  0.82507  1.0000 0.1195647517
H   H83       1.0  0.75240  0.20475  0.32507  1.0000 0.1195647517
H   H84       1.0  0.24760  0.79525  0.67493  1.0000 0.1195647517
H   H85       1.0  0.67203  0.71178  0.08221  1.0000 0.1195647517
H   H86       1.0  0.32797  0.28822  0.91779  1.0000 0.1195647517
H   H87       1.0  0.82797  0.21178  0.41779  1.0000 0.1195647517
H   H88       1.0  0.17203  0.78822  0.58221  1.0000 0.1195647517
H   H89       1.0  0.42393  0.82135  0.11575  1.0000 0.1104931274
H   H90       1.0  0.57607  0.17865  0.88425  1.0000 0.1104931274
H   H91       1.0  0.07607  0.32135  0.38425  1.0000 0.1104931274
H   H92       1.0  0.92393  0.67865  0.61575  1.0000 0.1104931274
H   H93       1.0  0.36234  0.86697  0.19813  1.0000 0.1005397614
H   H94       1.0  0.63766  0.13303  0.80187  1.0000 0.1005397614
H   H95       1.0  0.13766  0.36697  0.30187  1.0000 0.1005397614
H   H96       1.0  0.86234  0.63303  0.69813  1.0000 0.1005397614
H   H97       1.0  0.43381  0.85547  0.29183  1.0000 0.1104931274
H   H98       1.0  0.56619  0.14453  0.70817  1.0000 0.1104931274
H   H99       1.0  0.06619  0.35547  0.20817  1.0000 0.1104931274
H   H100      1.0  0.93381  0.64453  0.79183  1.0000 0.1104931274
H   H101      1.0  0.56997  0.80545  0.30078  1.0000 0.1104931274
H   H102      1.0  0.43003  0.19455  0.69922  1.0000 0.1104931274
H   H103      1.0  0.93003  0.30545  0.19922  1.0000 0.1104931274
H   H104      1.0  0.06997  0.69455  0.80078  1.0000 0.1104931274
H   H105      1.0  0.88450  0.45679  0.03006  1.0000 0.1195647517
H   H106      1.0  0.11550  0.54321  0.96994  1.0000 0.1195647517
H   H107      1.0  0.61550  0.95679  0.46994  1.0000 0.1195647517
H   H108      1.0  0.38450  0.04321  0.53006  1.0000 0.1195647517
H   H109      1.0  0.98749  0.53757  0.02648  1.0000 0.1195647517
H   H110      1.0  0.01251  0.46243  0.97352  1.0000 0.1195647517
H   H111      1.0  0.51251  0.03757  0.47352  1.0000 0.1195647517
H   H112      1.0  0.48749  0.96243  0.52648  1.0000 0.1195647517
H   H113      1.0  0.08520  0.56507  0.21513  1.0000 0.1277696237
H   H114      1.0  0.91480  0.43493  0.78487  1.0000 0.1277696237
H   H115      1.0  0.41480  0.06507  0.28487  1.0000 0.1277696237
H   H116      1.0  0.58520  0.93493  0.71513  1.0000 0.1277696237
H   H117      1.0  0.05040  0.52247  0.30549  1.0000 0.0901041747
H   H118      1.0  0.94960  0.47753  0.69451  1.0000 0.0901041747
H   H119      1.0  0.44960  0.02247  0.19451  1.0000 0.0901041747
H   H120      1.0  0.55040  0.97753  0.80549  1.0000 0.0901041747
H   H121      1.0  0.93424  0.44978  0.31058  1.0000 0.0901041747
H   H122      1.0  0.06576  0.55022  0.68942  1.0000 0.0901041747
H   H123      1.0  0.56576  0.94978  0.18942  1.0000 0.0901041747
H   H124      1.0  0.43424  0.05022  0.81058  1.0000 0.0901041747
H   H125      1.0  0.85887  0.41871  0.22495  1.0000 0.1195647517
H   H126      1.0  0.14113  0.58129  0.77505  1.0000 0.1195647517
H   H127      1.0  0.64113  0.91871  0.27505  1.0000 0.1195647517
H   H128      1.0  0.35887  0.08129  0.72495  1.0000 0.1195647517
H   H129      1.0  0.54556  0.00749  0.09772  1.0000 0.1005397614
H   H130      1.0  0.45444  0.99251  0.90228  1.0000 0.1005397614
H   H131      1.0  0.95444  0.50749  0.40228  1.0000 0.1005397614
H   H132      1.0  0.04556  0.49251  0.59772  1.0000 0.1005397614
H   H133      1.0  0.46673  0.91558  0.08456  1.0000 0.1104931274
H   H134      1.0  0.53327  0.08442  0.91544  1.0000 0.1104931274
H   H135      1.0  0.03327  0.41558  0.41544  1.0000 0.1104931274
H   H136      1.0  0.96673  0.58442  0.58456  1.0000 0.1104931274
H   H137      1.0  0.33353  0.15466  0.08118  1.0000 0.1195647517
H   H138      1.0  0.66647  0.84534  0.91882  1.0000 0.1195647517
H   H139      1.0  0.16647  0.65466  0.41882  1.0000 0.1195647517
H   H140      1.0  0.83353  0.34534  0.58118  1.0000 0.1195647517
H   H141      1.0  0.17988  0.15483  0.06594  1.0000 0.1104931274
H   H142      1.0  0.82012  0.84517  0.93406  1.0000 0.1104931274
H   H143      1.0  0.32012  0.65483  0.43406  1.0000 0.1104931274
H   H144      1.0  0.67988  0.34517  0.56594  1.0000 0.1104931274
H   H145      1.0  0.10173  0.06256  0.05433  1.0000 0.0901041747
H   H146      1.0  0.89827  0.93744  0.94567  1.0000 0.0901041747
H   H147      1.0  0.39827  0.56256  0.44567  1.0000 0.0901041747
H   H148      1.0  0.60173  0.43744  0.55433  1.0000 0.0901041747
H   H149      1.0  0.17926  0.97023  0.05937  1.0000 0.1005397614
H   H150      1.0  0.82074  0.02977  0.94063  1.0000 0.1005397614
H   H151      1.0  0.32074  0.47023  0.44063  1.0000 0.1005397614
H   H152      1.0  0.67926  0.52977  0.55937  1.0000 0.1005397614
H   H153      1.0  0.53392  0.46839  0.13675  1.0000 0.1104931274
H   H154      1.0  0.46608  0.53161  0.86325  1.0000 0.1104931274
H   H155      1.0  0.96608  0.96839  0.36325  1.0000 0.1104931274
H   H156      1.0  0.03392  0.03161  0.63675  1.0000 0.1104931274
H   H157      1.0  0.43729  0.55316  0.13943  1.0000 0.1104931274
H   H158      1.0  0.56271  0.44684  0.86057  1.0000 0.1104931274
H   H159      1.0  0.06271  0.05316  0.36057  1.0000 0.1104931274
H   H160      1.0  0.93729  0.94684  0.63943  1.0000 0.1104931274
H   H161      1.0  0.27000  0.54300  0.97246  1.0000 0.1005397614
H   H162      1.0  0.73000  0.45700  0.02754  1.0000 0.1005397614
H   H163      1.0  0.23000  0.04300  0.52754  1.0000 0.1005397614
H   H164      1.0  0.77000  0.95700  0.47246  1.0000 0.1005397614
H   H165      1.0  0.25987  0.47759  0.89091  1.0000 0.1005397614
H   H166      1.0  0.74013  0.52241  0.10909  1.0000 0.1005397614
H   H167      1.0  0.24013  0.97759  0.60909  1.0000 0.1005397614
H   H168      1.0  0.75987  0.02241  0.39091  1.0000 0.1005397614
H   H169      1.0  0.35294  0.39115  0.88825  1.0000 0.0901041747
H   H170      1.0  0.64706  0.60885  0.11175  1.0000 0.0901041747
H   H171      1.0  0.14706  0.89115  0.61175  1.0000 0.0901041747
H   H172      1.0  0.85294  0.10885  0.38825  1.0000 0.0901041747
H   H173      1.0  0.45089  0.36952  0.96693  1.0000 0.1104931274
H   H174      1.0  0.54911  0.63048  0.03307  1.0000 0.1104931274
H   H175      1.0  0.04911  0.86952  0.53307  1.0000 0.1104931274
H   H176      1.0  0.95089  0.13048  0.46693  1.0000 0.1104931274
C   C1        1.0  0.01552  0.12908  0.91268  1.0000 0.6612330455
C   C2        1.0  0.98448  0.87092  0.08732  1.0000 0.6612330455
C   C3        1.0  0.48448  0.62908  0.58732  1.0000 0.6612330455
C   C4        1.0  0.51552  0.37092  0.41268  1.0000 0.6612330455
C   C5        1.0  0.06443  0.07378  0.91793  1.0000 -0.06097012
C   C6        1.0  0.93557  0.92622  0.08207  1.0000 -0.06097012
C   C7        1.0  0.43557  0.57378  0.58207  1.0000 -0.06097012
C   C8        1.0  0.56443  0.42622  0.41793  1.0000 -0.06097012
C   C9        1.0  0.02254  0.02209  0.92360  1.0000 -0.0981493218
C   C10       1.0  0.97746  0.97791  0.07640  1.0000 -0.0981493218
C   C11       1.0  0.47746  0.52209  0.57640  1.0000 -0.0981493218
C   C12       1.0  0.52254  0.47791  0.42360  1.0000 -0.0981493218
C   C13       1.0  0.06697  0.96961  0.92519  1.0000 -0.0906373258
C   C14       1.0  0.93303  0.03039  0.07481  1.0000 -0.0906373258
C   C15       1.0  0.43303  0.46961  0.57481  1.0000 -0.0906373258
C   C16       1.0  0.56697  0.53039  0.42519  1.0000 -0.0906373258
C   C17       1.0  0.15325  0.96839  0.91908  1.0000 -0.078872515
C   C18       1.0  0.84675  0.03161  0.08092  1.0000 -0.078872515
C   C19       1.0  0.34675  0.46839  0.58092  1.0000 -0.078872515
C   C20       1.0  0.65325  0.53161  0.41908  1.0000 -0.078872515
C   C21       1.0  0.19931  0.02070  0.91531  1.0000 0.0596773688
C   C22       1.0  0.80069  0.97930  0.08469  1.0000 0.0596773688
C   C23       1.0  0.30069  0.52070  0.58469  1.0000 0.0596773688
C   C24       1.0  0.69931  0.47930  0.41531  1.0000 0.0596773688
C   C25       1.0  0.15420  0.07428  0.91566  1.0000 0.0482825964
C   C26       1.0  0.84580  0.92572  0.08434  1.0000 0.0482825964
C   C27       1.0  0.34580  0.57428  0.58434  1.0000 0.0482825964
C   C28       1.0  0.65420  0.42572  0.41566  1.0000 0.0482825964
C   C29       1.0  0.20028  0.12600  0.91205  1.0000 -0.1167797494
C   C30       1.0  0.79972  0.87400  0.08795  1.0000 -0.1167797494
C   C31       1.0  0.29972  0.62600  0.58795  1.0000 -0.1167797494
C   C32       1.0  0.70028  0.37400  0.41205  1.0000 -0.1167797494
C   C33       1.0  0.28635  0.12562  0.90884  1.0000 -0.0682543922
C   C34       1.0  0.71365  0.87438  0.09116  1.0000 -0.0682543922
C   C35       1.0  0.21365  0.62562  0.59116  1.0000 -0.0682543922
C   C36       1.0  0.78635  0.37438  0.40884  1.0000 -0.0682543922
C   C37       1.0  0.33076  0.07318  0.90957  1.0000 -0.078872515
C   C38       1.0  0.66924  0.92682  0.09043  1.0000 -0.078872515
C   C39       1.0  0.16924  0.57318  0.59043  1.0000 -0.078872515
C   C40       1.0  0.83076  0.42682  0.40957  1.0000 -0.078872515
C   C41       1.0  0.28822  0.02197  0.91292  1.0000 -0.1288002697
C   C42       1.0  0.71178  0.97803  0.08708  1.0000 -0.1288002697
C   C43       1.0  0.21178  0.52197  0.58708  1.0000 -0.1288002697
C   C44       1.0  0.78822  0.47803  0.41292  1.0000 -0.1288002697
C   C45       1.0  0.19547  0.91133  0.91513  1.0000 0.6612330455
C   C46       1.0  0.80453  0.08867  0.08487  1.0000 0.6677204614
C   C47       1.0  0.30453  0.41133  0.58487  1.0000 0.6612330455
C   C48       1.0  0.69547  0.58867  0.41513  1.0000 0.6677204614
C   C49       1.0  0.45900  0.72474  0.41601  1.0000 0.558975105
C   C50       1.0  0.54100  0.27526  0.58399  1.0000 0.558975105
C   C51       1.0  0.04100  0.22474  0.08399  1.0000 0.558975105
C   C52       1.0  0.95900  0.77526  0.91601  1.0000 0.558975105
C   C53       1.0  0.41888  0.72144  0.35946  1.0000 -0.0501335777
C   C54       1.0  0.58112  0.27856  0.64054  1.0000 -0.0501335777
C   C55       1.0  0.08112  0.22144  0.14054  1.0000 -0.0501335777
C   C56       1.0  0.91888  0.77856  0.85946  1.0000 -0.0501335777
C   C57       1.0  0.34496  0.75269  0.35209  1.0000 -0.0906373258
C   C58       1.0  0.65504  0.24731  0.64791  1.0000 -0.0906373258
C   C59       1.0  0.15504  0.25269  0.14791  1.0000 -0.0906373258
C   C60       1.0  0.84496  0.74731  0.85209  1.0000 -0.0906373258
C   C61       1.0  0.30212  0.75353  0.30042  1.0000 -0.0981493218
C   C62       1.0  0.69788  0.24647  0.69958  1.0000 -0.0981493218
C   C63       1.0  0.19788  0.25353  0.19958  1.0000 -0.0981493218
C   C64       1.0  0.80212  0.74647  0.80042  1.0000 -0.0981493218
C   C65       1.0  0.32966  0.72143  0.25596  1.0000 -0.078872515
C   C66       1.0  0.67034  0.27857  0.74404  1.0000 -0.078872515
C   C67       1.0  0.17034  0.22143  0.24404  1.0000 -0.078872515
C   C68       1.0  0.82966  0.77857  0.75596  1.0000 -0.078872515
C   C69       1.0  0.40623  0.68889  0.26159  1.0000 0.0716133628
C   C70       1.0  0.59377  0.31111  0.73841  1.0000 0.0716133628
C   C71       1.0  0.09377  0.18889  0.23841  1.0000 0.0716133628
C   C72       1.0  0.90623  0.81111  0.76159  1.0000 0.0716133628
C   C73       1.0  0.44096  0.65801  0.21717  1.0000 -0.1288002697
C   C74       1.0  0.55904  0.34199  0.78283  1.0000 -0.1288002697
C   C75       1.0  0.05904  0.15801  0.28283  1.0000 -0.1288002697
C   C76       1.0  0.94096  0.84199  0.71717  1.0000 -0.1288002697
C   C77       1.0  0.51532  0.62781  0.22405  1.0000 -0.0906373258
C   C78       1.0  0.48468  0.37219  0.77595  1.0000 -0.0906373258
C   C79       1.0  0.98468  0.12781  0.27595  1.0000 -0.0906373258
C   C80       1.0  0.01532  0.87219  0.72405  1.0000 -0.0906373258
C   C81       1.0  0.55952  0.62768  0.27594  1.0000 -0.078872515
C   C82       1.0  0.44048  0.37232  0.72406  1.0000 -0.078872515
C   C83       1.0  0.94048  0.12768  0.22406  1.0000 -0.078872515
C   C84       1.0  0.05952  0.87232  0.77594  1.0000 -0.078872515
C   C85       1.0  0.52853  0.65810  0.31998  1.0000 -0.1404125347
C   C86       1.0  0.47147  0.34190  0.68002  1.0000 -0.1404125347
C   C87       1.0  0.97147  0.15810  0.18002  1.0000 -0.1404125347
C   C88       1.0  0.02853  0.84190  0.81998  1.0000 -0.1404125347
C   C89       1.0  0.45226  0.68952  0.31445  1.0000 0.0596773688
C   C90       1.0  0.54774  0.31048  0.68555  1.0000 0.0596773688
C   C91       1.0  0.04774  0.18952  0.18555  1.0000 0.0596773688
C   C92       1.0  0.95226  0.81048  0.81445  1.0000 0.0596773688
C   C93       1.0  0.27413  0.72359  0.20482  1.0000 0.6542474077
C   C94       1.0  0.72587  0.27641  0.79518  1.0000 0.6542474077
C   C95       1.0  0.22587  0.22359  0.29518  1.0000 0.6542474077
C   C96       1.0  0.77413  0.77641  0.70482  1.0000 0.6542474077
C   C97       1.0  0.71483  0.75409  0.26778  1.0000 0.6612330455
C   C98       1.0  0.28517  0.24591  0.73222  1.0000 0.6612330455
C   C99       1.0  0.78517  0.25409  0.23222  1.0000 0.6612330455
C   C100      1.0  0.21483  0.74591  0.76778  1.0000 0.6612330455
C   C101      1.0  0.65701  0.75516  0.21733  1.0000 -0.06097012
C   C102      1.0  0.34299  0.24484  0.78267  1.0000 -0.06097012
C   C103      1.0  0.84299  0.25516  0.28267  1.0000 -0.06097012
C   C104      1.0  0.15701  0.74484  0.71733  1.0000 -0.06097012
C   C105      1.0  0.68790  0.72785  0.17101  1.0000 -0.0981493218
C   C106      1.0  0.31210  0.27215  0.82899  1.0000 -0.0981493218
C   C107      1.0  0.81210  0.22785  0.32899  1.0000 -0.0981493218
C   C108      1.0  0.18790  0.77215  0.67101  1.0000 -0.0981493218
C   C109      1.0  0.64534  0.73129  0.11913  1.0000 -0.0906373258
C   C110      1.0  0.35466  0.26871  0.88087  1.0000 -0.0906373258
C   C111      1.0  0.85466  0.23129  0.38087  1.0000 -0.0906373258
C   C112      1.0  0.14534  0.76871  0.61913  1.0000 -0.0906373258
C   C113      1.0  0.56985  0.76092  0.11331  1.0000 -0.06097012
C   C114      1.0  0.43015  0.23908  0.88669  1.0000 -0.06097012
C   C115      1.0  0.93015  0.26092  0.38669  1.0000 -0.06097012
C   C116      1.0  0.06985  0.73908  0.61331  1.0000 -0.06097012
C   C117      1.0  0.53322  0.78776  0.16021  1.0000 0.0596773688
C   C118      1.0  0.46678  0.21224  0.83979  1.0000 0.0596773688
C   C119      1.0  0.96678  0.28776  0.33979  1.0000 0.0596773688
C   C120      1.0  0.03322  0.71224  0.66021  1.0000 0.0596773688
C   C121      1.0  0.45613  0.81848  0.15622  1.0000 -0.1572415188
C   C122      1.0  0.54387  0.18152  0.84378  1.0000 -0.1572415188
C   C123      1.0  0.04387  0.31848  0.34378  1.0000 -0.1572415188
C   C124      1.0  0.95613  0.68152  0.65622  1.0000 -0.1572415188
C   C125      1.0  0.42189  0.84317  0.20236  1.0000 -0.0682543922
C   C126      1.0  0.57811  0.15683  0.79764  1.0000 -0.0682543922
C   C127      1.0  0.07811  0.34317  0.29764  1.0000 -0.0682543922
C   C128      1.0  0.92189  0.65683  0.70236  1.0000 -0.0682543922
C   C129      1.0  0.46280  0.83755  0.25497  1.0000 -0.06097012
C   C130      1.0  0.53720  0.16245  0.74503  1.0000 -0.06097012
C   C131      1.0  0.03720  0.33755  0.24503  1.0000 -0.06097012
C   C132      1.0  0.96280  0.66245  0.75497  1.0000 -0.06097012
C   C133      1.0  0.53902  0.80922  0.26016  1.0000 -0.1167797494
C   C134      1.0  0.46098  0.19078  0.73984  1.0000 -0.1167797494
C   C135      1.0  0.96098  0.30922  0.23984  1.0000 -0.1167797494
C   C136      1.0  0.03902  0.69078  0.76016  1.0000 -0.1167797494
C   C137      1.0  0.57777  0.78468  0.21359  1.0000 0.0596773688
C   C138      1.0  0.42223  0.21532  0.78641  1.0000 0.0596773688
C   C139      1.0  0.92223  0.28468  0.28641  1.0000 0.0596773688
C   C140      1.0  0.07777  0.71532  0.71359  1.0000 0.0596773688
C   C141      1.0  0.53294  0.76334  0.05581  1.0000 0.5791006829
C   C142      1.0  0.46706  0.23666  0.94419  1.0000 0.5791006829
C   C143      1.0  0.96706  0.26334  0.44419  1.0000 0.5791006829
C   C144      1.0  0.03294  0.73666  0.55581  1.0000 0.5791006829
C   C145      1.0  0.82087  0.40821  0.12036  1.0000 0.5791006829
C   C146      1.0  0.17913  0.59179  0.87964  1.0000 0.5791006829
C   C147      1.0  0.67913  0.90821  0.37964  1.0000 0.5791006829
C   C148      1.0  0.32087  0.09179  0.62036  1.0000 0.5791006829
C   C149      1.0  0.88942  0.45193  0.11973  1.0000 -0.06097012
C   C150      1.0  0.11058  0.54807  0.88027  1.0000 -0.06097012
C   C151      1.0  0.61058  0.95193  0.38027  1.0000 -0.06097012
C   C152      1.0  0.38942  0.04807  0.61973  1.0000 -0.06097012
C   C153      1.0  0.91332  0.47344  0.06873  1.0000 -0.0906373258
C   C154      1.0  0.08668  0.52656  0.93127  1.0000 -0.0906373258
C   C155      1.0  0.58668  0.97344  0.43127  1.0000 -0.0906373258
C   C156      1.0  0.41332  0.02656  0.56873  1.0000 -0.0906373258
C   C157      1.0  0.97268  0.51812  0.06641  1.0000 -0.078872515
C   C158      1.0  0.02732  0.48188  0.93359  1.0000 -0.078872515
C   C159      1.0  0.52732  0.01812  0.43359  1.0000 -0.078872515
C   C160      1.0  0.47268  0.98188  0.56641  1.0000 -0.078872515
C   C161      1.0  0.01313  0.53954  0.11408  1.0000 -0.06097012
C   C162      1.0  0.98687  0.46046  0.88592  1.0000 -0.06097012
C   C163      1.0  0.48687  0.03954  0.38592  1.0000 -0.06097012
C   C164      1.0  0.51313  0.96046  0.61408  1.0000 -0.06097012
C   C165      1.0  0.99391  0.51601  0.16733  1.0000 0.0596773688
C   C166      1.0  0.00609  0.48399  0.83267  1.0000 0.0596773688
C   C167      1.0  0.50609  0.01601  0.33267  1.0000 0.0596773688
C   C168      1.0  0.49391  0.98399  0.66733  1.0000 0.0596773688
C   C169      1.0  0.03620  0.53292  0.21721  1.0000 -0.1288002697
C   C170      1.0  0.96380  0.46708  0.78279  1.0000 -0.1288002697
C   C171      1.0  0.46380  0.03292  0.28279  1.0000 -0.1288002697
C   C172      1.0  0.53620  0.96708  0.71721  1.0000 -0.1288002697
C   C173      1.0  0.01562  0.50931  0.26769  1.0000 -0.078872515
C   C174      1.0  0.98438  0.49069  0.73231  1.0000 -0.078872515
C   C175      1.0  0.48438  0.00931  0.23231  1.0000 -0.078872515
C   C176      1.0  0.51562  0.99069  0.76769  1.0000 -0.078872515
C   C177      1.0  0.95060  0.46836  0.27059  1.0000 -0.078872515
C   C178      1.0  0.04940  0.53164  0.72941  1.0000 -0.0682543922
C   C179      1.0  0.54940  0.96836  0.22941  1.0000 -0.078872515
C   C180      1.0  0.45060  0.03164  0.77059  1.0000 -0.078872515
C   C181      1.0  0.90833  0.45044  0.22266  1.0000 -0.1288002697
C   C182      1.0  0.09167  0.54956  0.77734  1.0000 -0.1288002697
C   C183      1.0  0.59167  0.95044  0.27734  1.0000 -0.1288002697
C   C184      1.0  0.40833  0.04956  0.72266  1.0000 -0.1288002697
C   C185      1.0  0.92894  0.47260  0.17017  1.0000 0.0596773688
C   C186      1.0  0.07106  0.52740  0.82983  1.0000 0.0596773688
C   C187      1.0  0.57106  0.97260  0.32983  1.0000 0.0596773688
C   C188      1.0  0.42894  0.02740  0.67017  1.0000 0.0596773688
C   C189      1.0  0.07492  0.58680  0.10612  1.0000 0.5791006829
C   C190      1.0  0.92508  0.41320  0.89388  1.0000 0.5791006829
C   C191      1.0  0.42508  0.08680  0.39388  1.0000 0.5791006829
C   C192      1.0  0.57492  0.91320  0.60612  1.0000 0.5791006829
C   C193      1.0  0.48928  0.11407  0.10066  1.0000 0.6612330455
C   C194      1.0  0.51072  0.88593  0.89934  1.0000 0.6612330455
C   C195      1.0  0.01072  0.61407  0.39934  1.0000 0.6612330455
C   C196      1.0  0.98928  0.38593  0.60066  1.0000 0.6612330455
C   C197      1.0  0.43670  0.06126  0.08960  1.0000 -0.078872515
C   C198      1.0  0.56330  0.93874  0.91040  1.0000 -0.078872515
C   C199      1.0  0.06330  0.56126  0.41040  1.0000 -0.078872515
C   C200      1.0  0.93670  0.43874  0.58960  1.0000 -0.078872515
C   C201      1.0  0.47756  0.00866  0.09024  1.0000 -0.0981493218
C   C202      1.0  0.52244  0.99134  0.90976  1.0000 -0.0981493218
C   C203      1.0  0.02244  0.50866  0.40976  1.0000 -0.0981493218
C   C204      1.0  0.97756  0.49134  0.59024  1.0000 -0.0981493218
C   C205      1.0  0.43333  0.95669  0.08294  1.0000 -0.0981493218
C   C206      1.0  0.56667  0.04331  0.91706  1.0000 -0.0981493218
C   C207      1.0  0.06667  0.45669  0.41706  1.0000 -0.0981493218
C   C208      1.0  0.93333  0.54331  0.58294  1.0000 -0.0981493218
C   C209      1.0  0.34661  0.95685  0.07661  1.0000 -0.0682543922
C   C210      1.0  0.65339  0.04315  0.92339  1.0000 -0.0682543922
C   C211      1.0  0.15339  0.45685  0.42339  1.0000 -0.0682543922
C   C212      1.0  0.84661  0.54315  0.57661  1.0000 -0.0682543922
C   C213      1.0  0.30138  0.00950  0.07414  1.0000 0.0482825964
C   C214      1.0  0.69862  0.99050  0.92586  1.0000 0.0482825964
C   C215      1.0  0.19862  0.50950  0.42586  1.0000 0.0482825964
C   C216      1.0  0.80138  0.49050  0.57414  1.0000 0.0482825964
C   C217      1.0  0.34689  0.06285  0.07995  1.0000 0.0596773688
C   C218      1.0  0.65311  0.93715  0.92005  1.0000 0.0596773688
C   C219      1.0  0.15311  0.56285  0.42005  1.0000 0.0596773688
C   C220      1.0  0.84689  0.43715  0.57995  1.0000 0.0596773688
C   C221      1.0  0.29982  0.11430  0.07733  1.0000 -0.1167797494
C   C222      1.0  0.70018  0.88570  0.92267  1.0000 -0.1167797494
C   C223      1.0  0.20018  0.61430  0.42267  1.0000 -0.1167797494
C   C224      1.0  0.79982  0.38570  0.57733  1.0000 -0.1167797494
C   C225      1.0  0.21379  0.11414  0.06867  1.0000 -0.0682543922
C   C226      1.0  0.78621  0.88586  0.93133  1.0000 -0.0682543922
C   C227      1.0  0.28621  0.61414  0.43133  1.0000 -0.0682543922
C   C228      1.0  0.71379  0.38586  0.56867  1.0000 -0.0682543922
C   C229      1.0  0.16985  0.06183  0.06204  1.0000 -0.078872515
C   C230      1.0  0.83015  0.93817  0.93796  1.0000 -0.078872515
C   C231      1.0  0.33015  0.56183  0.43796  1.0000 -0.078872515
C   C232      1.0  0.66985  0.43817  0.56204  1.0000 -0.078872515
C   C233      1.0  0.21292  0.01072  0.06476  1.0000 -0.1288002697
C   C234      1.0  0.78708  0.98928  0.93524  1.0000 -0.1288002697
C   C235      1.0  0.28708  0.51072  0.43524  1.0000 -0.1288002697
C   C236      1.0  0.71292  0.48928  0.56476  1.0000 -0.1288002697
C   C237      1.0  0.30072  0.90084  0.07352  1.0000 0.6612330455
C   C238      1.0  0.69928  0.09916  0.92648  1.0000 0.6612330455
C   C239      1.0  0.19928  0.40084  0.42648  1.0000 0.6612330455
C   C240      1.0  0.80072  0.59916  0.57352  1.0000 0.6612330455
C   C241      1.0  0.52807  0.38132  0.06987  1.0000 0.6677204614
C   C242      1.0  0.47193  0.61868  0.93013  1.0000 0.6677204614
C   C243      1.0  0.97193  0.88132  0.43013  1.0000 0.6677204614
C   C244      1.0  0.02807  0.11868  0.56987  1.0000 0.6677204614
C   C245      1.0  0.47924  0.43506  0.06079  1.0000 -0.0906373258
C   C246      1.0  0.52076  0.56494  0.93921  1.0000 -0.0906373258
C   C247      1.0  0.02076  0.93506  0.43921  1.0000 -0.0906373258
C   C248      1.0  0.97924  0.06494  0.56079  1.0000 -0.0906373258
C   C249      1.0  0.48736  0.47562  0.10295  1.0000 -0.078872515
C   C250      1.0  0.51264  0.52438  0.89705  1.0000 -0.078872515
C   C251      1.0  0.01264  0.97562  0.39705  1.0000 -0.078872515
C   C252      1.0  0.98736  0.02438  0.60295  1.0000 -0.078872515
C   C253      1.0  0.43443  0.52370  0.10399  1.0000 -0.0981493218
C   C254      1.0  0.56557  0.47630  0.89601  1.0000 -0.0981493218
C   C255      1.0  0.06557  0.02370  0.39601  1.0000 -0.0981493218
C   C256      1.0  0.93443  0.97630  0.60399  1.0000 -0.0981493218
C   C257      1.0  0.37587  0.53332  0.06118  1.0000 -0.0501335777
C   C258      1.0  0.62413  0.46668  0.93882  1.0000 -0.0501335777
C   C259      1.0  0.12413  0.03332  0.43882  1.0000 -0.0501335777
C   C260      1.0  0.87587  0.96668  0.56118  1.0000 -0.0501335777
C   C261      1.0  0.36845  0.49497  0.01516  1.0000 0.0482825964
C   C262      1.0  0.63155  0.50503  0.98484  1.0000 0.0482825964
C   C263      1.0  0.13155  0.99497  0.48484  1.0000 0.0482825964
C   C264      1.0  0.86845  0.00503  0.51516  1.0000 0.0482825964
C   C265      1.0  0.30970  0.50506  0.97074  1.0000 -0.1110765367
C   C266      1.0  0.69030  0.49494  0.02926  1.0000 -0.1110765367
C   C267      1.0  0.19030  0.00506  0.52926  1.0000 -0.1110765367
C   C268      1.0  0.80970  0.99494  0.47074  1.0000 -0.1110765367
C   C269      1.0  0.30399  0.46847  0.92569  1.0000 -0.0682543922
C   C270      1.0  0.69601  0.53153  0.07431  1.0000 -0.0682543922
C   C271      1.0  0.19601  0.96847  0.57431  1.0000 -0.0682543922
C   C272      1.0  0.80399  0.03153  0.42569  1.0000 -0.0682543922
C   C273      1.0  0.35642  0.41964  0.92446  1.0000 -0.078872515
C   C274      1.0  0.64358  0.58036  0.07554  1.0000 -0.078872515
C   C275      1.0  0.14358  0.91964  0.57554  1.0000 -0.078872515
C   C276      1.0  0.85642  0.08036  0.42446  1.0000 -0.078872515
C   C277      1.0  0.41215  0.40757  0.96803  1.0000 -0.1288002697
C   C278      1.0  0.58785  0.59243  0.03197  1.0000 -0.1288002697
C   C279      1.0  0.08785  0.90757  0.53197  1.0000 -0.1288002697
C   C280      1.0  0.91215  0.09243  0.46803  1.0000 -0.1288002697
C   C281      1.0  0.42044  0.44420  0.01483  1.0000 0.0716133628
C   C282      1.0  0.57956  0.55580  0.98517  1.0000 0.0716133628
C   C283      1.0  0.07956  0.94420  0.48517  1.0000 0.0716133628
C   C284      1.0  0.92044  0.05580  0.51483  1.0000 0.0716133628
C   C285      1.0  0.31585  0.58197  0.06893  1.0000 0.586243783
C   C286      1.0  0.68415  0.41803  0.93107  1.0000 0.586243783
C   C287      1.0  0.18415  0.08197  0.43107  1.0000 0.586243783
C   C288      1.0  0.81585  0.91803  0.56893  1.0000 0.586243783
O   O1        1.0  0.13318  0.81695  0.03496  1.0000 -1.1697124913
O   O2        1.0  0.86682  0.18305  0.96504  1.0000 -1.1697124913
O   O3        1.0  0.36682  0.31695  0.46504  1.0000 -1.1697124913
O   O4        1.0  0.63318  0.68305  0.53496  1.0000 -1.1697124913
O   O5        1.0  0.16016  0.70944  0.00212  1.0000 -1.1047663246
O   O6        1.0  0.83984  0.29056  0.99788  1.0000 -1.1047663246
O   O7        1.0  0.33984  0.20944  0.49788  1.0000 -1.1096209243
O   O8        1.0  0.66016  0.79056  0.50212  1.0000 -1.1047663246
O   O9        1.0  0.26113  0.75754  0.07956  1.0000 -1.1435290927
O   O10       1.0  0.73887  0.24246  0.92044  1.0000 -1.1435290927
O   O11       1.0  0.23887  0.25754  0.42044  1.0000 -1.1479857638
O   O12       1.0  0.76113  0.74246  0.57956  1.0000 -1.1435290927
O   O13       1.0  0.08878  0.73140  0.10702  1.0000 -1.1979517295
O   O14       1.0  0.91122  0.26860  0.89298  1.0000 -1.1979517295
O   O15       1.0  0.41122  0.23140  0.39298  1.0000 -1.1979517295
O   O16       1.0  0.58878  0.76860  0.60702  1.0000 -1.1979517295
O   O17       1.0  0.23464  0.76800  0.89349  1.0000 -1.1479857638
O   O18       1.0  0.76536  0.23200  0.10651  1.0000 -1.1479857638
O   O19       1.0  0.26536  0.26800  0.60651  1.0000 -1.1479857638
O   O20       1.0  0.73464  0.73200  0.39349  1.0000 -1.1479857638
O   O21       1.0  0.36013  0.82332  0.94261  1.0000 -1.1767779147
O   O22       1.0  0.63987  0.17668  0.05739  1.0000 -1.1767779147
O   O23       1.0  0.13987  0.32332  0.55739  1.0000 -1.1697124913
O   O24       1.0  0.86013  0.67668  0.44261  1.0000 -1.1767779147
O   O25       1.0  0.33767  0.71338  0.96437  1.0000 -1.1285906389
O   O26       1.0  0.66233  0.28662  0.03563  1.0000 -1.1285906389
O   O27       1.0  0.16233  0.21338  0.53563  1.0000 -1.1285906389
O   O28       1.0  0.83767  0.78662  0.46437  1.0000 -1.1285906389
O   O29       1.0  0.40404  0.74726  0.85984  1.0000 -1.2446123317
O   O30       1.0  0.59596  0.25274  0.14016  1.0000 -1.2484589373
O   O31       1.0  0.09596  0.24726  0.64016  1.0000 -1.2484589373
O   O32       1.0  0.90404  0.75274  0.35984  1.0000 -1.2484589373
O   O33       1.0  0.95257  0.13073  0.87713  1.0000 -0.7082378372
O   O34       1.0  0.04743  0.86927  0.12287  1.0000 -0.7082378372
O   O35       1.0  0.54743  0.63073  0.62287  1.0000 -0.7082378372
O   O36       1.0  0.45257  0.36927  0.37713  1.0000 -0.7082378372
O   O37       1.0  0.03772  0.17131  0.94277  1.0000 -0.640445216
O   O38       1.0  0.96228  0.82869  0.05723  1.0000 -0.640445216
O   O39       1.0  0.46228  0.67131  0.55723  1.0000 -0.640445216
O   O40       1.0  0.53772  0.32869  0.44277  1.0000 -0.640445216
O   O41       1.0  0.18188  0.87418  0.95195  1.0000 -0.6478717208
O   O42       1.0  0.81812  0.12582  0.04805  1.0000 -0.6478717208
O   O43       1.0  0.31812  0.37418  0.54805  1.0000 -0.6478717208
O   O44       1.0  0.68188  0.62582  0.45195  1.0000 -0.6478717208
O   O45       1.0  0.24317  0.90203  0.87330  1.0000 -0.7268022552
O   O46       1.0  0.75683  0.09797  0.12670  1.0000 -0.7268022552
O   O47       1.0  0.25683  0.40203  0.62670  1.0000 -0.7268022552
O   O48       1.0  0.74317  0.59797  0.37330  1.0000 -0.7268022552
O   O49       1.0  0.53948  0.72010  0.42459  1.0000 -0.640445216
O   O50       1.0  0.46052  0.27990  0.57541  1.0000 -0.640445216
O   O51       1.0  0.96052  0.22010  0.07541  1.0000 -0.640445216
O   O52       1.0  0.03948  0.77990  0.92459  1.0000 -0.640445216
O   O53       1.0  0.41105  0.73384  0.45678  1.0000 -0.5868872756
O   O54       1.0  0.58895  0.26616  0.54322  1.0000 -0.5868872756
O   O55       1.0  0.08895  0.23384  0.04322  1.0000 -0.5868872756
O   O56       1.0  0.91105  0.76616  0.95678  1.0000 -0.5868872756
O   O57       1.0  0.27041  0.68096  0.17233  1.0000 -0.640445216
O   O58       1.0  0.72959  0.31904  0.82767  1.0000 -0.640445216
O   O59       1.0  0.22959  0.18096  0.32767  1.0000 -0.640445216
O   O60       1.0  0.77041  0.81904  0.67233  1.0000 -0.640445216
O   O61       1.0  0.22911  0.76972  0.19667  1.0000 -0.7514917209
O   O62       1.0  0.77089  0.23028  0.80333  1.0000 -0.7514917209
O   O63       1.0  0.27089  0.26972  0.30333  1.0000 -0.7514917209
O   O64       1.0  0.72911  0.73028  0.69667  1.0000 -0.7514917209
O   O65       1.0  0.75760  0.70774  0.27791  1.0000 -0.7371890649
O   O66       1.0  0.24240  0.29226  0.72209  1.0000 -0.7371890649
O   O67       1.0  0.74240  0.20774  0.22209  1.0000 -0.7371890649
O   O68       1.0  0.25760  0.79226  0.77791  1.0000 -0.7371890649
O   O69       1.0  0.72395  0.79909  0.29708  1.0000 -0.6605698123
O   O70       1.0  0.27605  0.20091  0.70292  1.0000 -0.6605698123
O   O71       1.0  0.77605  0.29909  0.20292  1.0000 -0.6605698123
O   O72       1.0  0.22395  0.70091  0.79708  1.0000 -0.6605698123
O   O73       1.0  0.58146  0.75895  0.01461  1.0000 -0.6209610656
O   O74       1.0  0.41854  0.24105  0.98539  1.0000 -0.6257401064
O   O75       1.0  0.91854  0.25895  0.48539  1.0000 -0.6257401064
O   O76       1.0  0.08146  0.74105  0.51461  1.0000 -0.6257401064
O   O77       1.0  0.45239  0.76888  0.04688  1.0000 -0.6776137009
O   O78       1.0  0.54761  0.23112  0.95312  1.0000 -0.6776137009
O   O79       1.0  0.04761  0.26888  0.45312  1.0000 -0.6776137009
O   O80       1.0  0.95239  0.73112  0.54688  1.0000 -0.6776137009
O   O81       1.0  0.82081  0.36601  0.08487  1.0000 -0.640445216
O   O82       1.0  0.17919  0.63399  0.91513  1.0000 -0.640445216
O   O83       1.0  0.67919  0.86601  0.41513  1.0000 -0.640445216
O   O84       1.0  0.32081  0.13399  0.58487  1.0000 -0.640445216
O   O85       1.0  0.76108  0.41104  0.15425  1.0000 -0.6113663867
O   O86       1.0  0.23892  0.58896  0.84575  1.0000 -0.6113663867
O   O87       1.0  0.73892  0.91104  0.34575  1.0000 -0.6113663867
O   O88       1.0  0.26108  0.08896  0.65425  1.0000 -0.6113663867
O   O89       1.0  0.09802  0.59896  0.05649  1.0000 -0.5868872756
O   O90       1.0  0.90198  0.40104  0.94351  1.0000 -0.5868872756
O   O91       1.0  0.40198  0.09896  0.44351  1.0000 -0.5868872756
O   O92       1.0  0.59802  0.90104  0.55649  1.0000 -0.5868872756
O   O93       1.0  0.10577  0.61614  0.14725  1.0000 -0.6209610656
O   O94       1.0  0.89423  0.38386  0.85275  1.0000 -0.6209610656
O   O95       1.0  0.39423  0.11614  0.35275  1.0000 -0.6209610656
O   O96       1.0  0.60577  0.88386  0.64725  1.0000 -0.6209610656
O   O97       1.0  0.55395  0.11092  0.13451  1.0000 -0.7004083127
O   O98       1.0  0.44605  0.88908  0.86549  1.0000 -0.7004083127
O   O99       1.0  0.94605  0.61092  0.36549  1.0000 -0.7004083127
O   O100      1.0  0.05395  0.38908  0.63451  1.0000 -0.7004083127
O   O101      1.0  0.46917  0.16064  0.07531  1.0000 -0.6902739957
O   O102      1.0  0.53083  0.83936  0.92469  1.0000 -0.6902739957
O   O103      1.0  0.03083  0.66064  0.42469  1.0000 -0.6902739957
O   O104      1.0  0.96917  0.33936  0.57531  1.0000 -0.6902739957
O   O105      1.0  0.31624  0.86749  0.03367  1.0000 -0.6478717208
O   O106      1.0  0.68376  0.13251  0.96633  1.0000 -0.6478717208
O   O107      1.0  0.18376  0.36749  0.46633  1.0000 -0.6478717208
O   O108      1.0  0.81624  0.63251  0.53367  1.0000 -0.6478717208
O   O109      1.0  0.24844  0.88939  0.11177  1.0000 -0.7082378372
O   O110      1.0  0.75156  0.11061  0.88823  1.0000 -0.7082378372
O   O111      1.0  0.25156  0.38939  0.38823  1.0000 -0.7082378372
O   O112      1.0  0.74844  0.61061  0.61177  1.0000 -0.7082378372
O   O113      1.0  0.59708  0.38242  0.09895  1.0000 -0.7004083127
O   O114      1.0  0.40292  0.61758  0.90105  1.0000 -0.7004083127
O   O115      1.0  0.90292  0.88242  0.40105  1.0000 -0.7004083127
O   O116      1.0  0.09708  0.11758  0.59895  1.0000 -0.7004083127
O   O117      1.0  0.49681  0.33423  0.05103  1.0000 -0.7082378372
O   O118      1.0  0.50319  0.66577  0.94897  1.0000 -0.7082378372
O   O119      1.0  0.00319  0.83423  0.44897  1.0000 -0.7082378372
O   O120      1.0  0.99681  0.16577  0.55103  1.0000 -0.7082378372
O   O121      1.0  0.31516  0.62799  0.03857  1.0000 -0.640445216
O   O122      1.0  0.68484  0.37201  0.96143  1.0000 -0.640445216
O   O123      1.0  0.18484  0.12799  0.46143  1.0000 -0.640445216
O   O124      1.0  0.81516  0.87201  0.53857  1.0000 -0.640445216
O   O125      1.0  0.26544  0.57707  0.10841  1.0000 -0.5868872756
O   O126      1.0  0.73456  0.42293  0.89159  1.0000 -0.5868872756
O   O127      1.0  0.23456  0.07707  0.39159  1.0000 -0.5868872756
O   O128      1.0  0.76544  0.92293  0.60841  1.0000 -0.5868872756
O   O129      1.0  0.99273  0.66372  0.98636  1.0000 -0.8300788805
O   O130      1.0  0.00727  0.33628  0.01364  1.0000 -0.8300788805
O   O131      1.0  0.50727  0.16372  0.51364  1.0000 -0.8300788805
O   O132      1.0  0.49273  0.83628  0.48636  1.0000 -0.8300788805
