# DDEC6 charges by PACMAN v1.1 (https://github.com/mtap-research/PACMAN-charge/)
data_2004[Cu][nan]3[ASR]1
_chemical_formula_sum              "Cu4 H16 C32 N12 O16"
_cell_length_a       4.7101
_cell_length_b       20.0289
_cell_length_c       10.7704
_cell_angle_alpha    90
_cell_angle_beta     95.472
_cell_angle_gamma    90

_symmetry_space_group_name_H-M    "P 1"
_symmetry_Int_Tables_number       1

loop_
  _symmetry_equiv_pos_as_xyz
  'x, y, z'

loop_
  _atom_site_type_symbol
  _atom_site_label
  _atom_site_symmetry_multiplicity
  _atom_site_fract_x
  _atom_site_fract_y
  _atom_site_fract_z
  _atom_site_occupancy
  _atom_site_charge
Cu  Cu1       1.0  0.31100  0.66360  0.46500  1.0000 0.751987361
Cu  Cu2       1.0  0.68900  0.16360  0.03500  1.0000 0.751987361
Cu  Cu3       1.0  0.68900  0.33640  0.53500  1.0000 0.751987361
Cu  Cu4       1.0  0.31100  0.83640  0.96500  1.0000 0.751987361
H   H1        1.0  0.23466  0.91538  0.43135  1.0000 0.1227331689
H   H2        1.0  0.76534  0.41538  0.06865  1.0000 0.1227331689
H   H3        1.0  0.76534  0.08462  0.56865  1.0000 0.1227331689
H   H4        1.0  0.23466  0.58462  0.93135  1.0000 0.1227331689
H   H5        1.0  0.40361  0.81680  0.53635  1.0000 0.138535741
H   H6        1.0  0.59639  0.31680  0.96365  1.0000 0.138535741
H   H7        1.0  0.59639  0.18320  0.46365  1.0000 0.138535741
H   H8        1.0  0.40361  0.68320  0.03635  1.0000 0.138535741
H   H9        1.0  0.61129  0.57496  0.35527  1.0000 0.138535741
H   H10       1.0  0.38871  0.07496  0.14473  1.0000 0.138535741
H   H11       1.0  0.38871  0.42504  0.64473  1.0000 0.138535741
H   H12       1.0  0.61129  0.92504  0.85527  1.0000 0.138535741
H   H13       1.0  0.17998  0.53545  0.63198  1.0000 0.138535741
H   H14       1.0  0.82002  0.03545  0.86802  1.0000 0.138535741
H   H15       1.0  0.82002  0.46455  0.36802  1.0000 0.138535741
H   H16       1.0  0.17998  0.96455  0.13198  1.0000 0.138535741
C   C1        1.0  0.05900  0.75500  0.30000  1.0000 0.0913136793
C   C2        1.0  0.94100  0.25500  0.20000  1.0000 0.0913136793
C   C3        1.0  0.94100  0.24500  0.70000  1.0000 0.0913136793
C   C4        1.0  0.05900  0.74500  0.80000  1.0000 0.0913136793
C   C5        1.0  0.95700  0.81300  0.24000  1.0000 0.0833625352
C   C6        1.0  0.04300  0.31300  0.26000  1.0000 0.0833625352
C   C7        1.0  0.04300  0.18700  0.76000  1.0000 0.0833625352
C   C8        1.0  0.95700  0.68700  0.74000  1.0000 0.0833625352
C   C9        1.0  0.18800  0.87200  0.40000  1.0000 0.0299178759
C   C10       1.0  0.81200  0.37200  0.10000  1.0000 0.0299178759
C   C11       1.0  0.81200  0.12800  0.60000  1.0000 0.0299178759
C   C12       1.0  0.18800  0.62800  0.90000  1.0000 0.0299178759
C   C13       1.0  0.28900  0.81540  0.45900  1.0000 0.0713643549
C   C14       1.0  0.71100  0.31540  0.04100  1.0000 0.0713643549
C   C15       1.0  0.71100  0.18460  0.54100  1.0000 0.0713643549
C   C16       1.0  0.28900  0.68460  0.95900  1.0000 0.0713643549
C   C17       1.0  0.00700  0.68500  0.24000  1.0000 0.5212109318
C   C18       1.0  0.99300  0.18500  0.26000  1.0000 0.5212109318
C   C19       1.0  0.99300  0.31500  0.76000  1.0000 0.5212109318
C   C20       1.0  0.00700  0.81500  0.74000  1.0000 0.5212109318
C   C21       1.0  0.78400  0.82000  0.12000  1.0000 0.5308037033
C   C22       1.0  0.21600  0.32000  0.38000  1.0000 0.5308037033
C   C23       1.0  0.21600  0.18000  0.88000  1.0000 0.5308037033
C   C24       1.0  0.78400  0.68000  0.62000  1.0000 0.5308037033
C   C25       1.0  0.56700  0.54300  0.41600  1.0000 0.0624049367
C   C26       1.0  0.43300  0.04300  0.08400  1.0000 0.0624049367
C   C27       1.0  0.43300  0.45700  0.58400  1.0000 0.0624049367
C   C28       1.0  0.56700  0.95700  0.91600  1.0000 0.0624049367
C   C29       1.0  0.31400  0.52100  0.57700  1.0000 0.0548580555
C   C30       1.0  0.68600  0.02100  0.92300  1.0000 0.0548580555
C   C31       1.0  0.68600  0.47900  0.42300  1.0000 0.0548580555
C   C32       1.0  0.31400  0.97900  0.07700  1.0000 0.0548580555
N   N1        1.0  0.22000  0.75630  0.40400  1.0000 -0.2028227592
N   N2        1.0  0.78000  0.25630  0.09600  1.0000 -0.2028227592
N   N3        1.0  0.78000  0.24370  0.59600  1.0000 -0.2028227592
N   N4        1.0  0.22000  0.74370  0.90400  1.0000 -0.2028227592
N   N5        1.0  0.02500  0.87100  0.29000  1.0000 -0.2176730292
N   N6        1.0  0.97500  0.37100  0.21000  1.0000 -0.2176730292
N   N7        1.0  0.97500  0.12900  0.71000  1.0000 -0.2176730292
N   N8        1.0  0.02500  0.62900  0.79000  1.0000 -0.2176730292
N   N9        1.0  0.38900  0.56320  0.49300  1.0000 -0.1412760275
N   N10       1.0  0.61100  0.06320  0.00700  1.0000 -0.1412760275
N   N11       1.0  0.61100  0.43680  0.50700  1.0000 -0.1412760275
N   N12       1.0  0.38900  0.93680  0.99300  1.0000 -0.1412760275
O   O1        1.0  0.12900  0.63000  0.30500  1.0000 -0.6296202908
O   O2        1.0  0.87100  0.13000  0.19500  1.0000 -0.6296202908
O   O3        1.0  0.87100  0.37000  0.69500  1.0000 -0.6296202908
O   O4        1.0  0.12900  0.87000  0.80500  1.0000 -0.6296202908
O   O5        1.0  0.87200  0.68600  0.13600  1.0000 -0.4776637325
O   O6        1.0  0.12800  0.18600  0.36400  1.0000 -0.4776637325
O   O7        1.0  0.12800  0.31400  0.86400  1.0000 -0.4776637325
O   O8        1.0  0.87200  0.81400  0.63600  1.0000 -0.4776637325
O   O9        1.0  0.49500  0.81700  0.13600  1.0000 -0.5799960563
O   O10       1.0  0.50500  0.31700  0.36400  1.0000 -0.5799960563
O   O11       1.0  0.50500  0.18300  0.86400  1.0000 -0.5799960563
O   O12       1.0  0.49500  0.68300  0.63600  1.0000 -0.5799960563
O   O13       1.0  0.88600  0.83700  0.02700  1.0000 -0.4865119303
O   O14       1.0  0.11400  0.33700  0.47300  1.0000 -0.4865119303
O   O15       1.0  0.11400  0.16300  0.97300  1.0000 -0.4865119303
O   O16       1.0  0.88600  0.66300  0.52700  1.0000 -0.4865119303
