# DDEC6 charges by PACMAN v1.1 (https://github.com/mtap-research/PACMAN-charge/)
data_2004[Zn][pcu]3[ASR]3
_chemical_formula_sum              "Zn4 H40 C44 N4 O16"
_cell_length_a       13.5004
_cell_length_b       17.0664
_cell_length_c       9.6715
_cell_angle_alpha    90
_cell_angle_beta     90
_cell_angle_gamma    90

_symmetry_space_group_name_H-M    "P 1"
_symmetry_Int_Tables_number       1

loop_
  _symmetry_equiv_pos_as_xyz
  'x, y, z'

loop_
  _atom_site_type_symbol
  _atom_site_label
  _atom_site_symmetry_multiplicity
  _atom_site_fract_x
  _atom_site_fract_y
  _atom_site_fract_z
  _atom_site_occupancy
  _atom_site_charge
Zn  Zn1       1.0  0.99994  0.00000  0.15012  1.0000 0.8242392422
Zn  Zn2       1.0  0.49994  0.50000  0.15012  1.0000 0.8242392422
Zn  Zn3       1.0  0.99994  0.00000  0.84988  1.0000 0.8242392422
Zn  Zn4       1.0  0.49994  0.50000  0.84988  1.0000 0.8242392422
H   H1        1.0  0.19353  0.19088  0.22334  1.0000 0.100621886
H   H2        1.0  0.14194  0.05214  0.37707  1.0000 0.100621886
H   H3        1.0  0.69353  0.69088  0.22334  1.0000 0.100621886
H   H4        1.0  0.64194  0.55214  0.37707  1.0000 0.100621886
H   H5        1.0  0.80648  0.80911  0.22332  1.0000 0.100621886
H   H6        1.0  0.98727  0.87710  0.37746  1.0000 0.100621886
H   H7        1.0  0.87299  0.92894  0.37766  1.0000 0.100621886
H   H8        1.0  0.30648  0.30911  0.22332  1.0000 0.100621886
H   H9        1.0  0.48727  0.37710  0.37746  1.0000 0.100621886
H   H10       1.0  0.37299  0.42894  0.37766  1.0000 0.100621886
H   H11       1.0  0.80648  0.19089  0.77668  1.0000 0.100621886
H   H12       1.0  0.98727  0.12290  0.62254  1.0000 0.100621886
H   H13       1.0  0.87299  0.07106  0.62234  1.0000 0.100621886
H   H14       1.0  0.30648  0.69089  0.77668  1.0000 0.100621886
H   H15       1.0  0.48727  0.62290  0.62254  1.0000 0.100621886
H   H16       1.0  0.37299  0.57106  0.62234  1.0000 0.100621886
H   H17       1.0  0.19353  0.80912  0.77666  1.0000 0.100621886
H   H18       1.0  0.14194  0.94786  0.62293  1.0000 0.100621886
H   H19       1.0  0.69353  0.30912  0.77666  1.0000 0.100621886
H   H20       1.0  0.64194  0.44786  0.62293  1.0000 0.100621886
H   H21       1.0  0.80648  0.80911  0.77668  1.0000 0.100621886
H   H22       1.0  0.98727  0.87710  0.62254  1.0000 0.100621886
H   H23       1.0  0.87299  0.92894  0.62234  1.0000 0.100621886
H   H24       1.0  0.30648  0.30911  0.77668  1.0000 0.100621886
H   H25       1.0  0.48727  0.37710  0.62254  1.0000 0.100621886
H   H26       1.0  0.37299  0.42894  0.62234  1.0000 0.100621886
H   H27       1.0  0.19353  0.19088  0.77666  1.0000 0.100621886
H   H28       1.0  0.14194  0.05214  0.62293  1.0000 0.100621886
H   H29       1.0  0.69353  0.69088  0.77666  1.0000 0.100621886
H   H30       1.0  0.64194  0.55214  0.62293  1.0000 0.100621886
H   H31       1.0  0.19353  0.80912  0.22334  1.0000 0.100621886
H   H32       1.0  0.14194  0.94786  0.37707  1.0000 0.100621886
H   H33       1.0  0.69353  0.30912  0.22334  1.0000 0.100621886
H   H34       1.0  0.64194  0.44786  0.37707  1.0000 0.100621886
H   H35       1.0  0.80648  0.19089  0.22332  1.0000 0.100621886
H   H36       1.0  0.98727  0.12290  0.37746  1.0000 0.100621886
H   H37       1.0  0.87299  0.07106  0.37766  1.0000 0.100621886
H   H38       1.0  0.30648  0.69089  0.22332  1.0000 0.100621886
H   H39       1.0  0.48727  0.62290  0.37746  1.0000 0.100621886
H   H40       1.0  0.37299  0.57106  0.37766  1.0000 0.100621886
C   C1        1.0  0.21958  0.21716  0.12632  1.0000 -0.0928856893
C   C2        1.0  0.71958  0.71716  0.12632  1.0000 -0.0928856893
C   C3        1.0  0.78042  0.78283  0.12632  1.0000 -0.0928856893
C   C4        1.0  0.94878  0.92875  0.42027  1.0000 -0.0846524133
C   C5        1.0  0.28042  0.28283  0.12632  1.0000 -0.0928856893
C   C6        1.0  0.44878  0.42875  0.42027  1.0000 -0.0846524133
C   C7        1.0  0.78042  0.21717  0.87368  1.0000 -0.0928856893
C   C8        1.0  0.94878  0.07125  0.57973  1.0000 -0.0846524133
C   C9        1.0  0.28042  0.71717  0.87368  1.0000 -0.0928856893
C   C10       1.0  0.44878  0.57125  0.57973  1.0000 -0.0846524133
C   C11       1.0  0.21958  0.78284  0.87368  1.0000 -0.0928856893
C   C12       1.0  0.71958  0.28284  0.87368  1.0000 -0.0928856893
C   C13       1.0  0.78042  0.78283  0.87368  1.0000 -0.0928856893
C   C14       1.0  0.94878  0.92875  0.57973  1.0000 -0.0846524133
C   C15       1.0  0.28042  0.28283  0.87368  1.0000 -0.0928856893
C   C16       1.0  0.44878  0.42875  0.57973  1.0000 -0.0846524133
C   C17       1.0  0.21958  0.21716  0.87368  1.0000 -0.0928856893
C   C18       1.0  0.71958  0.71716  0.87368  1.0000 -0.0928856893
C   C19       1.0  0.21958  0.78284  0.12632  1.0000 -0.0928856893
C   C20       1.0  0.71958  0.28284  0.12632  1.0000 -0.0928856893
C   C21       1.0  0.78042  0.21717  0.12632  1.0000 -0.0928856893
C   C22       1.0  0.94878  0.07125  0.42027  1.0000 -0.0846524133
C   C23       1.0  0.28042  0.71717  0.12632  1.0000 -0.0928856893
C   C24       1.0  0.44878  0.57125  0.42027  1.0000 -0.0846524133
C   C25       1.0  0.12790  0.11211  0.00000  1.0000 0.5940240876
C   C26       1.0  0.19012  0.18384  0.00000  1.0000 -0.0312554942
C   C27       1.0  0.62790  0.61211  0.00000  1.0000 0.5940240876
C   C28       1.0  0.69012  0.68384  0.00000  1.0000 -0.0312554942
C   C29       1.0  0.87189  0.88800  0.00000  1.0000 0.5940240876
C   C30       1.0  0.80983  0.81617  0.00000  1.0000 -0.0312554942
C   C31       1.0  0.37189  0.38800  0.00000  1.0000 0.5940240876
C   C32       1.0  0.30983  0.31617  0.00000  1.0000 -0.0312554942
C   C33       1.0  0.87189  0.11200  0.00000  1.0000 0.5940240876
C   C34       1.0  0.80983  0.18383  0.00000  1.0000 -0.0312554942
C   C35       1.0  0.37189  0.61200  0.00000  1.0000 0.5940240876
C   C36       1.0  0.30983  0.68383  0.00000  1.0000 -0.0312554942
C   C37       1.0  0.12790  0.88789  0.00000  1.0000 0.5940240876
C   C38       1.0  0.19012  0.81616  0.00000  1.0000 -0.0312554942
C   C39       1.0  0.62790  0.38789  0.00000  1.0000 0.5940240876
C   C40       1.0  0.69012  0.31616  0.00000  1.0000 -0.0312554942
C   C41       1.0  0.10476  0.00000  0.42005  1.0000 -0.0928856893
C   C42       1.0  0.60476  0.50000  0.42005  1.0000 -0.0928856893
C   C43       1.0  0.10476  0.00000  0.57995  1.0000 -0.0928856893
C   C44       1.0  0.60476  0.50000  0.57995  1.0000 -0.0928856893
N   N1        1.0  0.00065  0.00000  0.36702  1.0000 -0.1047946779
N   N2        1.0  0.50065  0.50000  0.36702  1.0000 -0.1063813498
N   N3        1.0  0.00065  0.00000  0.63298  1.0000 -0.1047946779
N   N4        1.0  0.50065  0.50000  0.63298  1.0000 -0.1063813498
O   O1        1.0  0.10365  0.08434  0.11846  1.0000 -0.5541685005
O   O2        1.0  0.60365  0.58434  0.11846  1.0000 -0.5541685005
O   O3        1.0  0.89606  0.91581  0.11832  1.0000 -0.5541685005
O   O4        1.0  0.39606  0.41581  0.11832  1.0000 -0.5541685005
O   O5        1.0  0.89606  0.08419  0.88168  1.0000 -0.5541685005
O   O6        1.0  0.39606  0.58419  0.88168  1.0000 -0.5541685005
O   O7        1.0  0.10365  0.91566  0.88154  1.0000 -0.5541685005
O   O8        1.0  0.60365  0.41566  0.88154  1.0000 -0.5541685005
O   O9        1.0  0.89606  0.91581  0.88168  1.0000 -0.5541685005
O   O10       1.0  0.39606  0.41581  0.88168  1.0000 -0.5541685005
O   O11       1.0  0.10365  0.08434  0.88154  1.0000 -0.5541685005
O   O12       1.0  0.60365  0.58434  0.88154  1.0000 -0.5541685005
O   O13       1.0  0.10365  0.91566  0.11846  1.0000 -0.5541685005
O   O14       1.0  0.60365  0.41566  0.11846  1.0000 -0.5541685005
O   O15       1.0  0.89606  0.08419  0.11832  1.0000 -0.5541685005
O   O16       1.0  0.39606  0.58419  0.11832  1.0000 -0.5541685005
