# DDEC6 charges by PACMAN v1.1 (https://github.com/mtap-research/PACMAN-charge/)
data_2005[Mn][lvt]3[ASR]1
_chemical_formula_sum              "Mn24 H264 C312 N64 O72"
_cell_length_a       29.6301
_cell_length_b       29.6301
_cell_length_c       29.6301
_cell_angle_alpha    95.3132
_cell_angle_beta     95.3132
_cell_angle_gamma    144.568

_symmetry_space_group_name_H-M    "P 1"
_symmetry_Int_Tables_number       1

loop_
  _symmetry_equiv_pos_as_xyz
  'x, y, z'

loop_
  _atom_site_type_symbol
  _atom_site_label
  _atom_site_symmetry_multiplicity
  _atom_site_fract_x
  _atom_site_fract_y
  _atom_site_fract_z
  _atom_site_occupancy
  _atom_site_charge
Mn  Mn1       1.0  0.86739  0.08587  0.36648  1.0000 0.9266524371
Mn  Mn2       1.0  0.75091  0.61739  0.28152  1.0000 0.9266524371
Mn  Mn3       1.0  0.33587  0.46939  0.71848  1.0000 0.9266524371
Mn  Mn4       1.0  0.71939  0.50091  0.63352  1.0000 0.9244332626
Mn  Mn5       1.0  0.38261  0.66413  0.13352  1.0000 0.9266524371
Mn  Mn6       1.0  0.49909  0.13261  0.21848  1.0000 0.9266524371
Mn  Mn7       1.0  0.91413  0.28061  0.78152  1.0000 0.9266524371
Mn  Mn8       1.0  0.53061  0.24909  0.86648  1.0000 0.9266524371
Mn  Mn9       1.0  0.83657  0.16067  0.24108  1.0000 0.900210218
Mn  Mn10      1.0  0.84549  0.58657  0.17590  1.0000 0.900210218
Mn  Mn11      1.0  0.41067  0.66959  0.82410  1.0000 0.900210218
Mn  Mn12      1.0  0.91959  0.59549  0.75892  1.0000 0.900210218
Mn  Mn13      1.0  0.41343  0.58933  0.25892  1.0000 0.900210218
Mn  Mn14      1.0  0.40451  0.16343  0.32410  1.0000 0.900210218
Mn  Mn15      1.0  0.83933  0.08041  0.67590  1.0000 0.900210218
Mn  Mn16      1.0  0.33041  0.15451  0.74108  1.0000 0.900210218
Mn  Mn17      1.0  0.70129  0.81078  0.33401  1.0000 0.8913414492
Mn  Mn18      1.0  0.61728  0.45129  0.39051  1.0000 0.900210218
Mn  Mn19      1.0  0.06078  0.22677  0.60949  1.0000 0.900210218
Mn  Mn20      1.0  0.47677  0.36728  0.66599  1.0000 0.8913414492
Mn  Mn21      1.0  0.54871  0.93922  0.16599  1.0000 0.900210218
Mn  Mn22      1.0  0.63272  0.29871  0.10949  1.0000 0.900210218
Mn  Mn23      1.0  0.18922  0.52323  0.89051  1.0000 0.8913414492
Mn  Mn24      1.0  0.77323  0.38272  0.83401  1.0000 0.8913414492
H   H1        1.0  0.06600  0.15970  0.35670  1.0000 0.1316354366
H   H2        1.0  0.95930  0.81600  0.40630  1.0000 0.1316354366
H   H3        1.0  0.40970  0.55300  0.59370  1.0000 0.1316354366
H   H4        1.0  0.80300  0.70930  0.64330  1.0000 0.1316354366
H   H5        1.0  0.18400  0.59030  0.14330  1.0000 0.1316354366
H   H6        1.0  0.29070  0.93400  0.09370  1.0000 0.1316354366
H   H7        1.0  0.84030  0.19700  0.90630  1.0000 0.1316354366
H   H8        1.0  0.44700  0.04070  0.85670  1.0000 0.1316354366
H   H9        1.0  0.16950  0.25480  0.32150  1.0000 0.1014827954
H   H10       1.0  0.09800  0.91950  0.41470  1.0000 0.1097593883
H   H11       1.0  0.50480  0.68330  0.58530  1.0000 0.1014827954
H   H12       1.0  0.93330  0.84800  0.67850  1.0000 0.1014827954
H   H13       1.0  0.08050  0.49520  0.17850  1.0000 0.1097593883
H   H14       1.0  0.15200  0.83050  0.08530  1.0000 0.1097593883
H   H15       1.0  0.74520  0.06670  0.91470  1.0000 0.1014827954
H   H16       1.0  0.31670  0.90200  0.82150  1.0000 0.1097593883
H   H17       1.0  0.17360  0.32270  0.28210  1.0000 0.1217032118
H   H18       1.0  0.14150  0.92360  0.35090  1.0000 0.1217032118
H   H19       1.0  0.57270  0.79060  0.64910  1.0000 0.1217032118
H   H20       1.0  0.04060  0.89150  0.71790  1.0000 0.1217032118
H   H21       1.0  0.07640  0.42730  0.21790  1.0000 0.1217032118
H   H22       1.0  0.10850  0.82640  0.14910  1.0000 0.1217032118
H   H23       1.0  0.67730  0.95940  0.85090  1.0000 0.1217032118
H   H24       1.0  0.20940  0.85850  0.78210  1.0000 0.1217032118
H   H25       1.0  0.06150  0.27680  0.26490  1.0000 0.1217032118
H   H26       1.0  0.04660  0.81150  0.28470  1.0000 0.1217032118
H   H27       1.0  0.52680  0.76190  0.71530  1.0000 0.1217032118
H   H28       1.0  0.01190  0.79660  0.73510  1.0000 0.1217032118
H   H29       1.0  0.18850  0.47320  0.23510  1.0000 0.1217032118
H   H30       1.0  0.20340  0.93850  0.21530  1.0000 0.1217032118
H   H31       1.0  0.72320  0.98810  0.78470  1.0000 0.1217032118
H   H32       1.0  0.23810  0.95340  0.76490  1.0000 0.1217032118
H   H33       1.0  0.65530  0.00350  0.30380  1.0000 0.1703889873
H   H34       1.0  0.60150  0.40530  0.15180  1.0000 0.1703889873
H   H35       1.0  0.25350  0.44970  0.84820  1.0000 0.1703889873
H   H36       1.0  0.69970  0.35150  0.69620  1.0000 0.1703889873
H   H37       1.0  0.59470  0.74650  0.19620  1.0000 0.1703889873
H   H38       1.0  0.64850  0.34470  0.34820  1.0000 0.1703889873
H   H39       1.0  0.99650  0.30030  0.65180  1.0000 0.1703889873
H   H40       1.0  0.55030  0.39850  0.80380  1.0000 0.1703889873
H   H41       1.0  0.69680  0.05870  0.35710  1.0000 0.1703889873
H   H42       1.0  0.58970  0.44680  0.13810  1.0000 0.1703889873
H   H43       1.0  0.30870  0.45160  0.86190  1.0000 0.1703889873
H   H44       1.0  0.70160  0.33970  0.64290  1.0000 0.1703889873
H   H45       1.0  0.55320  0.69130  0.14290  1.0000 0.1703889873
H   H46       1.0  0.66030  0.30320  0.36190  1.0000 0.1703889873
H   H47       1.0  0.94130  0.29840  0.63810  1.0000 0.1703889873
H   H48       1.0  0.54840  0.41030  0.85710  1.0000 0.1703889873
H   H49       1.0  0.72230  0.09820  0.31430  1.0000 0.164299713
H   H50       1.0  0.65800  0.47230  0.12410  1.0000 0.164299713
H   H51       1.0  0.34820  0.53390  0.87590  1.0000 0.164299713
H   H52       1.0  0.78390  0.40800  0.68570  1.0000 0.164299713
H   H53       1.0  0.52770  0.65180  0.18570  1.0000 0.164299713
H   H54       1.0  0.59200  0.27770  0.37590  1.0000 0.164299713
H   H55       1.0  0.90180  0.21610  0.62410  1.0000 0.164299713
H   H56       1.0  0.46610  0.34200  0.81430  1.0000 0.164299713
H   H57       1.0  0.92850  0.36620  0.31710  1.0000 0.1316354366
H   H58       1.0  0.86140  0.67850  0.06230  1.0000 0.1316354366
H   H59       1.0  0.61620  0.79910  0.93770  1.0000 0.1316354366
H   H60       1.0  0.04910  0.61140  0.68290  1.0000 0.1316354366
H   H61       1.0  0.32150  0.38380  0.18290  1.0000 0.1316354366
H   H62       1.0  0.38860  0.07150  0.43770  1.0000 0.1316354366
H   H63       1.0  0.63380  0.95090  0.56230  1.0000 0.1316354366
H   H64       1.0  0.20090  0.13860  0.81710  1.0000 0.1316354366
H   H65       1.0  0.86600  0.38480  0.32100  1.0000 0.1097593883
H   H66       1.0  0.79500  0.61600  0.98120  1.0000 0.1097593883
H   H67       1.0  0.63480  0.81380  0.01880  1.0000 0.1097593883
H   H68       1.0  0.06380  0.54500  0.67900  1.0000 0.1097593883
H   H69       1.0  0.38400  0.36520  0.17900  1.0000 0.1097593883
H   H70       1.0  0.45500  0.13400  0.51880  1.0000 0.1097593883
H   H71       1.0  0.61520  0.93620  0.48120  1.0000 0.1097593883
H   H72       1.0  0.18620  0.20500  0.82100  1.0000 0.1097593883
H   H73       1.0  0.72740  0.27800  0.28300  1.0000 0.1316354366
H   H74       1.0  0.69440  0.47740  0.94940  1.0000 0.1316354366
H   H75       1.0  0.52800  0.74500  0.05060  1.0000 0.1316354366
H   H76       1.0  0.99500  0.44440  0.71700  1.0000 0.1316354366
H   H77       1.0  0.52260  0.47200  0.21700  1.0000 0.1316354366
H   H78       1.0  0.55560  0.27260  0.55060  1.0000 0.1316354366
H   H79       1.0  0.72200  0.00500  0.44940  1.0000 0.1316354366
H   H80       1.0  0.25500  0.30560  0.78300  1.0000 0.1316354366
H   H81       1.0  0.65360  0.15520  0.23800  1.0000 0.1217032118
H   H82       1.0  0.66560  0.40360  0.99840  1.0000 0.1217032118
H   H83       1.0  0.40520  0.66720  0.00160  1.0000 0.1217032118
H   H84       1.0  0.91720  0.41560  0.76200  1.0000 0.1217032118
H   H85       1.0  0.59640  0.59480  0.26200  1.0000 0.1217032118
H   H86       1.0  0.58440  0.34640  0.50160  1.0000 0.1217032118
H   H87       1.0  0.84480  0.08280  0.49840  1.0000 0.1217032118
H   H88       1.0  0.33280  0.33440  0.73800  1.0000 0.1217032118
H   H89       1.0  0.64260  0.89780  0.15520  1.0000 0.1703889873
H   H90       1.0  0.73740  0.39260  0.24480  1.0000 0.1703889873
H   H91       1.0  0.14780  0.49260  0.75520  1.0000 0.1703889873
H   H92       1.0  0.74260  0.48740  0.84480  1.0000 0.1703889873
H   H93       1.0  0.60740  0.85220  0.34480  1.0000 0.1703889873
H   H94       1.0  0.51260  0.35740  0.25520  1.0000 0.1703889873
H   H95       1.0  0.10220  0.25740  0.74480  1.0000 0.1703889873
H   H96       1.0  0.50740  0.26260  0.65520  1.0000 0.1703889873
H   H97       1.0  0.63040  0.92040  0.11360  1.0000 0.1703889873
H   H98       1.0  0.76680  0.38040  0.21000  1.0000 0.1703889873
H   H99       1.0  0.17040  0.55680  0.79000  1.0000 0.1703889873
H   H100      1.0  0.80680  0.51680  0.88640  1.0000 0.1703889873
H   H101      1.0  0.61960  0.82960  0.38640  1.0000 0.1703889873
H   H102      1.0  0.48320  0.36960  0.29000  1.0000 0.1703889873
H   H103      1.0  0.07960  0.19320  0.71000  1.0000 0.1703889873
H   H104      1.0  0.44320  0.23320  0.61360  1.0000 0.1703889873
H   H105      1.0  0.70970  0.95490  0.12760  1.0000 0.1703889873
H   H106      1.0  0.83210  0.45970  0.25480  1.0000 0.1703889873
H   H107      1.0  0.20490  0.57730  0.74520  1.0000 0.1703889873
H   H108      1.0  0.82730  0.58210  0.87240  1.0000 0.1703889873
H   H109      1.0  0.54030  0.79510  0.37240  1.0000 0.1703889873
H   H110      1.0  0.41790  0.29030  0.24520  1.0000 0.1703889873
H   H111      1.0  0.04510  0.17270  0.75480  1.0000 0.1703889873
H   H112      1.0  0.42270  0.16790  0.62760  1.0000 0.1703889873
H   H113      1.0  0.94320  0.20300  0.17960  1.0000 0.1217032118
H   H114      1.0  0.01360  0.69320  0.24020  1.0000 0.1217032118
H   H115      1.0  0.45300  0.77340  0.75980  1.0000 0.1217032118
H   H116      1.0  0.02340  0.76360  0.82040  1.0000 0.1217032118
H   H117      1.0  0.30680  0.54700  0.32040  1.0000 0.1217032118
H   H118      1.0  0.23640  0.05680  0.25980  1.0000 0.1217032118
H   H119      1.0  0.79700  0.97660  0.74020  1.0000 0.1217032118
H   H120      1.0  0.22660  0.98640  0.67960  1.0000 0.1217032118
H   H121      1.0  0.99330  0.25590  0.11600  1.0000 0.1404180932
H   H122      1.0  0.12730  0.74330  0.23740  1.0000 0.1404180932
H   H123      1.0  0.50590  0.88990  0.76260  1.0000 0.1404180932
H   H124      1.0  0.13990  0.87730  0.88400  1.0000 0.1404180932
H   H125      1.0  0.25670  0.49410  0.38400  1.0000 0.1404180932
H   H126      1.0  0.12270  0.00670  0.26260  1.0000 0.1404180932
H   H127      1.0  0.74410  0.86010  0.73740  1.0000 0.1404180932
H   H128      1.0  0.11010  0.87270  0.61600  1.0000 0.1404180932
H   H129      1.0  0.83750  0.23160  0.16650  1.0000 0.1097593883
H   H130      1.0  0.92100  0.58750  0.10590  1.0000 0.1097593883
H   H131      1.0  0.48160  0.81510  0.89410  1.0000 0.1097593883
H   H132      1.0  0.06510  0.67100  0.83350  1.0000 0.1097593883
H   H133      1.0  0.41250  0.51840  0.33350  1.0000 0.1097593883
H   H134      1.0  0.32900  0.16250  0.39410  1.0000 0.1097593883
H   H135      1.0  0.76840  0.93490  0.60590  1.0000 0.1097593883
H   H136      1.0  0.18490  0.07900  0.66650  1.0000 0.1097593883
H   H137      1.0  0.87890  0.27540  0.10170  1.0000 0.1316354366
H   H138      1.0  0.02720  0.62890  0.10350  1.0000 0.1316354366
H   H139      1.0  0.52540  0.92370  0.89650  1.0000 0.1316354366
H   H140      1.0  0.17370  0.77720  0.89830  1.0000 0.1316354366
H   H141      1.0  0.37110  0.47460  0.39830  1.0000 0.1316354366
H   H142      1.0  0.22280  0.12110  0.39650  1.0000 0.1316354366
H   H143      1.0  0.72460  0.82630  0.60350  1.0000 0.1316354366
H   H144      1.0  0.07630  0.97280  0.60170  1.0000 0.1316354366
H   H145      1.0  0.99140  0.36370  0.07070  1.0000 0.1217032118
H   H146      1.0  0.17070  0.74140  0.12770  1.0000 0.1217032118
H   H147      1.0  0.61370  0.04300  0.87230  1.0000 0.1217032118
H   H148      1.0  0.29300  0.92070  0.92930  1.0000 0.1217032118
H   H149      1.0  0.25860  0.38630  0.42930  1.0000 0.1217032118
H   H150      1.0  0.07930  0.00860  0.37230  1.0000 0.1217032118
H   H151      1.0  0.63630  0.70700  0.62770  1.0000 0.1217032118
H   H152      1.0  0.95700  0.82930  0.57070  1.0000 0.1217032118
H   H153      1.0  0.94450  0.28220  0.03830  1.0000 0.1217032118
H   H154      1.0  0.15620  0.69450  0.16230  1.0000 0.1217032118
H   H155      1.0  0.53220  0.99390  0.83770  1.0000 0.1217032118
H   H156      1.0  0.24390  0.90620  0.96170  1.0000 0.1217032118
H   H157      1.0  0.30550  0.46780  0.46170  1.0000 0.1217032118
H   H158      1.0  0.09380  0.05550  0.33770  1.0000 0.1217032118
H   H159      1.0  0.71780  0.75610  0.66230  1.0000 0.1217032118
H   H160      1.0  0.00610  0.84380  0.53830  1.0000 0.1217032118
H   H161      1.0  0.73120  0.78310  0.46970  1.0000 0.1316354366
H   H162      1.0  0.51150  0.48120  0.44810  1.0000 0.1316354366
H   H163      1.0  0.03310  0.06340  0.55190  1.0000 0.1316354366
H   H164      1.0  0.31340  0.26150  0.53030  1.0000 0.1316354366
H   H165      1.0  0.51880  0.96690  0.03030  1.0000 0.1316354366
H   H166      1.0  0.73850  0.26880  0.05190  1.0000 0.1316354366
H   H167      1.0  0.21690  0.68660  0.94810  1.0000 0.1316354366
H   H168      1.0  0.93660  0.48850  0.96970  1.0000 0.1316354366
H   H169      1.0  0.81070  0.87320  0.54550  1.0000 0.1014827954
H   H170      1.0  0.51520  0.56070  0.43750  1.0000 0.1014827954
H   H171      1.0  0.12320  0.07770  0.56250  1.0000 0.1014827954
H   H172      1.0  0.32770  0.26520  0.45450  1.0000 0.1014827954
H   H173      1.0  0.43930  0.87680  0.95450  1.0000 0.1014827954
H   H174      1.0  0.73480  0.18930  0.06250  1.0000 0.1014827954
H   H175      1.0  0.12680  0.67230  0.93750  1.0000 0.1014827954
H   H176      1.0  0.92230  0.48480  0.04550  1.0000 0.1014827954
H   H177      1.0  0.89170  0.00610  0.55820  1.0000 0.1217032118
H   H178      1.0  0.58350  0.64170  0.38560  1.0000 0.1217032118
H   H179      1.0  0.25610  0.19790  0.61440  1.0000 0.1217032118
H   H180      1.0  0.44790  0.33350  0.44180  1.0000 0.1217032118
H   H181      1.0  0.35830  0.74390  0.94180  1.0000 0.1217032118
H   H182      1.0  0.66650  0.10830  0.11440  1.0000 0.1217032118
H   H183      1.0  0.99390  0.55210  0.88560  1.0000 0.1217032118
H   H184      1.0  0.80210  0.41650  0.05820  1.0000 0.1217032118
H   H185      1.0  0.88880  0.04390  0.49530  1.0000 0.1217032118
H   H186      1.0  0.64350  0.63880  0.34490  1.0000 0.1217032118
H   H187      1.0  0.29390  0.29860  0.65510  1.0000 0.1217032118
H   H188      1.0  0.54860  0.39350  0.50470  1.0000 0.1217032118
H   H189      1.0  0.36120  0.70610  0.00470  1.0000 0.1217032118
H   H190      1.0  0.60650  0.11120  0.15510  1.0000 0.1217032118
H   H191      1.0  0.95610  0.45140  0.84490  1.0000 0.1217032118
H   H192      1.0  0.70140  0.35650  0.99530  1.0000 0.1217032118
H   H193      1.0  0.76340  0.94070  0.22530  1.0000 0.1769185974
H   H194      1.0  0.78810  0.51340  0.32270  1.0000 0.1769185974
H   H195      1.0  0.19070  0.46540  0.67730  1.0000 0.1769185974
H   H196      1.0  0.71540  0.53810  0.77470  1.0000 0.1769185974
H   H197      1.0  0.48660  0.80930  0.27470  1.0000 0.1769185974
H   H198      1.0  0.46190  0.23660  0.17730  1.0000 0.1769185974
H   H199      1.0  0.05930  0.28460  0.82270  1.0000 0.1769185974
H   H200      1.0  0.53460  0.21190  0.72530  1.0000 0.1769185974
H   H201      1.0  0.75190  0.97680  0.25610  1.0000 0.1703889873
H   H202      1.0  0.74580  0.50190  0.27510  1.0000 0.1703889873
H   H203      1.0  0.22680  0.47070  0.72490  1.0000 0.1703889873
H   H204      1.0  0.72070  0.49580  0.74390  1.0000 0.1703889873
H   H205      1.0  0.49810  0.77320  0.24390  1.0000 0.1703889873
H   H206      1.0  0.50420  0.24810  0.22490  1.0000 0.1703889873
H   H207      1.0  0.02320  0.27930  0.77510  1.0000 0.1703889873
H   H208      1.0  0.52930  0.25420  0.75610  1.0000 0.1703889873
H   H209      1.0  0.67400  0.88310  0.22530  1.0000 0.1703889873
H   H210      1.0  0.69870  0.42400  0.29090  1.0000 0.1703889873
H   H211      1.0  0.13310  0.40780  0.70910  1.0000 0.1703889873
H   H212      1.0  0.65780  0.44870  0.77470  1.0000 0.1703889873
H   H213      1.0  0.57600  0.86690  0.27470  1.0000 0.1703889873
H   H214      1.0  0.55130  0.32600  0.20910  1.0000 0.1703889873
H   H215      1.0  0.11690  0.34220  0.79090  1.0000 0.1703889873
H   H216      1.0  0.59220  0.30130  0.72530  1.0000 0.1703889873
H   H217      1.0  0.21570  0.57260  0.99970  1.0000 0.1217032118
H   H218      1.0  0.46600  0.96570  0.14310  1.0000 0.1217032118
H   H219      1.0  0.82260  0.32290  0.85690  1.0000 0.1217032118
H   H220      1.0  0.57290  0.21600  0.00030  1.0000 0.1217032118
H   H221      1.0  0.03430  0.17740  0.50030  1.0000 0.1217032118
H   H222      1.0  0.78400  0.78430  0.35690  1.0000 0.1217032118
H   H223      1.0  0.42740  0.42710  0.64310  1.0000 0.1217032118
H   H224      1.0  0.67710  0.53400  0.49970  1.0000 0.1217032118
H   H225      1.0  0.17390  0.52190  0.06360  1.0000 0.1404180932
H   H226      1.0  0.36030  0.92390  0.15200  1.0000 0.1404180932
H   H227      1.0  0.77190  0.20830  0.84800  1.0000 0.1404180932
H   H228      1.0  0.45830  0.11030  0.93640  1.0000 0.1404180932
H   H229      1.0  0.07610  0.22810  0.43640  1.0000 0.1404180932
H   H230      1.0  0.88970  0.82610  0.34800  1.0000 0.1404180932
H   H231      1.0  0.47810  0.54170  0.65200  1.0000 0.1404180932
H   H232      1.0  0.79170  0.63970  0.56360  1.0000 0.1404180932
H   H233      1.0  0.05640  0.35560  0.91480  1.0000 0.1097593883
H   H234      1.0  0.39160  0.80640  0.20080  1.0000 0.1097593883
H   H235      1.0  0.60560  0.19080  0.79920  1.0000 0.1097593883
H   H236      1.0  0.44080  0.14160  0.08520  1.0000 0.1097593883
H   H237      1.0  0.19360  0.39440  0.58520  1.0000 0.1097593883
H   H238      1.0  0.85840  0.94360  0.29920  1.0000 0.1097593883
H   H239      1.0  0.64440  0.55920  0.70080  1.0000 0.1097593883
H   H240      1.0  0.80920  0.60840  0.41480  1.0000 0.1097593883
H   H241      1.0  0.01110  0.29840  0.97670  1.0000 0.1404180932
H   H242      1.0  0.28440  0.76110  0.21270  1.0000 0.1404180932
H   H243      1.0  0.54840  0.07170  0.78730  1.0000 0.1404180932
H   H244      1.0  0.32170  0.03440  0.02330  1.0000 0.1404180932
H   H245      1.0  0.23890  0.45160  0.52330  1.0000 0.1404180932
H   H246      1.0  0.96560  0.98890  0.28730  1.0000 0.1404180932
H   H247      1.0  0.70160  0.67830  0.71270  1.0000 0.1404180932
H   H248      1.0  0.92830  0.71560  0.47670  1.0000 0.1404180932
H   H249      1.0  0.10170  0.41140  0.09870  1.0000 0.1316354366
H   H250      1.0  0.25300  0.85170  0.19030  1.0000 0.1316354366
H   H251      1.0  0.66140  0.06270  0.80970  1.0000 0.1316354366
H   H252      1.0  0.31270  0.00300  0.90130  1.0000 0.1316354366
H   H253      1.0  0.14830  0.33860  0.40130  1.0000 0.1316354366
H   H254      1.0  0.99700  0.89830  0.30970  1.0000 0.1316354366
H   H255      1.0  0.58860  0.68730  0.69030  1.0000 0.1316354366
H   H256      1.0  0.93730  0.74700  0.59870  1.0000 0.1316354366
H   H257      1.0  0.05470  0.32940  0.06650  1.0000 0.1217032118
H   H258      1.0  0.23820  0.80470  0.22530  1.0000 0.1217032118
H   H259      1.0  0.57940  0.01290  0.77470  1.0000 0.1217032118
H   H260      1.0  0.26290  0.98820  0.93350  1.0000 0.1217032118
H   H261      1.0  0.19530  0.42060  0.43350  1.0000 0.1217032118
H   H262      1.0  0.01180  0.94530  0.27470  1.0000 0.1217032118
H   H263      1.0  0.67060  0.73710  0.72530  1.0000 0.1217032118
H   H264      1.0  0.98710  0.76180  0.56650  1.0000 0.1217032118
C   C1        1.0  0.00390  0.16687  0.33497  1.0000 0.2994860052
C   C2        1.0  0.91893  0.75390  0.33703  1.0000 0.2994860052
C   C3        1.0  0.41687  0.58190  0.66297  1.0000 0.2994860052
C   C4        1.0  0.83190  0.66893  0.66503  1.0000 0.2994860052
C   C5        1.0  0.24610  0.58313  0.16503  1.0000 0.2994860052
C   C6        1.0  0.33107  0.99610  0.16297  1.0000 0.2994860052
C   C7        1.0  0.83313  0.16810  0.83703  1.0000 0.2994860052
C   C8        1.0  0.41810  0.08107  0.83497  1.0000 0.2994860052
C   C9        1.0  0.06617  0.18540  0.33957  1.0000 -0.2353661096
C   C10       1.0  0.97660  0.81617  0.38077  1.0000 -0.2300854129
C   C11       1.0  0.43540  0.59583  0.61923  1.0000 -0.2353661096
C   C12       1.0  0.84583  0.72660  0.66043  1.0000 -0.2353661096
C   C13       1.0  0.18383  0.56460  0.16043  1.0000 -0.2353661096
C   C14       1.0  0.27340  0.93383  0.11923  1.0000 -0.2353661096
C   C15       1.0  0.81460  0.15417  0.88077  1.0000 -0.2300854129
C   C16       1.0  0.40417  0.02340  0.83957  1.0000 -0.2353661096
C   C17       1.0  0.12757  0.24210  0.31867  1.0000 -0.0630644498
C   C18       1.0  0.05890  0.87757  0.38547  1.0000 -0.0651412145
C   C19       1.0  0.49210  0.67343  0.61453  1.0000 -0.0630644498
C   C20       1.0  0.92343  0.80890  0.68133  1.0000 -0.0630644498
C   C21       1.0  0.12243  0.50790  0.18133  1.0000 -0.0630644498
C   C22       1.0  0.19110  0.87243  0.11453  1.0000 -0.0630644498
C   C23       1.0  0.75790  0.07657  0.88547  1.0000 -0.0630644498
C   C24       1.0  0.32657  0.94110  0.81867  1.0000 -0.0630644498
C   C25       1.0  0.12861  0.28030  0.29351  1.0000 -0.1480285027
C   C26       1.0  0.08510  0.87861  0.34831  1.0000 -0.1480285027
C   C27       1.0  0.53030  0.73679  0.65169  1.0000 -0.1480285027
C   C28       1.0  0.98679  0.83510  0.70649  1.0000 -0.1480285027
C   C29       1.0  0.12139  0.46970  0.20649  1.0000 -0.1480285027
C   C30       1.0  0.16490  0.87139  0.15169  1.0000 -0.1480285027
C   C31       1.0  0.71970  0.01321  0.84831  1.0000 -0.1480285027
C   C32       1.0  0.26321  0.91490  0.79351  1.0000 -0.1480285027
C   C33       1.0  0.06421  0.25590  0.28551  1.0000 -0.092610477
C   C34       1.0  0.02870  0.81421  0.30831  1.0000 -0.092610477
C   C35       1.0  0.50590  0.72039  0.69169  1.0000 -0.092610477
C   C36       1.0  0.97039  0.77870  0.71449  1.0000 -0.092610477
C   C37       1.0  0.18579  0.49410  0.21449  1.0000 -0.092610477
C   C38       1.0  0.22130  0.93579  0.19169  1.0000 -0.092610477
C   C39       1.0  0.74410  0.02961  0.80831  1.0000 -0.092610477
C   C40       1.0  0.27961  0.97130  0.78551  1.0000 -0.092610477
C   C41       1.0  0.00211  0.20113  0.30684  1.0000 -0.1579969148
C   C42       1.0  0.94527  0.75211  0.30098  1.0000 -0.1579969148
C   C43       1.0  0.45113  0.64429  0.69902  1.0000 -0.1579969148
C   C44       1.0  0.89429  0.69527  0.69316  1.0000 -0.1579969148
C   C45       1.0  0.24789  0.54887  0.19316  1.0000 -0.1579969148
C   C46       1.0  0.30473  0.99789  0.19902  1.0000 -0.1579969148
C   C47       1.0  0.79887  0.10571  0.80098  1.0000 -0.1579969148
C   C48       1.0  0.35571  0.05473  0.80684  1.0000 -0.1579969148
C   C49       1.0  0.93649  0.17975  0.29624  1.0000 0.4416554193
C   C50       1.0  0.89025  0.68649  0.25674  1.0000 0.4416554193
C   C51       1.0  0.42975  0.63351  0.74326  1.0000 0.4416554193
C   C52       1.0  0.88351  0.64025  0.70376  1.0000 0.4416554193
C   C53       1.0  0.31351  0.57025  0.20376  1.0000 0.4416554193
C   C54       1.0  0.35975  0.06351  0.24326  1.0000 0.4416554193
C   C55       1.0  0.82025  0.11649  0.75674  1.0000 0.4416554193
C   C56       1.0  0.36649  0.10975  0.79624  1.0000 0.4416554193
C   C57       1.0  0.77147  0.07699  0.33150  1.0000 0.5322733476
C   C58       1.0  0.68997  0.52147  0.19448  1.0000 0.5322733476
C   C59       1.0  0.32699  0.49549  0.80552  1.0000 0.5322733476
C   C60       1.0  0.74549  0.43997  0.66850  1.0000 0.5322733476
C   C61       1.0  0.47853  0.67301  0.16850  1.0000 0.5322733476
C   C62       1.0  0.56003  0.22853  0.30552  1.0000 0.5322733476
C   C63       1.0  0.92301  0.25451  0.69448  1.0000 0.5322733476
C   C64       1.0  0.50451  0.31003  0.83150  1.0000 0.5322733476
C   C65       1.0  0.70578  0.05766  0.32624  1.0000 -0.5484532402
C   C66       1.0  0.62954  0.45578  0.14812  1.0000 -0.5484532402
C   C67       1.0  0.30766  0.48142  0.85188  1.0000 -0.5484532402
C   C68       1.0  0.73142  0.37954  0.67376  1.0000 -0.5484532402
C   C69       1.0  0.54422  0.69234  0.17376  1.0000 -0.5484532402
C   C70       1.0  0.62046  0.29422  0.35188  1.0000 -0.5484532402
C   C71       1.0  0.94234  0.26858  0.64812  1.0000 -0.5484532402
C   C72       1.0  0.51858  0.37046  0.82624  1.0000 -0.5484532402
C   C73       1.0  0.82872  0.24905  0.27497  1.0000 0.2904739654
C   C74       1.0  0.80375  0.57872  0.07967  1.0000 0.2904739654
C   C75       1.0  0.49905  0.72408  0.92033  1.0000 0.2904739654
C   C76       1.0  0.97408  0.55375  0.72503  1.0000 0.2904739654
C   C77       1.0  0.42128  0.50095  0.22503  1.0000 0.2904739654
C   C78       1.0  0.44625  0.17128  0.42033  1.0000 0.2904739654
C   C79       1.0  0.75095  0.02592  0.57967  1.0000 0.2904739654
C   C80       1.0  0.27592  0.19625  0.77497  1.0000 0.2904739654
C   C81       1.0  0.87249  0.32286  0.30095  1.0000 -0.2187523927
C   C82       1.0  0.82154  0.62249  0.04963  1.0000 -0.2187523927
C   C83       1.0  0.57286  0.77191  0.95037  1.0000 -0.2187523927
C   C84       1.0  0.02191  0.57154  0.69905  1.0000 -0.2187523927
C   C85       1.0  0.37751  0.42714  0.19905  1.0000 -0.2187523927
C   C86       1.0  0.42846  0.12751  0.45037  1.0000 -0.2187523927
C   C87       1.0  0.67714  0.97809  0.54963  1.0000 -0.2187523927
C   C88       1.0  0.22809  0.17846  0.80095  1.0000 -0.2187523927
C   C89       1.0  0.83506  0.33381  0.30347  1.0000 -0.0630644498
C   C90       1.0  0.78159  0.58506  0.00125  1.0000 -0.0630644498
C   C91       1.0  0.58381  0.78034  0.99875  1.0000 -0.0630644498
C   C92       1.0  0.03034  0.53159  0.69653  1.0000 -0.0630644498
C   C93       1.0  0.41494  0.41619  0.19653  1.0000 -0.0630644498
C   C94       1.0  0.46841  0.16494  0.49875  1.0000 -0.0630644498
C   C95       1.0  0.66619  0.96966  0.50125  1.0000 -0.0630644498
C   C96       1.0  0.21966  0.21841  0.80347  1.0000 -0.0630644498
C   C97       1.0  0.75319  0.27097  0.28056  1.0000 -0.1391425864
C   C98       1.0  0.72263  0.50319  0.98222  1.0000 -0.1391425864
C   C99       1.0  0.52097  0.74041  0.01778  1.0000 -0.1391425864
C   C100      1.0  0.99041  0.47263  0.71944  1.0000 -0.1391425864
C   C101      1.0  0.49681  0.47903  0.21944  1.0000 -0.1391425864
C   C102      1.0  0.52737  0.24681  0.51778  1.0000 -0.1391425864
C   C103      1.0  0.72903  0.00959  0.48222  1.0000 -0.1391425864
C   C104      1.0  0.25959  0.27737  0.78056  1.0000 -0.1391425864
C   C105      1.0  0.70955  0.19808  0.25423  1.0000 -0.078696862
C   C106      1.0  0.70532  0.45955  0.01147  1.0000 -0.078696862
C   C107      1.0  0.44808  0.69385  0.98853  1.0000 -0.078696862
C   C108      1.0  0.94385  0.45532  0.74577  1.0000 -0.078696862
C   C109      1.0  0.54045  0.55192  0.24577  1.0000 -0.078696862
C   C110      1.0  0.54468  0.29045  0.48853  1.0000 -0.078696862
C   C111      1.0  0.80192  0.05615  0.51147  1.0000 -0.078696862
C   C112      1.0  0.30615  0.29468  0.75423  1.0000 -0.078696862
C   C113      1.0  0.74609  0.18571  0.25080  1.0000 -0.1579969148
C   C114      1.0  0.74529  0.49609  0.06038  1.0000 -0.1579969148
C   C115      1.0  0.43571  0.68491  0.93962  1.0000 -0.1579969148
C   C116      1.0  0.93491  0.49529  0.74920  1.0000 -0.1579969148
C   C117      1.0  0.50391  0.56429  0.24920  1.0000 -0.1579969148
C   C118      1.0  0.50471  0.25391  0.43962  1.0000 -0.1579969148
C   C119      1.0  0.81429  0.06509  0.56038  1.0000 -0.1579969148
C   C120      1.0  0.31509  0.25471  0.75080  1.0000 -0.1579969148
C   C121      1.0  0.69531  0.10658  0.21999  1.0000 0.4416554193
C   C122      1.0  0.72532  0.44531  0.08873  1.0000 0.4416554193
C   C123      1.0  0.35658  0.63659  0.91127  1.0000 0.4416554193
C   C124      1.0  0.88659  0.47532  0.78001  1.0000 0.4416554193
C   C125      1.0  0.55469  0.64342  0.28001  1.0000 0.4416554193
C   C126      1.0  0.52468  0.30469  0.41127  1.0000 0.4416554193
C   C127      1.0  0.89342  0.11341  0.58873  1.0000 0.4416554193
C   C128      1.0  0.36341  0.27468  0.71999  1.0000 0.4416554193
C   C129      1.0  0.71383  0.01321  0.17484  1.0000 0.5243202164
C   C130      1.0  0.78899  0.46383  0.20062  1.0000 0.5243202164
C   C131      1.0  0.26321  0.58837  0.79938  1.0000 0.5322733476
C   C132      1.0  0.83837  0.53899  0.82516  1.0000 0.5243202164
C   C133      1.0  0.53617  0.73679  0.32516  1.0000 0.5243202164
C   C134      1.0  0.46101  0.28617  0.29938  1.0000 0.5322733476
C   C135      1.0  0.98679  0.16163  0.70062  1.0000 0.5243202164
C   C136      1.0  0.41163  0.21101  0.67484  1.0000 0.5243202164
C   C137      1.0  0.67047  0.94040  0.13987  1.0000 -0.5597817214
C   C138      1.0  0.78060  0.42047  0.23007  1.0000 -0.5597817214
C   C139      1.0  0.19040  0.55053  0.76993  1.0000 -0.5597817214
C   C140      1.0  0.80053  0.53060  0.86013  1.0000 -0.5597817214
C   C141      1.0  0.57953  0.80960  0.36013  1.0000 -0.5597817214
C   C142      1.0  0.46940  0.32953  0.26993  1.0000 -0.5597817214
C   C143      1.0  0.05960  0.19947  0.73007  1.0000 -0.5597817214
C   C144      1.0  0.44947  0.21940  0.63987  1.0000 -0.5597817214
C   C145      1.0  0.93438  0.22380  0.16598  1.0000 0.0526298229
C   C146      1.0  0.01840  0.68438  0.21058  1.0000 0.0526298229
C   C147      1.0  0.47380  0.80782  0.78942  1.0000 0.0526298229
C   C148      1.0  0.05782  0.76840  0.83402  1.0000 0.0526298229
C   C149      1.0  0.31562  0.52620  0.33402  1.0000 0.0526298229
C   C150      1.0  0.23160  0.06562  0.28942  1.0000 0.0526298229
C   C151      1.0  0.77620  0.94218  0.71058  1.0000 0.0526298229
C   C152      1.0  0.19218  0.98160  0.66598  1.0000 0.0526298229
C   C153      1.0  0.96430  0.25530  0.12820  1.0000 -0.2187523927
C   C154      1.0  0.08610  0.71430  0.20900  1.0000 -0.2187523927
C   C155      1.0  0.50530  0.87710  0.79100  1.0000 -0.2187523927
C   C156      1.0  0.12710  0.83610  0.87180  1.0000 -0.2187523927
C   C157      1.0  0.28570  0.49470  0.37180  1.0000 -0.2187523927
C   C158      1.0  0.16390  0.03570  0.29100  1.0000 -0.2187523927
C   C159      1.0  0.74470  0.87290  0.70900  1.0000 -0.2187523927
C   C160      1.0  0.12290  0.91390  0.62820  1.0000 -0.2187523927
C   C161      1.0  0.87342  0.23940  0.15842  1.0000 0.1014827954
C   C162      1.0  0.96500  0.62342  0.13402  1.0000 0.1014827954
C   C163      1.0  0.48940  0.83098  0.86598  1.0000 0.0924524998
C   C164      1.0  0.08098  0.71500  0.84158  1.0000 0.0924524998
C   C165      1.0  0.37658  0.51060  0.34158  1.0000 0.1014827954
C   C166      1.0  0.28500  0.12658  0.36598  1.0000 0.0924524998
C   C167      1.0  0.76060  0.91902  0.63402  1.0000 0.1014827954
C   C168      1.0  0.16902  0.03500  0.65842  1.0000 0.1014827954
C   C169      1.0  0.90043  0.26860  0.11983  1.0000 -0.2014921303
C   C170      1.0  0.03060  0.65043  0.13183  1.0000 -0.2014921303
C   C171      1.0  0.51860  0.89877  0.86817  1.0000 -0.2014921303
C   C172      1.0  0.14877  0.78060  0.88017  1.0000 -0.2014921303
C   C173      1.0  0.34957  0.48140  0.38017  1.0000 -0.2014921303
C   C174      1.0  0.21940  0.09957  0.36817  1.0000 -0.2014921303
C   C175      1.0  0.73140  0.85123  0.63183  1.0000 -0.2014921303
C   C176      1.0  0.10123  0.96940  0.61983  1.0000 -0.2014921303
C   C177      1.0  0.95111  0.28610  0.10821  1.0000 0.1470971084
C   C178      1.0  0.09290  0.70111  0.16501  1.0000 0.1470971084
C   C179      1.0  0.53610  0.92789  0.83499  1.0000 0.1470971084
C   C180      1.0  0.17789  0.84290  0.89179  1.0000 0.1470971084
C   C181      1.0  0.29889  0.46390  0.39179  1.0000 0.1470971084
C   C182      1.0  0.15710  0.04889  0.33499  1.0000 0.1470971084
C   C183      1.0  0.71390  0.82211  0.66501  1.0000 0.1470971084
C   C184      1.0  0.07211  0.90710  0.60821  1.0000 0.1470971084
C   C185      1.0  0.98510  0.32520  0.06890  1.0000 -0.2187523927
C   C186      1.0  0.16620  0.73510  0.15990  1.0000 -0.2187523927
C   C187      1.0  0.57520  0.00630  0.84010  1.0000 -0.2187523927
C   C188      1.0  0.25630  0.91620  0.93110  1.0000 -0.2187523927
C   C189      1.0  0.26490  0.42480  0.43110  1.0000 -0.2187523927
C   C190      1.0  0.08380  0.01490  0.34010  1.0000 -0.2187523927
C   C191      1.0  0.67480  0.74370  0.65990  1.0000 -0.2187523927
C   C192      1.0  0.99370  0.83380  0.56890  1.0000 -0.2187523927
C   C193      1.0  0.75910  0.85760  0.43530  1.0000 0.2994860052
C   C194      1.0  0.57380  0.50910  0.40150  1.0000 0.2994860052
C   C195      1.0  0.10760  0.17230  0.59850  1.0000 0.2994860052
C   C196      1.0  0.42230  0.32380  0.56470  1.0000 0.2994860052
C   C197      1.0  0.49090  0.89240  0.06470  1.0000 0.2994860052
C   C198      1.0  0.67620  0.24090  0.09850  1.0000 0.2994860052
C   C199      1.0  0.14240  0.57770  0.90150  1.0000 0.2994860052
C   C200      1.0  0.82770  0.42620  0.93530  1.0000 0.2994860052
C   C201      1.0  0.76254  0.83598  0.47452  1.0000 -0.2082077316
C   C202      1.0  0.53802  0.51254  0.42656  1.0000 -0.2082077316
C   C203      1.0  0.08598  0.11146  0.57344  1.0000 -0.2082077316
C   C204      1.0  0.36146  0.28802  0.52548  1.0000 -0.2082077316
C   C205      1.0  0.48746  0.91402  0.02548  1.0000 -0.2082077316
C   C206      1.0  0.71198  0.23746  0.07344  1.0000 -0.2082077316
C   C207      1.0  0.16402  0.63854  0.92656  1.0000 -0.2082077316
C   C208      1.0  0.88854  0.46198  0.97452  1.0000 -0.2082077316
C   C209      1.0  0.81030  0.88971  0.51961  1.0000 -0.078696862
C   C210      1.0  0.54069  0.56030  0.42059  1.0000 -0.078696862
C   C211      1.0  0.13971  0.12010  0.57941  1.0000 -0.078696862
C   C212      1.0  0.37010  0.29069  0.48039  1.0000 -0.078696862
C   C213      1.0  0.43970  0.86029  0.98039  1.0000 -0.078696862
C   C214      1.0  0.70931  0.18970  0.07941  1.0000 -0.078696862
C   C215      1.0  0.11029  0.62990  0.92059  1.0000 -0.078696862
C   C216      1.0  0.87990  0.45931  0.01961  1.0000 -0.078696862
C   C217      1.0  0.85833  0.96867  0.52740  1.0000 -0.1278002658
C   C218      1.0  0.58093  0.60833  0.38966  1.0000 -0.1278002658
C   C219      1.0  0.21867  0.19127  0.61034  1.0000 -0.1278002658
C   C220      1.0  0.44127  0.33093  0.47260  1.0000 -0.1278002658
C   C221      1.0  0.39167  0.78133  0.97260  1.0000 -0.1278002658
C   C222      1.0  0.66907  0.14167  0.11034  1.0000 -0.1278002658
C   C223      1.0  0.03133  0.55873  0.88966  1.0000 -0.1278002658
C   C224      1.0  0.80873  0.41907  0.02740  1.0000 -0.1278002658
C   C225      1.0  0.85597  0.99032  0.49009  1.0000 -0.078696862
C   C226      1.0  0.61588  0.60597  0.36565  1.0000 -0.078696862
C   C227      1.0  0.24032  0.25023  0.63435  1.0000 -0.078696862
C   C228      1.0  0.50023  0.36588  0.50991  1.0000 -0.078696862
C   C229      1.0  0.39403  0.75968  0.00991  1.0000 -0.078696862
C   C230      1.0  0.63412  0.14403  0.13435  1.0000 -0.078696862
C   C231      1.0  0.00968  0.49977  0.86565  1.0000 -0.078696862
C   C232      1.0  0.74977  0.38412  0.99009  1.0000 -0.078696862
C   C233      1.0  0.80726  0.93697  0.44423  1.0000 -0.1391425864
C   C234      1.0  0.61303  0.55726  0.37029  1.0000 -0.1391425864
C   C235      1.0  0.18697  0.24274  0.62971  1.0000 -0.1391425864
C   C236      1.0  0.49274  0.36303  0.55577  1.0000 -0.1391425864
C   C237      1.0  0.44274  0.81303  0.05577  1.0000 -0.1391425864
C   C238      1.0  0.63697  0.19274  0.12971  1.0000 -0.1391425864
C   C239      1.0  0.06303  0.50726  0.87029  1.0000 -0.1391425864
C   C240      1.0  0.75726  0.38697  0.94423  1.0000 -0.1391425864
C   C241      1.0  0.80877  0.96700  0.40597  1.0000 0.4578100904
C   C242      1.0  0.65280  0.55877  0.34177  1.0000 0.4578100904
C   C243      1.0  0.21700  0.31103  0.65823  1.0000 0.4578100904
C   C244      1.0  0.56103  0.40280  0.59403  1.0000 0.4578100904
C   C245      1.0  0.44123  0.78300  0.09403  1.0000 0.4578100904
C   C246      1.0  0.59720  0.19123  0.15823  1.0000 0.4578100904
C   C247      1.0  0.03300  0.43897  0.84177  1.0000 0.4578100904
C   C248      1.0  0.68897  0.34720  0.90597  1.0000 0.4578100904
C   C249      1.0  0.73622  0.90642  0.28584  1.0000 0.5014545038
C   C250      1.0  0.70038  0.48622  0.32980  1.0000 0.5014545038
C   C251      1.0  0.15642  0.37058  0.67020  1.0000 0.5014545038
C   C252      1.0  0.62058  0.45038  0.71416  1.0000 0.5014545038
C   C253      1.0  0.51378  0.84358  0.21416  1.0000 0.5014545038
C   C254      1.0  0.54962  0.26378  0.17020  1.0000 0.5014545038
C   C255      1.0  0.09358  0.37942  0.82980  1.0000 0.5014545038
C   C256      1.0  0.62942  0.29962  0.78584  1.0000 0.5014545038
C   C257      1.0  0.73089  0.92864  0.24453  1.0000 -0.578982106
C   C258      1.0  0.73636  0.48089  0.30225  1.0000 -0.578982106
C   C259      1.0  0.17864  0.43411  0.69775  1.0000 -0.578982106
C   C260      1.0  0.68411  0.48636  0.75547  1.0000 -0.578982106
C   C261      1.0  0.51911  0.82136  0.25547  1.0000 -0.578982106
C   C262      1.0  0.51364  0.26911  0.19775  1.0000 -0.578982106
C   C263      1.0  0.07136  0.31589  0.80225  1.0000 -0.578982106
C   C264      1.0  0.56589  0.26364  0.74453  1.0000 -0.578982106
C   C265      1.0  0.17391  0.51598  0.99489  1.0000 0.1014827954
C   C266      1.0  0.42902  0.92391  0.15793  1.0000 0.1014827954
C   C267      1.0  0.76598  0.27109  0.84207  1.0000 0.1014827954
C   C268      1.0  0.52109  0.17902  0.00511  1.0000 0.1014827954
C   C269      1.0  0.07609  0.23402  0.50511  1.0000 0.1014827954
C   C270      1.0  0.82098  0.82609  0.34207  1.0000 0.1014827954
C   C271      1.0  0.48402  0.47891  0.65793  1.0000 0.1014827954
C   C272      1.0  0.72891  0.57098  0.49489  1.0000 0.1014827954
C   C273      1.0  0.14978  0.48656  0.03334  1.0000 -0.1932792426
C   C274      1.0  0.36644  0.89978  0.16322  1.0000 -0.1932792426
C   C275      1.0  0.73656  0.20322  0.83678  1.0000 -0.1932792426
C   C276      1.0  0.45322  0.11644  0.96666  1.0000 -0.1932792426
C   C277      1.0  0.10022  0.26344  0.46666  1.0000 -0.1932792426
C   C278      1.0  0.88356  0.85022  0.33678  1.0000 -0.1932792426
C   C279      1.0  0.51344  0.54678  0.66322  1.0000 -0.1932792426
C   C280      1.0  0.79678  0.63356  0.53334  1.0000 -0.1932792426
C   C281      1.0  0.08185  0.39034  0.94579  1.0000 0.0924524998
C   C282      1.0  0.38606  0.83185  0.19151  1.0000 0.0924524998
C   C283      1.0  0.64034  0.19455  0.80849  1.0000 0.0924524998
C   C284      1.0  0.44455  0.13606  0.05421  1.0000 0.0924524998
C   C285      1.0  0.16815  0.35966  0.55421  1.0000 0.0924524998
C   C286      1.0  0.86394  0.91815  0.30849  1.0000 0.0924524998
C   C287      1.0  0.60966  0.55545  0.69151  1.0000 0.0924524998
C   C288      1.0  0.80545  0.61394  0.44579  1.0000 0.0924524998
C   C289      1.0  0.05400  0.35530  0.98250  1.0000 -0.2014921303
C   C290      1.0  0.32150  0.80400  0.19870  1.0000 -0.2014921303
C   C291      1.0  0.60530  0.12280  0.80130  1.0000 -0.2014921303
C   C292      1.0  0.37280  0.07150  0.01750  1.0000 -0.2014921303
C   C293      1.0  0.19600  0.39470  0.51750  1.0000 -0.2014921303
C   C294      1.0  0.92850  0.94600  0.30130  1.0000 -0.2014921303
C   C295      1.0  0.64470  0.62720  0.69870  1.0000 -0.2014921303
C   C296      1.0  0.87720  0.67850  0.48250  1.0000 -0.2014921303
C   C297      1.0  0.08931  0.40412  0.02723  1.0000 0.1703889873
C   C298      1.0  0.31208  0.83931  0.18519  1.0000 0.1703889873
C   C299      1.0  0.65412  0.12689  0.81481  1.0000 0.1703889873
C   C300      1.0  0.37689  0.06208  0.97277  1.0000 0.1703889873
C   C301      1.0  0.16069  0.34588  0.47277  1.0000 0.1703889873
C   C302      1.0  0.93792  0.91069  0.31481  1.0000 0.1703889873
C   C303      1.0  0.59588  0.62311  0.68519  1.0000 0.1703889873
C   C304      1.0  0.87311  0.68792  0.52723  1.0000 0.1703889873
C   C305      1.0  0.06010  0.36730  0.06840  1.0000 -0.2300854129
C   C306      1.0  0.24170  0.81010  0.19280  1.0000 -0.2300854129
C   C307      1.0  0.61730  0.04890  0.80720  1.0000 -0.2300854129
C   C308      1.0  0.29890  0.99170  0.93160  1.0000 -0.2300854129
C   C309      1.0  0.18990  0.38270  0.43160  1.0000 -0.2300854129
C   C310      1.0  0.00830  0.93990  0.30720  1.0000 -0.2300854129
C   C311      1.0  0.63270  0.70110  0.69280  1.0000 -0.2300854129
C   C312      1.0  0.95110  0.75830  0.56840  1.0000 -0.2300854129
N   N1        1.0  0.87851  0.13038  0.31707  1.0000 -0.3463464775
N   N2        1.0  0.81144  0.62851  0.24813  1.0000 -0.3463464775
N   N3        1.0  0.38038  0.56331  0.75187  1.0000 -0.3463464775
N   N4        1.0  0.81331  0.56144  0.68293  1.0000 -0.3463464775
N   N5        1.0  0.37149  0.61962  0.18293  1.0000 -0.3463464775
N   N6        1.0  0.43856  0.12149  0.25187  1.0000 -0.3463464775
N   N7        1.0  0.86962  0.18669  0.74813  1.0000 -0.3463464775
N   N8        1.0  0.43669  0.18856  0.81707  1.0000 -0.3463464775
N   N9        1.0  0.81951  0.11641  0.30480  1.0000 -0.3296069861
N   N10       1.0  0.76471  0.56951  0.20310  1.0000 -0.3296069861
N   N11       1.0  0.36641  0.56161  0.79690  1.0000 -0.3296069861
N   N12       1.0  0.81161  0.51471  0.69520  1.0000 -0.3296069861
N   N13       1.0  0.43049  0.63359  0.19520  1.0000 -0.3296069861
N   N14       1.0  0.48529  0.18049  0.29690  1.0000 -0.3296069861
N   N15       1.0  0.88359  0.18839  0.70310  1.0000 -0.3296069861
N   N16       1.0  0.43839  0.23529  0.80480  1.0000 -0.3296069861
N   N17       1.0  0.72948  0.09573  0.21133  1.0000 -0.3296069861
N   N18       1.0  0.76815  0.47948  0.13375  1.0000 -0.3296069861
N   N19       1.0  0.34573  0.63440  0.86625  1.0000 -0.3296069861
N   N20       1.0  0.88440  0.51815  0.78867  1.0000 -0.3296069861
N   N21       1.0  0.52052  0.65427  0.28867  1.0000 -0.3296069861
N   N22       1.0  0.48185  0.27052  0.36625  1.0000 -0.3296069861
N   N23       1.0  0.90427  0.11560  0.63375  1.0000 -0.3296069861
N   N24       1.0  0.36560  0.23185  0.71133  1.0000 -0.3296069861
N   N25       1.0  0.67698  0.02119  0.17843  1.0000 -0.3107078136
N   N26       1.0  0.74855  0.42698  0.15579  1.0000 -0.3107078136
N   N27       1.0  0.27119  0.59276  0.84421  1.0000 -0.3107078136
N   N28       1.0  0.84276  0.49855  0.82157  1.0000 -0.3107078136
N   N29       1.0  0.57302  0.72881  0.32157  1.0000 -0.3107078136
N   N30       1.0  0.50145  0.32302  0.34421  1.0000 -0.3107078136
N   N31       1.0  0.97881  0.15724  0.65579  1.0000 -0.3107078136
N   N32       1.0  0.40724  0.25145  0.67843  1.0000 -0.3107078136
N   N33       1.0  0.89212  0.22250  0.18362  1.0000 -0.2082077316
N   N34       1.0  0.95850  0.64212  0.16962  1.0000 -0.2082077316
N   N35       1.0  0.47250  0.78888  0.83038  1.0000 -0.2082077316
N   N36       1.0  0.03888  0.70850  0.81638  1.0000 -0.2082077316
N   N37       1.0  0.35788  0.52750  0.31638  1.0000 -0.2082077316
N   N38       1.0  0.29150  0.10788  0.33038  1.0000 -0.2082077316
N   N39       1.0  0.77750  0.96112  0.66962  1.0000 -0.2082077316
N   N40       1.0  0.21112  0.04150  0.68362  1.0000 -0.2082077316
N   N41       1.0  0.76720  0.91910  0.36164  1.0000 -0.3408853733
N   N42       1.0  0.65556  0.51720  0.34810  1.0000 -0.3408853733
N   N43       1.0  0.16910  0.30746  0.65190  1.0000 -0.3408853733
N   N44       1.0  0.55746  0.40556  0.63836  1.0000 -0.3408853733
N   N45       1.0  0.48280  0.83090  0.13836  1.0000 -0.3408853733
N   N46       1.0  0.59444  0.23280  0.15190  1.0000 -0.3408853733
N   N47       1.0  0.08090  0.44254  0.84810  1.0000 -0.3408853733
N   N48       1.0  0.69254  0.34444  0.86164  1.0000 -0.3408853733
N   N49       1.0  0.77426  0.95474  0.32820  1.0000 -0.315931587
N   N50       1.0  0.69606  0.52426  0.31952  1.0000 -0.315931587
N   N51       1.0  0.20474  0.37654  0.68048  1.0000 -0.315931587
N   N52       1.0  0.62654  0.44606  0.67180  1.0000 -0.315931587
N   N53       1.0  0.47574  0.79526  0.17180  1.0000 -0.315931587
N   N54       1.0  0.55394  0.22574  0.18048  1.0000 -0.315931587
N   N55       1.0  0.04526  0.37346  0.81952  1.0000 -0.315931587
N   N56       1.0  0.62346  0.30394  0.82820  1.0000 -0.315931587
N   N57       1.0  0.14221  0.46986  0.95145  1.0000 -0.2300854129
N   N58       1.0  0.44076  0.89221  0.17235  1.0000 -0.2300854129
N   N59       1.0  0.71986  0.26841  0.82765  1.0000 -0.2300854129
N   N60       1.0  0.51841  0.19076  0.04855  1.0000 -0.2300854129
N   N61       1.0  0.10779  0.28014  0.54855  1.0000 -0.2300854129
N   N62       1.0  0.80924  0.85779  0.32765  1.0000 -0.2300854129
N   N63       1.0  0.53014  0.48159  0.67235  1.0000 -0.2300854129
N   N64       1.0  0.73159  0.55924  0.45145  1.0000 -0.2300854129
O   O1        1.0  0.95324  0.11996  0.36020  1.0000 -0.4914827456
O   O2        1.0  0.84304  0.70324  0.33328  1.0000 -0.4914827456
O   O3        1.0  0.36996  0.50976  0.66667  1.0000 -0.4914827456
O   O4        1.0  0.75976  0.59304  0.63980  1.0000 -0.4914827456
O   O5        1.0  0.29676  0.63004  0.13980  1.0000 -0.4914827456
O   O6        1.0  0.40696  0.04676  0.16672  1.0000 -0.4914827456
O   O7        1.0  0.88004  0.24024  0.83328  1.0000 -0.4914827456
O   O8        1.0  0.49024  0.15696  0.86020  1.0000 -0.4914827456
O   O9        1.0  0.93755  0.21014  0.26745  1.0000 -0.4690838655
O   O10       1.0  0.92010  0.68755  0.22741  1.0000 -0.4690838655
O   O11       1.0  0.46014  0.69269  0.77259  1.0000 -0.4690838655
O   O12       1.0  0.94269  0.67010  0.73255  1.0000 -0.4690838655
O   O13       1.0  0.31245  0.53986  0.23255  1.0000 -0.4690838655
O   O14       1.0  0.32990  0.06245  0.27259  1.0000 -0.4690838655
O   O15       1.0  0.78986  0.05731  0.72741  1.0000 -0.4690838655
O   O16       1.0  0.30731  0.07990  0.76745  1.0000 -0.4690838655
O   O17       1.0  0.77865  0.05478  0.36375  1.0000 -0.5188334049
O   O18       1.0  0.66490  0.52865  0.22387  1.0000 -0.5188334049
O   O19       1.0  0.30478  0.44103  0.77613  1.0000 -0.5188334049
O   O20       1.0  0.69103  0.41490  0.63625  1.0000 -0.5188334049
O   O21       1.0  0.47135  0.69522  0.13625  1.0000 -0.5188334049
O   O22       1.0  0.58510  0.22135  0.27613  1.0000 -0.5188334049
O   O23       1.0  0.94522  0.30897  0.72387  1.0000 -0.5188334049
O   O24       1.0  0.55897  0.33510  0.86375  1.0000 -0.5188334049
O   O25       1.0  0.86942  0.24386  0.27446  1.0000 -0.4690838655
O   O26       1.0  0.84496  0.61942  0.12556  1.0000 -0.4690838655
O   O27       1.0  0.49386  0.71940  0.87444  1.0000 -0.4690838655
O   O28       1.0  0.96940  0.59496  0.72554  1.0000 -0.4690838655
O   O29       1.0  0.38058  0.50614  0.22554  1.0000 -0.4690838655
O   O30       1.0  0.40504  0.13058  0.37444  1.0000 -0.4690838655
O   O31       1.0  0.75614  0.03060  0.62556  1.0000 -0.4690838655
O   O32       1.0  0.28060  0.15504  0.77446  1.0000 -0.4690838655
O   O33       1.0  0.61874  0.04973  0.20173  1.0000 -0.458216636
O   O34       1.0  0.66701  0.36874  0.06901  1.0000 -0.458216636
O   O35       1.0  0.29973  0.59800  0.93099  1.0000 -0.458216636
O   O36       1.0  0.84800  0.41701  0.79827  1.0000 -0.458216636
O   O37       1.0  0.63126  0.70027  0.29827  1.0000 -0.458216636
O   O38       1.0  0.58299  0.38126  0.43099  1.0000 -0.458216636
O   O39       1.0  0.95027  0.15200  0.56901  1.0000 -0.458216636
O   O40       1.0  0.40200  0.33299  0.70173  1.0000 -0.458216636
O   O41       1.0  0.78769  0.06712  0.20047  1.0000 -0.4811908047
O   O42       1.0  0.83722  0.53769  0.22057  1.0000 -0.4811908047
O   O43       1.0  0.31712  0.61665  0.77943  1.0000 -0.4811908047
O   O44       1.0  0.86665  0.58722  0.79953  1.0000 -0.4811908047
O   O45       1.0  0.46231  0.68288  0.29953  1.0000 -0.4811908047
O   O46       1.0  0.41278  0.21231  0.27943  1.0000 -0.4914827456
O   O47       1.0  0.93288  0.13335  0.72057  1.0000 -0.4811908047
O   O48       1.0  0.38335  0.16278  0.70047  1.0000 -0.4811908047
O   O49       1.0  0.71143  0.80143  0.39346  1.0000 -0.4690838655
O   O50       1.0  0.56797  0.46143  0.41000  1.0000 -0.4811908047
O   O51       1.0  0.05143  0.15797  0.59000  1.0000 -0.4811908047
O   O52       1.0  0.40797  0.31797  0.60654  1.0000 -0.4690838655
O   O53       1.0  0.53857  0.94857  0.10654  1.0000 -0.4811908047
O   O54       1.0  0.68203  0.28857  0.09000  1.0000 -0.4811908047
O   O55       1.0  0.19857  0.59203  0.91000  1.0000 -0.4690838655
O   O56       1.0  0.84203  0.43203  0.89346  1.0000 -0.4690838655
O   O57       1.0  0.85144  0.03884  0.41708  1.0000 -0.4690838655
O   O58       1.0  0.68436  0.60144  0.31260  1.0000 -0.4690838655
O   O59       1.0  0.28884  0.37176  0.68740  1.0000 -0.4690838655
O   O60       1.0  0.62176  0.43436  0.58292  1.0000 -0.4690838655
O   O61       1.0  0.39856  0.71116  0.08292  1.0000 -0.4690838655
O   O62       1.0  0.56564  0.14856  0.18740  1.0000 -0.4690838655
O   O63       1.0  0.96116  0.37824  0.81260  1.0000 -0.4690838655
O   O64       1.0  0.62824  0.31564  0.91708  1.0000 -0.4690838655
O   O65       1.0  0.69924  0.83669  0.27709  1.0000 -0.4914827456
O   O66       1.0  0.67215  0.44924  0.36255  1.0000 -0.4914827456
O   O67       1.0  0.08669  0.30960  0.63745  1.0000 -0.4914827456
O   O68       1.0  0.55960  0.42215  0.72291  1.0000 -0.4914827456
O   O69       1.0  0.55076  0.91331  0.22291  1.0000 -0.4914827456
O   O70       1.0  0.57785  0.30076  0.13745  1.0000 -0.4914827456
O   O71       1.0  0.16331  0.44040  0.86255  1.0000 -0.4914827456
O   O72       1.0  0.69040  0.32785  0.77709  1.0000 -0.4914827456
