# DDEC6 charges by PACMAN v1.3 (https://github.com/mtap-research/PACMAN-charge/)
data_2005[Fe][bpq]3[ASR]1_pacman
_symmetry_space_group_name_H-M   'P 1'
_cell_length_a   11.09690000
_cell_length_b   11.09690000
_cell_length_c   6.88900000
_cell_angle_alpha   74.20180000
_cell_angle_beta   105.79800000
_cell_angle_gamma   120.14200000
_symmetry_Int_Tables_number   1
_chemical_formula_structural   FeH4C8O5
_chemical_formula_sum   'Fe2 H8 C16 O10'
_cell_volume   696.47477195
_cell_formula_units_Z   2
loop_
 _symmetry_equiv_pos_site_id
 _symmetry_equiv_pos_as_xyz
  1  'x, y, z'
loop_
 _atom_site_type_symbol
 _atom_site_label
 _atom_site_symmetry_multiplicity
 _atom_site_fract_x
 _atom_site_fract_y
 _atom_site_fract_z
 _atom_site_occupancy
 _atom_site_charge
Fe  Fe1  1  0.00000000  0.00000000  0.50000000  1.0 1.3308475109
Fe  Fe2  1  0.00000000  0.00000000  0.00000000  1.0 1.3308475109
H  H1  1  0.59930000  0.01690000  0.83740000  1.0 0.1319588216
H  H2  1  0.01690000  0.59930000  0.66260000  1.0 0.1319588216
H  H3  1  0.40070000  0.98310000  0.16260000  1.0 0.1319588216
H  H4  1  0.98310000  0.40070000  0.33740000  1.0 0.1319588216
H  H5  1  0.60420000  0.96560000  0.28760000  1.0 0.1382626536
H  H6  1  0.96560000  0.60420000  0.21240000  1.0 0.1382626536
H  H7  1  0.39580000  0.03440000  0.71240000  1.0 0.1382626536
H  H8  1  0.03440000  0.39580000  0.78760000  1.0 0.1382626536
C  C1  1  0.62390000  0.98690000  0.57810000  1.0 -0.0176476153
C  C2  1  0.98690000  0.62390000  0.92190000  1.0 -0.0176476153
C  C3  1  0.37610000  0.01310000  0.42190000  1.0 -0.0176476153
C  C4  1  0.01310000  0.37610000  0.07810000  1.0 -0.0176476153
C  C5  1  0.55910000  0.00950000  0.70100000  1.0 -0.0964767804
C  C6  1  0.00950000  0.55910000  0.79900000  1.0 -0.0964767804
C  C7  1  0.44090000  0.99050000  0.29900000  1.0 -0.0964767804
C  C8  1  0.99050000  0.44090000  0.20100000  1.0 -0.0964767804
C  C9  1  0.75750000  0.97450000  0.65650000  1.0 0.5884192379
C  C10  1  0.97450000  0.75750000  0.84350000  1.0 0.5884192379
C  C11  1  0.24250000  0.02550000  0.34350000  1.0 0.5884192379
C  C12  1  0.02550000  0.24250000  0.15650000  1.0 0.5884192379
C  C13  1  0.56200000  0.97900000  0.37400000  1.0 -0.0964767804
C  C14  1  0.97900000  0.56200000  0.12600000  1.0 -0.0964767804
C  C15  1  0.43800000  0.02100000  0.62600000  1.0 -0.0964767804
C  C16  1  0.02100000  0.43800000  0.87400000  1.0 -0.0964767804
O  O1  1  0.91820000  0.91820000  0.25000000  1.0 -0.6075405089
O  O2  1  0.08180000  0.08180000  0.75000000  1.0 -0.6075405089
O  O3  1  0.80280000  0.94520000  0.53910000  1.0 -0.4957615344
O  O4  1  0.94520000  0.80280000  0.96090000  1.0 -0.4957615344
O  O5  1  0.19720000  0.05480000  0.46090000  1.0 -0.4957615344
O  O6  1  0.05480000  0.19720000  0.03910000  1.0 -0.4957615344
O  O7  1  0.81060000  0.98820000  0.84370000  1.0 -0.5139315037
O  O8  1  0.98820000  0.81060000  0.65630000  1.0 -0.5139315037
O  O9  1  0.18940000  0.01180000  0.15630000  1.0 -0.5139315037
O  O10  1  0.01180000  0.18940000  0.34370000  1.0 -0.5139315037
