# DDEC6 charges by PACMAN v1.1 (https://github.com/mtap-research/PACMAN-charge/)
data_2005[Co][srs]3[ASR]1
_chemical_formula_sum              "Co8 H96 C160 S16 N64"
_cell_length_a       15.754
_cell_length_b       26.877
_cell_length_c       19.244
_cell_angle_alpha    90
_cell_angle_beta     90.065
_cell_angle_gamma    90

_symmetry_space_group_name_H-M    "P 1"
_symmetry_Int_Tables_number       1

loop_
  _symmetry_equiv_pos_as_xyz
  'x, y, z'

loop_
  _atom_site_type_symbol
  _atom_site_label
  _atom_site_symmetry_multiplicity
  _atom_site_fract_x
  _atom_site_fract_y
  _atom_site_fract_z
  _atom_site_occupancy
  _atom_site_charge
Co  Co1       1.0  0.04530  0.61869  0.78678  1.0000 0.6903600839
Co  Co2       1.0  0.95470  0.11869  0.71322  1.0000 0.6903600839
Co  Co3       1.0  0.53850  0.86352  0.20824  1.0000 0.6829497811
Co  Co4       1.0  0.46150  0.36352  0.29176  1.0000 0.6829497811
Co  Co5       1.0  0.95470  0.38131  0.21322  1.0000 0.6903600839
Co  Co6       1.0  0.04530  0.88131  0.28678  1.0000 0.6903600839
Co  Co7       1.0  0.46150  0.13648  0.79176  1.0000 0.6829497811
Co  Co8       1.0  0.53850  0.63648  0.70824  1.0000 0.6829497811
H   H1        1.0  0.66970  0.79950  0.13510  1.0000 0.1035117025
H   H2        1.0  0.33030  0.29950  0.36490  1.0000 0.1109420085
H   H3        1.0  0.76350  0.79860  0.04280  1.0000 0.1373468395
H   H4        1.0  0.23650  0.29860  0.45720  1.0000 0.1373468395
H   H5        1.0  0.70400  0.94310  0.00650  1.0000 0.1373468395
H   H6        1.0  0.29600  0.44310  0.49350  1.0000 0.1373468395
H   H7        1.0  0.60890  0.93950  0.09900  1.0000 0.1109420085
H   H8        1.0  0.39110  0.43950  0.40100  1.0000 0.1109420085
H   H9        1.0  0.97460  0.67110  0.91790  1.0000 0.1109420085
H   H10       1.0  0.02540  0.17110  0.58210  1.0000 0.1109420085
H   H11       1.0  0.91970  0.74620  0.95630  1.0000 0.1336855969
H   H12       1.0  0.08030  0.24620  0.54370  1.0000 0.1336855969
H   H13       1.0  0.97310  0.80430  0.76650  1.0000 0.1373468395
H   H14       1.0  0.02690  0.30430  0.73350  1.0000 0.1373468395
H   H15       1.0  0.02400  0.72650  0.73300  1.0000 0.1109420085
H   H16       1.0  0.97600  0.22650  0.76700  1.0000 0.1109420085
H   H17       1.0  0.01860  0.01110  0.72220  1.0000 0.1109420085
H   H18       1.0  0.98140  0.51110  0.77780  1.0000 0.1109420085
H   H19       1.0  0.99540  0.93620  0.78030  1.0000 0.1336855969
H   H20       1.0  0.00460  0.43620  0.71970  1.0000 0.1336855969
H   H21       1.0  0.78360  0.99700  0.86390  1.0000 0.1336855969
H   H22       1.0  0.21640  0.49700  0.63610  1.0000 0.1336855969
H   H23       1.0  0.81200  0.06920  0.80270  1.0000 0.1167595533
H   H24       1.0  0.18800  0.56920  0.69730  1.0000 0.1167595533
H   H25       1.0  0.16390  0.68360  0.87010  1.0000 0.1035117025
H   H26       1.0  0.83610  0.18360  0.62990  1.0000 0.1035117025
H   H27       1.0  0.25860  0.68220  0.96230  1.0000 0.1336855969
H   H28       1.0  0.74140  0.18220  0.53770  1.0000 0.1336855969
H   H29       1.0  0.20600  0.53540  0.98830  1.0000 0.1373468395
H   H30       1.0  0.79400  0.03540  0.51170  1.0000 0.1373468395
H   H31       1.0  0.10920  0.54190  0.89840  1.0000 0.1109420085
H   H32       1.0  0.89080  0.04190  0.60160  1.0000 0.1109420085
H   H33       1.0  0.47110  0.80870  0.07560  1.0000 0.1109420085
H   H34       1.0  0.52890  0.30870  0.42440  1.0000 0.1109420085
H   H35       1.0  0.41360  0.73270  0.04110  1.0000 0.1336855969
H   H36       1.0  0.58640  0.23270  0.45890  1.0000 0.1336855969
H   H37       1.0  0.46550  0.67910  0.23300  1.0000 0.1373468395
H   H38       1.0  0.53450  0.17910  0.26700  1.0000 0.1373468395
H   H39       1.0  0.52070  0.75620  0.26150  1.0000 0.1109420085
H   H40       1.0  0.47930  0.25620  0.23850  1.0000 0.1109420085
H   H41       1.0  0.49720  0.47720  0.29930  1.0000 0.1109420085
H   H42       1.0  0.50280  0.97720  0.20070  1.0000 0.1109420085
H   H43       1.0  0.46670  0.55160  0.24440  1.0000 0.1336855969
H   H44       1.0  0.53330  0.05160  0.25560  1.0000 0.1336855969
H   H45       1.0  0.31560  0.47550  0.11180  1.0000 0.1373468395
H   H46       1.0  0.68440  0.97550  0.38820  1.0000 0.1373468395
H   H47       1.0  0.35030  0.40340  0.17140  1.0000 0.1167595533
H   H48       1.0  0.64970  0.90340  0.32860  1.0000 0.1167595533
H   H49       1.0  0.33030  0.20050  0.86490  1.0000 0.1035117025
H   H50       1.0  0.66970  0.70050  0.63510  1.0000 0.1035117025
H   H51       1.0  0.23650  0.20140  0.95720  1.0000 0.1373468395
H   H52       1.0  0.76350  0.70140  0.54280  1.0000 0.1373468395
H   H53       1.0  0.29600  0.05690  0.99350  1.0000 0.1373468395
H   H54       1.0  0.70400  0.55690  0.50650  1.0000 0.1373468395
H   H55       1.0  0.39110  0.06050  0.90100  1.0000 0.1109420085
H   H56       1.0  0.60890  0.56050  0.59900  1.0000 0.1109420085
H   H57       1.0  0.02540  0.32890  0.08210  1.0000 0.1109420085
H   H58       1.0  0.97460  0.82890  0.41790  1.0000 0.1109420085
H   H59       1.0  0.08030  0.25380  0.04370  1.0000 0.1336855969
H   H60       1.0  0.91970  0.75380  0.45630  1.0000 0.1336855969
H   H61       1.0  0.02690  0.19570  0.23350  1.0000 0.1373468395
H   H62       1.0  0.97310  0.69570  0.26650  1.0000 0.1373468395
H   H63       1.0  0.97600  0.27350  0.26700  1.0000 0.1109420085
H   H64       1.0  0.02400  0.77350  0.23300  1.0000 0.1109420085
H   H65       1.0  0.98140  0.98890  0.27780  1.0000 0.1109420085
H   H66       1.0  0.01860  0.48890  0.22220  1.0000 0.1109420085
H   H67       1.0  0.00460  0.06380  0.21970  1.0000 0.1336855969
H   H68       1.0  0.99540  0.56380  0.28030  1.0000 0.1336855969
H   H69       1.0  0.21640  0.00300  0.13610  1.0000 0.1336855969
H   H70       1.0  0.78360  0.50300  0.36390  1.0000 0.1336855969
H   H71       1.0  0.18800  0.93080  0.19730  1.0000 0.1167595533
H   H72       1.0  0.81200  0.43080  0.30270  1.0000 0.1167595533
H   H73       1.0  0.83610  0.31640  0.12990  1.0000 0.1035117025
H   H74       1.0  0.16390  0.81640  0.37010  1.0000 0.1035117025
H   H75       1.0  0.74140  0.31780  0.03770  1.0000 0.1336855969
H   H76       1.0  0.25860  0.81780  0.46230  1.0000 0.1336855969
H   H77       1.0  0.79400  0.46460  0.01170  1.0000 0.1373468395
H   H78       1.0  0.20600  0.96460  0.48830  1.0000 0.1373468395
H   H79       1.0  0.89080  0.45810  0.10160  1.0000 0.1109420085
H   H80       1.0  0.10920  0.95810  0.39840  1.0000 0.1109420085
H   H81       1.0  0.52890  0.19130  0.92440  1.0000 0.1109420085
H   H82       1.0  0.47110  0.69130  0.57560  1.0000 0.1109420085
H   H83       1.0  0.58640  0.26730  0.95890  1.0000 0.1336855969
H   H84       1.0  0.41360  0.76730  0.54110  1.0000 0.1336855969
H   H85       1.0  0.53450  0.32090  0.76700  1.0000 0.1373468395
H   H86       1.0  0.46550  0.82090  0.73300  1.0000 0.1373468395
H   H87       1.0  0.47930  0.24380  0.73850  1.0000 0.1109420085
H   H88       1.0  0.52070  0.74380  0.76150  1.0000 0.1109420085
H   H89       1.0  0.50280  0.52280  0.70070  1.0000 0.1109420085
H   H90       1.0  0.49720  0.02280  0.79930  1.0000 0.1109420085
H   H91       1.0  0.53330  0.44840  0.75560  1.0000 0.1336855969
H   H92       1.0  0.46670  0.94840  0.74440  1.0000 0.1336855969
H   H93       1.0  0.68440  0.52450  0.88820  1.0000 0.1373468395
H   H94       1.0  0.31560  0.02450  0.61180  1.0000 0.1336855969
H   H95       1.0  0.64970  0.59660  0.82860  1.0000 0.1167595533
H   H96       1.0  0.35030  0.09660  0.67140  1.0000 0.1167595533
C   C1        1.0  0.20410  0.67926  0.72430  1.0000 0.2485381163
C   C2        1.0  0.79590  0.17926  0.77570  1.0000 0.2485381163
C   C3        1.0  0.90610  0.57626  0.89150  1.0000 0.2485381163
C   C4        1.0  0.09390  0.07626  0.60850  1.0000 0.2485381163
C   C5        1.0  0.39750  0.91329  0.10900  1.0000 0.2485381163
C   C6        1.0  0.60250  0.41329  0.39100  1.0000 0.2485381163
C   C7        1.0  0.68290  0.80605  0.29030  1.0000 0.2561337051
C   C8        1.0  0.31710  0.30605  0.20970  1.0000 0.2561337051
C   C9        1.0  0.67640  0.82893  0.10830  1.0000 0.0803306865
C   C10       1.0  0.32360  0.32893  0.39170  1.0000 0.0803306865
C   C11       1.0  0.73280  0.82804  0.05360  1.0000 -0.1490861007
C   C12       1.0  0.26720  0.32804  0.44640  1.0000 -0.1490861007
C   C13       1.0  0.74410  0.87118  0.01443  1.0000 0.0589330736
C   C14       1.0  0.25590  0.37118  0.48557  1.0000 0.0589330736
C   C15       1.0  0.69750  0.91313  0.03207  1.0000 -0.1490861007
C   C16       1.0  0.30250  0.41313  0.46793  1.0000 -0.1490861007
C   C17       1.0  0.64100  0.91075  0.08760  1.0000 0.0862227377
C   C18       1.0  0.35900  0.41075  0.41240  1.0000 0.0862227377
C   C19       1.0  0.97310  0.69835  0.88656  1.0000 0.0803306865
C   C20       1.0  0.02690  0.19835  0.61344  1.0000 0.0803306865
C   C21       1.0  0.94030  0.74306  0.91014  1.0000 -0.1416972557
C   C22       1.0  0.05970  0.24306  0.58986  1.0000 -0.1416972557
C   C23       1.0  0.93820  0.78340  0.86431  1.0000 0.0589330736
C   C24       1.0  0.06180  0.28340  0.63569  1.0000 0.0589330736
C   C25       1.0  0.97150  0.77718  0.79813  1.0000 -0.1416972557
C   C26       1.0  0.02850  0.27718  0.70187  1.0000 -0.1416972557
C   C27       1.0  0.00240  0.73071  0.77868  1.0000 0.0803306865
C   C28       1.0  0.99760  0.23071  0.72132  1.0000 0.0803306865
C   C29       1.0  0.97020  0.00815  0.75120  1.0000 0.0803306865
C   C30       1.0  0.02980  0.50815  0.74880  1.0000 0.0803306865
C   C31       1.0  0.95700  0.96319  0.78600  1.0000 -0.1561702999
C   C32       1.0  0.04300  0.46319  0.71400  1.0000 -0.1490861007
C   C33       1.0  0.88720  0.95871  0.82870  1.0000 0.0589330736
C   C34       1.0  0.11280  0.45871  0.67130  1.0000 0.0589330736
C   C35       1.0  0.83230  0.99901  0.83500  1.0000 -0.1490861007
C   C36       1.0  0.16770  0.49901  0.66500  1.0000 -0.1416972557
C   C37       1.0  0.84990  0.04188  0.79840  1.0000 0.0803306865
C   C38       1.0  0.15010  0.54188  0.70160  1.0000 0.0803306865
C   C39       1.0  0.80510  0.87171  0.95495  1.0000 0.3771370482
C   C40       1.0  0.19490  0.37171  0.54505  1.0000 0.3771370482
C   C41       1.0  0.89670  0.83071  0.88583  1.0000 0.3771370482
C   C42       1.0  0.10330  0.33071  0.61417  1.0000 0.3771370482
C   C43       1.0  0.87090  0.91197  0.86790  1.0000 0.3771370482
C   C44       1.0  0.12910  0.41197  0.63210  1.0000 0.3771370482
C   C45       1.0  0.17210  0.65344  0.89501  1.0000 0.0803306865
C   C46       1.0  0.82790  0.15344  0.60499  1.0000 0.0803306865
C   C47       1.0  0.22900  0.65283  0.94952  1.0000 -0.1490861007
C   C48       1.0  0.77100  0.15283  0.55048  1.0000 -0.1490861007
C   C49       1.0  0.24270  0.60847  0.98569  1.0000 0.0541723237
C   C50       1.0  0.75730  0.10847  0.51431  1.0000 0.0541723237
C   C51       1.0  0.19770  0.56636  0.96538  1.0000 -0.1490861007
C   C52       1.0  0.80230  0.06636  0.53462  1.0000 -0.1490861007
C   C53       1.0  0.14080  0.57053  0.91135  1.0000 0.0862227377
C   C54       1.0  0.85920  0.07053  0.58865  1.0000 0.0862227377
C   C55       1.0  0.46930  0.78204  0.10802  1.0000 0.0803306865
C   C56       1.0  0.53070  0.28204  0.39198  1.0000 0.0803306865
C   C57       1.0  0.43490  0.73682  0.08695  1.0000 -0.1416972557
C   C58       1.0  0.56510  0.23682  0.41305  1.0000 -0.1416972557
C   C59       1.0  0.43240  0.69791  0.13430  1.0000 0.0541723237
C   C60       1.0  0.56760  0.19791  0.36570  1.0000 0.0541723237
C   C61       1.0  0.46540  0.70526  0.19980  1.0000 -0.1490861007
C   C62       1.0  0.53460  0.20526  0.30020  1.0000 -0.1490861007
C   C63       1.0  0.49810  0.75132  0.21620  1.0000 0.0803306865
C   C64       1.0  0.50190  0.25132  0.28380  1.0000 0.0803306865
C   C65       1.0  0.46000  0.47693  0.26050  1.0000 0.0589330736
C   C66       1.0  0.54000  0.97693  0.23950  1.0000 0.0589330736
C   C67       1.0  0.44240  0.52145  0.22790  1.0000 -0.1561702999
C   C68       1.0  0.55760  0.02145  0.27210  1.0000 -0.1561702999
C   C69       1.0  0.38830  0.52148  0.17051  1.0000 0.0541723237
C   C70       1.0  0.61170  0.02148  0.32949  1.0000 0.0589330736
C   C71       1.0  0.35360  0.47684  0.15012  1.0000 -0.1416972557
C   C72       1.0  0.64640  0.97684  0.34988  1.0000 -0.1416972557
C   C73       1.0  0.37470  0.43394  0.18609  1.0000 0.0862227377
C   C74       1.0  0.62530  0.93394  0.31391  1.0000 0.0862227377
C   C75       1.0  0.30280  0.60760  0.04431  1.0000 0.3711874483
C   C76       1.0  0.69720  0.10760  0.45569  1.0000 0.3711874483
C   C77       1.0  0.39160  0.64991  0.11469  1.0000 0.3771370482
C   C78       1.0  0.60840  0.14991  0.38531  1.0000 0.3771370482
C   C79       1.0  0.36970  0.56842  0.13216  1.0000 0.3771370482
C   C80       1.0  0.63030  0.06842  0.36784  1.0000 0.3771370482
C   C81       1.0  0.79590  0.32074  0.27570  1.0000 0.2485381163
C   C82       1.0  0.20410  0.82074  0.22430  1.0000 0.2485381163
C   C83       1.0  0.09390  0.42374  0.10850  1.0000 0.2485381163
C   C84       1.0  0.90610  0.92374  0.39150  1.0000 0.2485381163
C   C85       1.0  0.60250  0.08671  0.89100  1.0000 0.2485381163
C   C86       1.0  0.39750  0.58671  0.60900  1.0000 0.2485381163
C   C87       1.0  0.31710  0.19395  0.70970  1.0000 0.2561337051
C   C88       1.0  0.68290  0.69395  0.79030  1.0000 0.2561337051
C   C89       1.0  0.32360  0.17107  0.89170  1.0000 0.0803306865
C   C90       1.0  0.67640  0.67107  0.60830  1.0000 0.0803306865
C   C91       1.0  0.26720  0.17196  0.94640  1.0000 -0.1490861007
C   C92       1.0  0.73280  0.67196  0.55360  1.0000 -0.1490861007
C   C93       1.0  0.25590  0.12882  0.98557  1.0000 0.0589330736
C   C94       1.0  0.74410  0.62882  0.51443  1.0000 0.0589330736
C   C95       1.0  0.30250  0.08687  0.96793  1.0000 -0.1490861007
C   C96       1.0  0.69750  0.58687  0.53207  1.0000 -0.1490861007
C   C97       1.0  0.35900  0.08925  0.91240  1.0000 0.0862227377
C   C98       1.0  0.64100  0.58925  0.58760  1.0000 0.0862227377
C   C99       1.0  0.02690  0.30165  0.11344  1.0000 0.0803306865
C   C100      1.0  0.97310  0.80165  0.38656  1.0000 0.0803306865
C   C101      1.0  0.05970  0.25694  0.08986  1.0000 -0.1416972557
C   C102      1.0  0.94030  0.75694  0.41014  1.0000 -0.1416972557
C   C103      1.0  0.06180  0.21660  0.13569  1.0000 0.0589330736
C   C104      1.0  0.93820  0.71660  0.36431  1.0000 0.0589330736
C   C105      1.0  0.02850  0.22282  0.20187  1.0000 -0.1416972557
C   C106      1.0  0.97150  0.72282  0.29813  1.0000 -0.1416972557
C   C107      1.0  0.99760  0.26929  0.22132  1.0000 0.0803306865
C   C108      1.0  0.00240  0.76929  0.27868  1.0000 0.0803306865
C   C109      1.0  0.02980  0.99185  0.24880  1.0000 0.0803306865
C   C110      1.0  0.97020  0.49185  0.25120  1.0000 0.0803306865
C   C111      1.0  0.04300  0.03681  0.21400  1.0000 -0.1490861007
C   C112      1.0  0.95700  0.53681  0.28600  1.0000 -0.1490861007
C   C113      1.0  0.11280  0.04129  0.17130  1.0000 0.0589330736
C   C114      1.0  0.88720  0.54129  0.32870  1.0000 0.0589330736
C   C115      1.0  0.16770  0.00099  0.16500  1.0000 -0.1416972557
C   C116      1.0  0.83230  0.50099  0.33500  1.0000 -0.1416972557
C   C117      1.0  0.15010  0.95812  0.20160  1.0000 0.0803306865
C   C118      1.0  0.84990  0.45812  0.29840  1.0000 0.0803306865
C   C119      1.0  0.19490  0.12829  0.04505  1.0000 0.3771370482
C   C120      1.0  0.80510  0.62829  0.45495  1.0000 0.3771370482
C   C121      1.0  0.10330  0.16929  0.11417  1.0000 0.3771370482
C   C122      1.0  0.89670  0.66929  0.38583  1.0000 0.3771370482
C   C123      1.0  0.12910  0.08803  0.13210  1.0000 0.3771370482
C   C124      1.0  0.87090  0.58803  0.36790  1.0000 0.3771370482
C   C125      1.0  0.82790  0.34656  0.10499  1.0000 0.0803306865
C   C126      1.0  0.17210  0.84656  0.39501  1.0000 0.0803306865
C   C127      1.0  0.77100  0.34717  0.05048  1.0000 -0.1490861007
C   C128      1.0  0.22900  0.84717  0.44952  1.0000 -0.1490861007
C   C129      1.0  0.75730  0.39153  0.01431  1.0000 0.0541723237
C   C130      1.0  0.24270  0.89153  0.48569  1.0000 0.0541723237
C   C131      1.0  0.80230  0.43364  0.03462  1.0000 -0.1490861007
C   C132      1.0  0.19770  0.93364  0.46538  1.0000 -0.1490861007
C   C133      1.0  0.85920  0.42947  0.08865  1.0000 0.0803306865
C   C134      1.0  0.14080  0.92947  0.41135  1.0000 0.0803306865
C   C135      1.0  0.53070  0.21796  0.89198  1.0000 0.0803306865
C   C136      1.0  0.46930  0.71796  0.60802  1.0000 0.0803306865
C   C137      1.0  0.56510  0.26318  0.91305  1.0000 -0.1416972557
C   C138      1.0  0.43490  0.76318  0.58695  1.0000 -0.1416972557
C   C139      1.0  0.56760  0.30209  0.86570  1.0000 0.0589330736
C   C140      1.0  0.43240  0.80209  0.63430  1.0000 0.0541723237
C   C141      1.0  0.53460  0.29474  0.80020  1.0000 -0.1490861007
C   C142      1.0  0.46540  0.79474  0.69980  1.0000 -0.1490861007
C   C143      1.0  0.50190  0.24868  0.78380  1.0000 0.0803306865
C   C144      1.0  0.49810  0.74868  0.71620  1.0000 0.0803306865
C   C145      1.0  0.54000  0.52307  0.73950  1.0000 0.0589330736
C   C146      1.0  0.46000  0.02307  0.76050  1.0000 0.0589330736
C   C147      1.0  0.55760  0.47855  0.77210  1.0000 -0.1561702999
C   C148      1.0  0.44240  0.97855  0.72790  1.0000 -0.1561702999
C   C149      1.0  0.61170  0.47852  0.82949  1.0000 0.0589330736
C   C150      1.0  0.38830  0.97852  0.67051  1.0000 0.0589330736
C   C151      1.0  0.64640  0.52316  0.84988  1.0000 -0.1416972557
C   C152      1.0  0.35360  0.02316  0.65012  1.0000 -0.1416972557
C   C153      1.0  0.62530  0.56606  0.81391  1.0000 0.0862227377
C   C154      1.0  0.37470  0.06606  0.68609  1.0000 0.0862227377
C   C155      1.0  0.69720  0.39240  0.95569  1.0000 0.3711874483
C   C156      1.0  0.30280  0.89240  0.54431  1.0000 0.3711874483
C   C157      1.0  0.60840  0.35009  0.88531  1.0000 0.3771370482
C   C158      1.0  0.39160  0.85009  0.61469  1.0000 0.3771370482
C   C159      1.0  0.63030  0.43158  0.86784  1.0000 0.3771370482
C   C160      1.0  0.36970  0.93158  0.63216  1.0000 0.3771370482
S   S1        1.0  0.32235  0.93535  0.05822  1.0000 -0.3996342647
S   S2        1.0  0.67765  0.43535  0.44178  1.0000 -0.3996342647
S   S3        1.0  0.76762  0.77809  0.31864  1.0000 -0.3822327944
S   S4        1.0  0.23238  0.27809  0.18136  1.0000 -0.3822327944
S   S5        1.0  0.28336  0.71589  0.71046  1.0000 -0.3624118793
S   S6        1.0  0.71664  0.21589  0.78954  1.0000 -0.3624118793
S   S7        1.0  0.84811  0.56371  0.96009  1.0000 -0.388094798
S   S8        1.0  0.15189  0.06371  0.53991  1.0000 -0.388094798
S   S9        1.0  0.67765  0.06465  0.94178  1.0000 -0.4092875871
S   S10       1.0  0.32235  0.56465  0.55822  1.0000 -0.3996342647
S   S11       1.0  0.23238  0.22191  0.68136  1.0000 -0.3822327944
S   S12       1.0  0.76762  0.72191  0.81864  1.0000 -0.3822327944
S   S13       1.0  0.71664  0.28411  0.28954  1.0000 -0.3624118793
S   S14       1.0  0.28336  0.78411  0.21046  1.0000 -0.3624118793
S   S15       1.0  0.15189  0.43629  0.03991  1.0000 -0.3822327944
S   S16       1.0  0.84811  0.93629  0.46009  1.0000 -0.388094798
N   N1        1.0  0.14420  0.65441  0.73447  1.0000 -0.4920715692
N   N2        1.0  0.85580  0.15441  0.76553  1.0000 -0.4920715692
N   N3        1.0  0.94710  0.58582  0.84346  1.0000 -0.4599560129
N   N4        1.0  0.05290  0.08582  0.65654  1.0000 -0.4599560129
N   N5        1.0  0.45060  0.89823  0.14466  1.0000 -0.4697200845
N   N6        1.0  0.54940  0.39823  0.35534  1.0000 -0.4697200845
N   N7        1.0  0.62530  0.82666  0.26924  1.0000 -0.4697200845
N   N8        1.0  0.37470  0.32666  0.23076  1.0000 -0.4697200845
N   N9        1.0  0.63040  0.86925  0.12566  1.0000 -0.2094473723
N   N10       1.0  0.36960  0.36925  0.37434  1.0000 -0.2094473723
N   N11       1.0  0.00281  0.69128  0.82236  1.0000 -0.2094473723
N   N12       1.0  0.99719  0.19128  0.67764  1.0000 -0.2094473723
N   N13       1.0  0.91830  0.04704  0.75669  1.0000 -0.2181896272
N   N14       1.0  0.08170  0.54704  0.74331  1.0000 -0.2181896272
N   N15       1.0  0.84525  0.82895  0.94075  1.0000 -0.3996342647
N   N16       1.0  0.15475  0.32895  0.55925  1.0000 -0.4092875871
N   N17       1.0  0.81550  0.91404  0.92050  1.0000 -0.3996342647
N   N18       1.0  0.18450  0.41404  0.57950  1.0000 -0.3996342647
N   N19       1.0  0.91270  0.87128  0.84735  1.0000 -0.4092875871
N   N20       1.0  0.08730  0.37128  0.65265  1.0000 -0.4092875871
N   N21       1.0  0.12760  0.61296  0.87579  1.0000 -0.2094473723
N   N22       1.0  0.87240  0.11296  0.62421  1.0000 -0.2094473723
N   N23       1.0  0.49990  0.78970  0.17174  1.0000 -0.2094473723
N   N24       1.0  0.50010  0.28970  0.32826  1.0000 -0.2094473723
N   N25       1.0  0.42732  0.43326  0.24013  1.0000 -0.2094473723
N   N26       1.0  0.57268  0.93326  0.25987  1.0000 -0.2094473723
N   N27       1.0  0.34040  0.65135  0.05977  1.0000 -0.4092875871
N   N28       1.0  0.65960  0.15135  0.44023  1.0000 -0.4092875871
N   N29       1.0  0.40750  0.61001  0.15375  1.0000 -0.4092875871
N   N30       1.0  0.59250  0.11001  0.34625  1.0000 -0.4092875871
N   N31       1.0  0.31630  0.56472  0.07799  1.0000 -0.3996342647
N   N32       1.0  0.68370  0.06472  0.42201  1.0000 -0.3996342647
N   N33       1.0  0.85580  0.34559  0.26553  1.0000 -0.4920715692
N   N34       1.0  0.14420  0.84559  0.23447  1.0000 -0.4920715692
N   N35       1.0  0.05290  0.41418  0.15654  1.0000 -0.4599560129
N   N36       1.0  0.94710  0.91418  0.34346  1.0000 -0.4599560129
N   N37       1.0  0.54940  0.10177  0.85534  1.0000 -0.4697200845
N   N38       1.0  0.45060  0.60177  0.64466  1.0000 -0.4697200845
N   N39       1.0  0.37470  0.17334  0.73076  1.0000 -0.4697200845
N   N40       1.0  0.62530  0.67334  0.76924  1.0000 -0.4697200845
N   N41       1.0  0.36960  0.13075  0.87434  1.0000 -0.2094473723
N   N42       1.0  0.63040  0.63075  0.62566  1.0000 -0.2094473723
N   N43       1.0  0.99719  0.30872  0.17764  1.0000 -0.2094473723
N   N44       1.0  0.00281  0.80872  0.32236  1.0000 -0.2094473723
N   N45       1.0  0.08170  0.95296  0.24331  1.0000 -0.2181896272
N   N46       1.0  0.91830  0.45296  0.25669  1.0000 -0.2181896272
N   N47       1.0  0.15475  0.17105  0.05925  1.0000 -0.4092875871
N   N48       1.0  0.84525  0.67105  0.44075  1.0000 -0.4092875871
N   N49       1.0  0.18450  0.08596  0.07950  1.0000 -0.3996342647
N   N50       1.0  0.81550  0.58596  0.42050  1.0000 -0.3996342647
N   N51       1.0  0.08730  0.12872  0.15265  1.0000 -0.4153314683
N   N52       1.0  0.91270  0.62872  0.34735  1.0000 -0.4092875871
N   N53       1.0  0.87240  0.38704  0.12421  1.0000 -0.2094473723
N   N54       1.0  0.12760  0.88704  0.37579  1.0000 -0.2094473723
N   N55       1.0  0.50010  0.21030  0.82826  1.0000 -0.2094473723
N   N56       1.0  0.49990  0.71030  0.67174  1.0000 -0.2094473723
N   N57       1.0  0.57268  0.56674  0.75987  1.0000 -0.2094473723
N   N58       1.0  0.42732  0.06674  0.74013  1.0000 -0.2094473723
N   N59       1.0  0.65960  0.34865  0.94023  1.0000 -0.4092875871
N   N60       1.0  0.34040  0.84865  0.55977  1.0000 -0.4092875871
N   N61       1.0  0.59250  0.38999  0.84625  1.0000 -0.4092875871
N   N62       1.0  0.40750  0.88999  0.65375  1.0000 -0.4092875871
N   N63       1.0  0.68370  0.43528  0.92201  1.0000 -0.3996342647
N   N64       1.0  0.31630  0.93528  0.57799  1.0000 -0.3996342647
