# DDEC6 charges by PACMAN v1.1 (https://github.com/mtap-research/PACMAN-charge/)
data_2005[Er][nan]3[ASR]1
_chemical_formula_sum              "Er12 P4 H36 C44 N4 O76"
_cell_length_a       10.0476
_cell_length_b       22.2426
_cell_length_c       15.3156
_cell_angle_alpha    90
_cell_angle_beta     111.124
_cell_angle_gamma    90

_symmetry_space_group_name_H-M    "P 1"
_symmetry_Int_Tables_number       1

loop_
  _symmetry_equiv_pos_as_xyz
  'x, y, z'

loop_
  _atom_site_type_symbol
  _atom_site_label
  _atom_site_symmetry_multiplicity
  _atom_site_fract_x
  _atom_site_fract_y
  _atom_site_fract_z
  _atom_site_occupancy
  _atom_site_charge
Er  Er1       1.0  0.47119  0.85860  0.49739  1.0000 1.9684922439
Er  Er2       1.0  0.52881  0.35860  0.00261  1.0000 1.9684922439
Er  Er3       1.0  0.52881  0.14140  0.50261  1.0000 1.9684922439
Er  Er4       1.0  0.47119  0.64140  0.99739  1.0000 1.9684922439
Er  Er5       1.0  0.82968  0.84379  0.24684  1.0000 2.0287500363
Er  Er6       1.0  0.17032  0.34379  0.25316  1.0000 2.0287500363
Er  Er7       1.0  0.17032  0.15621  0.75316  1.0000 2.0287500363
Er  Er8       1.0  0.82968  0.65621  0.74684  1.0000 2.0287500363
Er  Er9       1.0  0.66585  0.98616  0.90742  1.0000 2.0577044826
Er  Er10      1.0  0.33415  0.48616  0.59258  1.0000 2.0577044826
Er  Er11      1.0  0.33415  0.01384  0.09258  1.0000 2.0577044826
Er  Er12      1.0  0.66585  0.51384  0.40742  1.0000 2.0577044826
P   P1        1.0  0.70384  0.99139  0.15444  1.0000 1.4194899541
P   P2        1.0  0.29616  0.49139  0.34556  1.0000 1.4194899541
P   P3        1.0  0.29616  0.00861  0.84556  1.0000 1.4194899541
P   P4        1.0  0.70384  0.50861  0.65444  1.0000 1.4194899541
H   H1        1.0  0.94720  0.98950  0.31730  1.0000 0.2539999601
H   H2        1.0  0.05280  0.48950  0.18270  1.0000 0.2539999601
H   H3        1.0  0.05280  0.01050  0.68270  1.0000 0.2539999601
H   H4        1.0  0.94720  0.51050  0.81730  1.0000 0.2539999601
H   H5        1.0  0.92370  0.03720  0.17790  1.0000 0.1407802631
H   H6        1.0  0.07630  0.53720  0.32210  1.0000 0.1407802631
H   H7        1.0  0.07630  0.96280  0.82210  1.0000 0.1407802631
H   H8        1.0  0.92370  0.46280  0.67790  1.0000 0.1407802631
H   H9        1.0  0.82310  0.08290  0.20180  1.0000 0.1407802631
H   H10       1.0  0.17690  0.58290  0.29820  1.0000 0.1407802631
H   H11       1.0  0.17690  0.91710  0.79820  1.0000 0.1407802631
H   H12       1.0  0.82310  0.41710  0.70180  1.0000 0.1407802631
H   H13       1.0  0.75400  0.02680  0.34210  1.0000 0.1485639157
H   H14       1.0  0.24600  0.52680  0.15790  1.0000 0.1485639157
H   H15       1.0  0.24600  0.97320  0.65790  1.0000 0.1485639157
H   H16       1.0  0.75400  0.47320  0.84210  1.0000 0.1485639157
H   H17       1.0  0.83050  0.08940  0.36370  1.0000 0.1407802631
H   H18       1.0  0.16950  0.58940  0.13630  1.0000 0.1407802631
H   H19       1.0  0.16950  0.91060  0.63630  1.0000 0.1407802631
H   H20       1.0  0.83050  0.41060  0.86370  1.0000 0.1407802631
H   H21       1.0  0.89330  0.03470  0.43050  1.0000 0.1319303852
H   H22       1.0  0.10670  0.53470  0.06950  1.0000 0.1319303852
H   H23       1.0  0.10670  0.96530  0.56950  1.0000 0.1319303852
H   H24       1.0  0.89330  0.46530  0.93050  1.0000 0.1319303852
H   H25       1.0  0.13020  0.04860  0.31010  1.0000 0.1485639157
H   H26       1.0  0.86980  0.54860  0.18990  1.0000 0.1485639157
H   H27       1.0  0.86980  0.95140  0.68990  1.0000 0.1485639157
H   H28       1.0  0.13020  0.45140  0.81010  1.0000 0.1485639157
H   H29       1.0  0.12510  0.04820  0.41120  1.0000 0.1407802631
H   H30       1.0  0.87490  0.54820  0.08880  1.0000 0.1407802631
H   H31       1.0  0.87490  0.95180  0.58880  1.0000 0.1407802631
H   H32       1.0  0.12510  0.45180  0.91120  1.0000 0.1407802631
H   H33       1.0  0.06290  0.10300  0.34450  1.0000 0.1485639157
H   H34       1.0  0.93710  0.60300  0.15550  1.0000 0.1485639157
H   H35       1.0  0.93710  0.89700  0.65550  1.0000 0.1485639157
H   H36       1.0  0.06290  0.39700  0.84450  1.0000 0.1485639157
C   C1        1.0  0.15230  0.81880  0.37070  1.0000 0.5299083185
C   C2        1.0  0.84770  0.31880  0.12930  1.0000 0.5299083185
C   C3        1.0  0.84770  0.18120  0.62930  1.0000 0.5299083185
C   C4        1.0  0.15230  0.68120  0.87070  1.0000 0.5299083185
C   C5        1.0  0.14200  0.88750  0.38190  1.0000 0.5074766618
C   C6        1.0  0.85800  0.38750  0.11810  1.0000 0.5074766618
C   C7        1.0  0.85800  0.11250  0.61810  1.0000 0.5074766618
C   C8        1.0  0.14200  0.61250  0.88190  1.0000 0.5074766618
C   C9        1.0  0.68970  0.78090  0.66400  1.0000 0.518197332
C   C10       1.0  0.31030  0.28090  0.83600  1.0000 0.518197332
C   C11       1.0  0.31030  0.21910  0.33600  1.0000 0.518197332
C   C12       1.0  0.68970  0.71910  0.16400  1.0000 0.518197332
C   C13       1.0  0.62810  0.73640  0.58070  1.0000 0.518197332
C   C14       1.0  0.37190  0.23640  0.91930  1.0000 0.518197332
C   C15       1.0  0.37190  0.26360  0.41930  1.0000 0.518197332
C   C16       1.0  0.62810  0.76360  0.08070  1.0000 0.518197332
C   C17       1.0  0.58230  0.83810  0.33040  1.0000 0.5074766618
C   C18       1.0  0.41770  0.33810  0.16960  1.0000 0.5074766618
C   C19       1.0  0.41770  0.16190  0.66960  1.0000 0.5074766618
C   C20       1.0  0.58230  0.66190  0.83040  1.0000 0.5074766618
C   C21       1.0  0.71800  0.84980  0.41610  1.0000 0.5074766618
C   C22       1.0  0.28200  0.34980  0.08390  1.0000 0.5074766618
C   C23       1.0  0.28200  0.15020  0.58390  1.0000 0.5074766618
C   C24       1.0  0.71800  0.65020  0.91610  1.0000 0.5074766618
C   C25       1.0  0.49230  0.00110  0.44800  1.0000 0.5074766618
C   C26       1.0  0.50770  0.50110  0.05200  1.0000 0.5074766618
C   C27       1.0  0.50770  0.99890  0.55200  1.0000 0.5074766618
C   C28       1.0  0.49230  0.49890  0.94800  1.0000 0.5074766618
C   C29       1.0  0.00870  0.96490  0.99910  1.0000 0.5299083185
C   C30       1.0  0.99130  0.46490  0.50090  1.0000 0.5299083185
C   C31       1.0  0.99130  0.03510  0.00090  1.0000 0.5299083185
C   C32       1.0  0.00870  0.53510  0.49910  1.0000 0.5299083185
C   C33       1.0  0.85660  0.04160  0.20980  1.0000 -0.3984993506
C   C34       1.0  0.14340  0.54160  0.29020  1.0000 -0.3984993506
C   C35       1.0  0.14340  0.95840  0.79020  1.0000 -0.3984993506
C   C36       1.0  0.85660  0.45840  0.70980  1.0000 -0.3984993506
C   C37       1.0  0.84480  0.04660  0.36660  1.0000 -0.3252783078
C   C38       1.0  0.15520  0.54660  0.13340  1.0000 -0.3252783078
C   C39       1.0  0.15520  0.95340  0.63340  1.0000 -0.3252783078
C   C40       1.0  0.84480  0.45340  0.86660  1.0000 -0.3252783078
C   C41       1.0  0.07550  0.06020  0.34740  1.0000 -0.3215679783
C   C42       1.0  0.92450  0.56020  0.15260  1.0000 -0.3215679783
C   C43       1.0  0.92450  0.93980  0.65260  1.0000 -0.3215679783
C   C44       1.0  0.07550  0.43980  0.84740  1.0000 -0.3215679783
N   N1        1.0  0.93160  0.02980  0.31050  1.0000 0.1053224732
N   N2        1.0  0.06840  0.52980  0.18950  1.0000 0.1053224732
N   N3        1.0  0.06840  0.97020  0.68950  1.0000 0.1053224732
N   N4        1.0  0.93160  0.47020  0.81050  1.0000 0.1053224732
O   O1        1.0  0.04180  0.79160  0.32050  1.0000 -0.6094290833
O   O2        1.0  0.95820  0.29160  0.17950  1.0000 -0.6094290833
O   O3        1.0  0.95820  0.20840  0.67950  1.0000 -0.6094290833
O   O4        1.0  0.04180  0.70840  0.82050  1.0000 -0.6094290833
O   O5        1.0  0.27250  0.79610  0.41440  1.0000 -0.5632499117
O   O6        1.0  0.72750  0.29610  0.08560  1.0000 -0.5632499117
O   O7        1.0  0.72750  0.20390  0.58560  1.0000 -0.5632499117
O   O8        1.0  0.27250  0.70390  0.91440  1.0000 -0.5632499117
O   O9        1.0  0.24930  0.91340  0.43530  1.0000 -0.5668891478
O   O10       1.0  0.75070  0.41340  0.06470  1.0000 -0.5668891478
O   O11       1.0  0.75070  0.08660  0.56470  1.0000 -0.5668891478
O   O12       1.0  0.24930  0.58660  0.93530  1.0000 -0.5668891478
O   O13       1.0  0.02170  0.90970  0.33510  1.0000 -0.6157945055
O   O14       1.0  0.97830  0.40970  0.16490  1.0000 -0.6157945055
O   O15       1.0  0.97830  0.09030  0.66490  1.0000 -0.6157945055
O   O16       1.0  0.02170  0.59030  0.83510  1.0000 -0.6157945055
O   O17       1.0  0.78480  0.76150  0.73660  1.0000 -0.5798178125
O   O18       1.0  0.21520  0.26150  0.76340  1.0000 -0.5798178125
O   O19       1.0  0.21520  0.23850  0.26340  1.0000 -0.5798178125
O   O20       1.0  0.78480  0.73850  0.23660  1.0000 -0.5798178125
O   O21       1.0  0.63990  0.83290  0.65070  1.0000 -0.5668891478
O   O22       1.0  0.36010  0.33290  0.84930  1.0000 -0.5668891478
O   O23       1.0  0.36010  0.16710  0.34930  1.0000 -0.5668891478
O   O24       1.0  0.63990  0.66710  0.15070  1.0000 -0.5668891478
O   O25       1.0  0.67590  0.68300  0.59590  1.0000 -0.6094290833
O   O26       1.0  0.32410  0.18300  0.90410  1.0000 -0.6094290833
O   O27       1.0  0.32410  0.31700  0.40410  1.0000 -0.6094290833
O   O28       1.0  0.67590  0.81700  0.09590  1.0000 -0.6094290833
O   O29       1.0  0.53750  0.75560  0.50760  1.0000 -0.5428065169
O   O30       1.0  0.46250  0.25560  0.99240  1.0000 -0.5428065169
O   O31       1.0  0.46250  0.24440  0.49240  1.0000 -0.5428065169
O   O32       1.0  0.53750  0.74440  0.00760  1.0000 -0.5428065169
O   O33       1.0  0.83350  0.84760  0.40080  1.0000 -0.6094290833
O   O34       1.0  0.16650  0.34760  0.09920  1.0000 -0.6094290833
O   O35       1.0  0.16650  0.15240  0.59920  1.0000 -0.6094290833
O   O36       1.0  0.83350  0.65240  0.90080  1.0000 -0.6094290833
O   O37       1.0  0.70420  0.86040  0.49110  1.0000 -0.5632499117
O   O38       1.0  0.29580  0.36040  0.00890  1.0000 -0.5632499117
O   O39       1.0  0.29580  0.13960  0.50890  1.0000 -0.5632499117
O   O40       1.0  0.70420  0.63960  0.99110  1.0000 -0.5632499117
O   O41       1.0  0.59600  0.83270  0.25280  1.0000 -0.5798178125
O   O42       1.0  0.40400  0.33270  0.24720  1.0000 -0.5798178125
O   O43       1.0  0.40400  0.16730  0.74720  1.0000 -0.5798178125
O   O44       1.0  0.59600  0.66730  0.75280  1.0000 -0.5798178125
O   O45       1.0  0.46710  0.83410  0.34500  1.0000 -0.5428065169
O   O46       1.0  0.53290  0.33410  0.15500  1.0000 -0.5428065169
O   O47       1.0  0.53290  0.16590  0.65500  1.0000 -0.5428065169
O   O48       1.0  0.46710  0.66590  0.84500  1.0000 -0.5428065169
O   O49       1.0  0.49120  0.95200  0.40910  1.0000 -0.553051855
O   O50       1.0  0.50880  0.45200  0.09090  1.0000 -0.553051855
O   O51       1.0  0.50880  0.04800  0.59090  1.0000 -0.553051855
O   O52       1.0  0.49120  0.54800  0.90910  1.0000 -0.553051855
O   O53       1.0  0.48240  0.05280  0.41190  1.0000 -0.5997839528
O   O54       1.0  0.51760  0.55280  0.08810  1.0000 -0.5997839528
O   O55       1.0  0.51760  0.94720  0.58810  1.0000 -0.5997839528
O   O56       1.0  0.48240  0.44720  0.91190  1.0000 -0.5997839528
O   O57       1.0  0.89610  0.93560  0.96300  1.0000 -0.6094290833
O   O58       1.0  0.10390  0.43560  0.53700  1.0000 -0.6094290833
O   O59       1.0  0.10390  0.06440  0.03700  1.0000 -0.6094290833
O   O60       1.0  0.89610  0.56440  0.46300  1.0000 -0.6094290833
O   O61       1.0  0.13120  0.94510  0.03560  1.0000 -0.5943032164
O   O62       1.0  0.86880  0.44510  0.46440  1.0000 -0.5997839528
O   O63       1.0  0.86880  0.05490  0.96440  1.0000 -0.5997839528
O   O64       1.0  0.13120  0.55490  0.53560  1.0000 -0.5943032164
O   O65       1.0  0.69960  0.98400  0.05620  1.0000 -0.9418126303
O   O66       1.0  0.30040  0.48400  0.44380  1.0000 -0.9418126303
O   O67       1.0  0.30040  0.01600  0.94380  1.0000 -0.9418126303
O   O68       1.0  0.69960  0.51600  0.55620  1.0000 -0.9418126303
O   O69       1.0  0.57220  0.02010  0.16090  1.0000 -0.9349120814
O   O70       1.0  0.42780  0.52010  0.33910  1.0000 -0.9349120814
O   O71       1.0  0.42780  0.97990  0.83910  1.0000 -0.9349120814
O   O72       1.0  0.57220  0.47990  0.66090  1.0000 -0.9349120814
O   O73       1.0  0.74200  0.93430  0.21040  1.0000 -0.8696329254
O   O74       1.0  0.25800  0.43430  0.28960  1.0000 -0.8696329254
O   O75       1.0  0.25800  0.06570  0.78960  1.0000 -0.8696329254
O   O76       1.0  0.74200  0.56570  0.71040  1.0000 -0.8696329254
