# DDEC6 charges by PACMAN v1.1 (https://github.com/mtap-research/PACMAN-charge/)
data_2005[Mn][lvt]2[ASR]10
_chemical_formula_sum              "Mn24 H456 C408 N64 O72"
_cell_length_a       30.0374
_cell_length_b       30.0374
_cell_length_c       30.0374
_cell_angle_alpha    94.7851
_cell_angle_beta     94.7851
_cell_angle_gamma    146.425

_symmetry_space_group_name_H-M    "P 1"
_symmetry_Int_Tables_number       1

loop_
  _symmetry_equiv_pos_as_xyz
  'x, y, z'

loop_
  _atom_site_type_symbol
  _atom_site_label
  _atom_site_symmetry_multiplicity
  _atom_site_fract_x
  _atom_site_fract_y
  _atom_site_fract_z
  _atom_site_occupancy
  _atom_site_charge
Mn  Mn1       1.0  0.82912  0.15705  0.24899  1.0000 0.7796436903
Mn  Mn2       1.0  0.83013  0.57912  0.17207  1.0000 0.771503469
Mn  Mn3       1.0  0.40705  0.65806  0.82793  1.0000 0.771503469
Mn  Mn4       1.0  0.90806  0.58013  0.75101  1.0000 0.771503469
Mn  Mn5       1.0  0.42088  0.59295  0.25101  1.0000 0.7796436903
Mn  Mn6       1.0  0.41987  0.17088  0.32793  1.0000 0.771503469
Mn  Mn7       1.0  0.84295  0.09194  0.67207  1.0000 0.771503469
Mn  Mn8       1.0  0.34194  0.16987  0.74899  1.0000 0.771503469
Mn  Mn9       1.0  0.53645  0.93011  0.16592  1.0000 0.771503469
Mn  Mn10      1.0  0.62053  0.28645  0.10634  1.0000 0.771503469
Mn  Mn11      1.0  0.18011  0.51419  0.89366  1.0000 0.7610132155
Mn  Mn12      1.0  0.76419  0.37053  0.83408  1.0000 0.7610132155
Mn  Mn13      1.0  0.71355  0.81989  0.33408  1.0000 0.7610132155
Mn  Mn14      1.0  0.62947  0.46355  0.39366  1.0000 0.7610132155
Mn  Mn15      1.0  0.06989  0.23581  0.60634  1.0000 0.7610132155
Mn  Mn16      1.0  0.48581  0.37947  0.66592  1.0000 0.7610132155
Mn  Mn17      1.0  0.88607  0.09999  0.36898  1.0000 0.8464661297
Mn  Mn18      1.0  0.76709  0.63607  0.28608  1.0000 0.8438835499
Mn  Mn19      1.0  0.34999  0.48101  0.71392  1.0000 0.8464661297
Mn  Mn20      1.0  0.73101  0.51709  0.63102  1.0000 0.8464661297
Mn  Mn21      1.0  0.36393  0.65001  0.13102  1.0000 0.8464661297
Mn  Mn22      1.0  0.48291  0.11393  0.21392  1.0000 0.8464661297
Mn  Mn23      1.0  0.90001  0.26899  0.78608  1.0000 0.8438835499
Mn  Mn24      1.0  0.51899  0.23291  0.86898  1.0000 0.8464661297
H   H1        1.0  0.91750  0.35910  0.32360  1.0000 0.1396156723
H   H2        1.0  0.84390  0.66750  0.05840  1.0000 0.1396156723
H   H3        1.0  0.60910  0.78550  0.94160  1.0000 0.1396156723
H   H4        1.0  0.03550  0.59390  0.67640  1.0000 0.1396156723
H   H5        1.0  0.33250  0.39090  0.17640  1.0000 0.1396156723
H   H6        1.0  0.40610  0.08250  0.44160  1.0000 0.1396156723
H   H7        1.0  0.64090  0.96450  0.55840  1.0000 0.1396156723
H   H8        1.0  0.21450  0.15610  0.82360  1.0000 0.1396156723
H   H9        1.0  0.85610  0.37670  0.32140  1.0000 0.1099554586
H   H10       1.0  0.78470  0.60610  0.97940  1.0000 0.1099554586
H   H11       1.0  0.62670  0.80530  0.02060  1.0000 0.1099554586
H   H12       1.0  0.05530  0.53470  0.67860  1.0000 0.1099554586
H   H13       1.0  0.39390  0.37330  0.17860  1.0000 0.1099554586
H   H14       1.0  0.46530  0.14390  0.52060  1.0000 0.1099554586
H   H15       1.0  0.62330  0.94470  0.47940  1.0000 0.1099554586
H   H16       1.0  0.19470  0.21530  0.82140  1.0000 0.1099554586
H   H17       1.0  0.72060  0.27240  0.27540  1.0000 0.1297361735
H   H18       1.0  0.69520  0.47060  0.94820  1.0000 0.1297361735
H   H19       1.0  0.52240  0.74700  0.05180  1.0000 0.1297361735
H   H20       1.0  0.99700  0.44520  0.72460  1.0000 0.1297361735
H   H21       1.0  0.52940  0.47760  0.22460  1.0000 0.1297361735
H   H22       1.0  0.55480  0.27940  0.55180  1.0000 0.1297361735
H   H23       1.0  0.72760  0.00300  0.44820  1.0000 0.1297361735
H   H24       1.0  0.25300  0.30480  0.77540  1.0000 0.1297361735
H   H25       1.0  0.64510  0.14760  0.23270  1.0000 0.1208426367
H   H26       1.0  0.66240  0.39510  0.99750  1.0000 0.1208426367
H   H27       1.0  0.39760  0.66490  0.00250  1.0000 0.1208426367
H   H28       1.0  0.91490  0.41240  0.76730  1.0000 0.1208426367
H   H29       1.0  0.60490  0.60240  0.26730  1.0000 0.1208426367
H   H30       1.0  0.58760  0.35490  0.50250  1.0000 0.1208426367
H   H31       1.0  0.85240  0.08510  0.49750  1.0000 0.1208426367
H   H32       1.0  0.33510  0.33760  0.73270  1.0000 0.1208426367
H   H33       1.0  0.67140  0.91170  0.16690  1.0000 0.1297361735
H   H34       1.0  0.75450  0.42140  0.25970  1.0000 0.1297361735
H   H35       1.0  0.16170  0.49480  0.74030  1.0000 0.1297361735
H   H36       1.0  0.74480  0.50450  0.83310  1.0000 0.1297361735
H   H37       1.0  0.57860  0.83830  0.33310  1.0000 0.1297361735
H   H38       1.0  0.49550  0.32860  0.24030  1.0000 0.1297361735
H   H39       1.0  0.08830  0.25520  0.75970  1.0000 0.1297361735
H   H40       1.0  0.50520  0.24550  0.66690  1.0000 0.1297361735
H   H41       1.0  0.60220  0.88670  0.13990  1.0000 0.1396156723
H   H42       1.0  0.71230  0.35220  0.21550  1.0000 0.1396156723
H   H43       1.0  0.13670  0.49680  0.78450  1.0000 0.1396156723
H   H44       1.0  0.74680  0.46230  0.86010  1.0000 0.1396156723
H   H45       1.0  0.64780  0.86330  0.36010  1.0000 0.1396156723
H   H46       1.0  0.53770  0.39780  0.28450  1.0000 0.1396156723
H   H47       1.0  0.11330  0.25320  0.71550  1.0000 0.1396156723
H   H48       1.0  0.50320  0.28770  0.63990  1.0000 0.1396156723
H   H49       1.0  0.68030  0.91470  0.09100  1.0000 0.0903624821
H   H50       1.0  0.83930  0.43030  0.26560  1.0000 0.0903624821
H   H51       1.0  0.16470  0.57370  0.73440  1.0000 0.0903624821
H   H52       1.0  0.82370  0.58930  0.90900  1.0000 0.0903624821
H   H53       1.0  0.56970  0.83530  0.40900  1.0000 0.0903624821
H   H54       1.0  0.41070  0.31970  0.23440  1.0000 0.0903624821
H   H55       1.0  0.08530  0.17630  0.76560  1.0000 0.0903624821
H   H56       1.0  0.42630  0.16070  0.59100  1.0000 0.0903624821
H   H57       1.0  0.76260  0.01000  0.12200  1.0000 0.0988027264
H   H58       1.0  0.89060  0.51260  0.25260  1.0000 0.0988027264
H   H59       1.0  0.26000  0.63800  0.74740  1.0000 0.0988027264
H   H60       1.0  0.88800  0.64060  0.87800  1.0000 0.0988027264
H   H61       1.0  0.48740  0.74000  0.37800  1.0000 0.0988027264
H   H62       1.0  0.35940  0.23740  0.24740  1.0000 0.0988027264
H   H63       1.0  0.99000  0.11200  0.75260  1.0000 0.0988027264
H   H64       1.0  0.36200  0.10940  0.62200  1.0000 0.0988027264
H   H65       1.0  0.61870  0.93080  0.06810  1.0000 0.1099554586
H   H66       1.0  0.80060  0.36870  0.18790  1.0000 0.1099554586
H   H67       1.0  0.18080  0.61270  0.81210  1.0000 0.1099554586
H   H68       1.0  0.86270  0.55060  0.93190  1.0000 0.1099554586
H   H69       1.0  0.63130  0.81920  0.43190  1.0000 0.1099554586
H   H70       1.0  0.44940  0.38130  0.31210  1.0000 0.1099554586
H   H71       1.0  0.06920  0.13730  0.68790  1.0000 0.1099554586
H   H72       1.0  0.38730  0.19940  0.56810  1.0000 0.1099554586
H   H73       1.0  0.70080  0.02590  0.09910  1.0000 0.1099554586
H   H74       1.0  0.85170  0.45080  0.17490  1.0000 0.1099554586
H   H75       1.0  0.27590  0.67680  0.82510  1.0000 0.1099554586
H   H76       1.0  0.92680  0.60170  0.90090  1.0000 0.1099554586
H   H77       1.0  0.54920  0.72410  0.40090  1.0000 0.1099554586
H   H78       1.0  0.39830  0.29920  0.32510  1.0000 0.1099554586
H   H79       1.0  0.97410  0.07320  0.67490  1.0000 0.1099554586
H   H80       1.0  0.32320  0.14830  0.59910  1.0000 0.1099554586
H   H81       1.0  0.69580  0.96240  0.01840  1.0000 0.0903624821
H   H82       1.0  0.92740  0.44580  0.23340  1.0000 0.0903624821
H   H83       1.0  0.21240  0.69400  0.76660  1.0000 0.0903624821
H   H84       1.0  0.94400  0.67740  0.98160  1.0000 0.0903624821
H   H85       1.0  0.55420  0.78760  0.48160  1.0000 0.0903624821
H   H86       1.0  0.32260  0.30420  0.26660  1.0000 0.0903624821
H   H87       1.0  0.03760  0.05600  0.73340  1.0000 0.0903624821
H   H88       1.0  0.30600  0.07260  0.51840  1.0000 0.0903624821
H   H89       1.0  0.77920  0.05740  0.05000  1.0000 0.0903624821
H   H90       1.0  0.97920  0.52920  0.22180  1.0000 0.0903624821
H   H91       1.0  0.30740  0.75740  0.77820  1.0000 0.0903624821
H   H92       1.0  0.00740  0.72920  0.95000  1.0000 0.0903624821
H   H93       1.0  0.47080  0.69260  0.45000  1.0000 0.0903624821
H   H94       1.0  0.27080  0.22080  0.27820  1.0000 0.0903624821
H   H95       1.0  0.94260  0.99260  0.72180  1.0000 0.0903624821
H   H96       1.0  0.24260  0.02080  0.55000  1.0000 0.0903624821
H   H97       1.0  0.70080  0.06100  0.02920  1.0000 0.1297361735
H   H98       1.0  0.92160  0.45080  0.13980  1.0000 0.1297361735
H   H99       1.0  0.31100  0.78180  0.86020  1.0000 0.1297361735
H   H100      1.0  0.03180  0.67160  0.97080  1.0000 0.1297361735
H   H101      1.0  0.54920  0.68900  0.47080  1.0000 0.1297361735
H   H102      1.0  0.32840  0.29920  0.36020  1.0000 0.1297361735
H   H103      1.0  0.93900  0.96820  0.63980  1.0000 0.1297361735
H   H104      1.0  0.21820  0.07840  0.52920  1.0000 0.1297361735
H   H105      1.0  0.73920  0.06720  0.99120  1.0000 0.1099554586
H   H106      1.0  0.99800  0.48920  0.17200  1.0000 0.1099554586
H   H107      1.0  0.31720  0.82600  0.82800  1.0000 0.1099554586
H   H108      1.0  0.07600  0.74800  0.00880  1.0000 0.1099554586
H   H109      1.0  0.51080  0.68280  0.50880  1.0000 0.1099554586
H   H110      1.0  0.25200  0.26080  0.32800  1.0000 0.1099554586
H   H111      1.0  0.93280  0.92400  0.67200  1.0000 0.1099554586
H   H112      1.0  0.17400  0.00200  0.49120  1.0000 0.1099554586
H   H113      1.0  0.64190  0.98010  0.98760  1.0000 0.1208426367
H   H114      1.0  0.90430  0.39190  0.16180  1.0000 0.1208426367
H   H115      1.0  0.23010  0.74250  0.83820  1.0000 0.1208426367
H   H116      1.0  0.99250  0.65430  0.01240  1.0000 0.1208426367
H   H117      1.0  0.60810  0.76990  0.51240  1.0000 0.1208426367
H   H118      1.0  0.34570  0.35810  0.33820  1.0000 0.1208426367
H   H119      1.0  0.01990  0.00750  0.66180  1.0000 0.1208426367
H   H120      1.0  0.25750  0.09570  0.48760  1.0000 0.1208426367
H   H121      1.0  0.84430  0.24780  0.18370  1.0000 0.1099554586
H   H122      1.0  0.91060  0.59430  0.09650  1.0000 0.1099554586
H   H123      1.0  0.49780  0.81410  0.90350  1.0000 0.1099554586
H   H124      1.0  0.06410  0.66060  0.81630  1.0000 0.1099554586
H   H125      1.0  0.40570  0.50220  0.31630  1.0000 0.1099554586
H   H126      1.0  0.33940  0.15570  0.40350  1.0000 0.1099554586
H   H127      1.0  0.75220  0.93590  0.59650  1.0000 0.1099554586
H   H128      1.0  0.18590  0.08940  0.68370  1.0000 0.1099554586
H   H129      1.0  0.88080  0.28960  0.11740  1.0000 0.1396156723
H   H130      1.0  0.01340  0.63080  0.09120  1.0000 0.1396156723
H   H131      1.0  0.53960  0.92220  0.90880  1.0000 0.1396156723
H   H132      1.0  0.17220  0.76340  0.88260  1.0000 0.1396156723
H   H133      1.0  0.36920  0.46040  0.38260  1.0000 0.1396156723
H   H134      1.0  0.23660  0.11920  0.40880  1.0000 0.1396156723
H   H135      1.0  0.71040  0.82780  0.59120  1.0000 0.1396156723
H   H136      1.0  0.07780  0.98660  0.61740  1.0000 0.1396156723
H   H137      1.0  0.95570  0.22560  0.11250  1.0000 0.1479171098
H   H138      1.0  0.09320  0.70570  0.23010  1.0000 0.1479171098
H   H139      1.0  0.47560  0.86310  0.76990  1.0000 0.1479171098
H   H140      1.0  0.11310  0.84320  0.88750  1.0000 0.1479171098
H   H141      1.0  0.29430  0.52440  0.38750  1.0000 0.1479171098
H   H142      1.0  0.15680  0.04430  0.26990  1.0000 0.1479171098
H   H143      1.0  0.77440  0.88690  0.73010  1.0000 0.1479171098
H   H144      1.0  0.13690  0.90680  0.61250  1.0000 0.1479171098
H   H145      1.0  0.92010  0.18810  0.18000  1.0000 0.1099554586
H   H146      1.0  0.99010  0.67010  0.23200  1.0000 0.1099554586
H   H147      1.0  0.43810  0.75810  0.76800  1.0000 0.1099554586
H   H148      1.0  0.00810  0.74010  0.82000  1.0000 0.1099554586
H   H149      1.0  0.32990  0.56190  0.32000  1.0000 0.1099554586
H   H150      1.0  0.25990  0.07990  0.26800  1.0000 0.1099554586
H   H151      1.0  0.81190  0.99190  0.73200  1.0000 0.1099554586
H   H152      1.0  0.24190  0.00990  0.68000  1.0000 0.1099554586
H   H153      1.0  0.90100  0.26840  0.04080  1.0000 0.1297361735
H   H154      1.0  0.11020  0.65100  0.13260  1.0000 0.1297361735
H   H155      1.0  0.51840  0.97760  0.86740  1.0000 0.1297361735
H   H156      1.0  0.22760  0.86020  0.95920  1.0000 0.1297361735
H   H157      1.0  0.34900  0.48160  0.45920  1.0000 0.1297361735
H   H158      1.0  0.13980  0.09900  0.36740  1.0000 0.1297361735
H   H159      1.0  0.73160  0.77240  0.63260  1.0000 0.1297361735
H   H160      1.0  0.02240  0.88980  0.54080  1.0000 0.1297361735
H   H161      1.0  0.93620  0.24800  0.04240  1.0000 0.1297361735
H   H162      1.0  0.14380  0.68620  0.18820  1.0000 0.1297361735
H   H163      1.0  0.49800  0.95560  0.81180  1.0000 0.1297361735
H   H164      1.0  0.20560  0.89380  0.95760  1.0000 0.1297361735
H   H165      1.0  0.31380  0.50200  0.45760  1.0000 0.1297361735
H   H166      1.0  0.10620  0.06380  0.31180  1.0000 0.1297361735
H   H167      1.0  0.75200  0.79440  0.68820  1.0000 0.1297361735
H   H168      1.0  0.04440  0.85620  0.54240  1.0000 0.1297361735
H   H169      1.0  0.53660  0.97890  0.03450  1.0000 0.1297361735
H   H170      1.0  0.75210  0.28660  0.05770  1.0000 0.1297361735
H   H171      1.0  0.22890  0.69440  0.94230  1.0000 0.1297361735
H   H172      1.0  0.94440  0.50210  0.96550  1.0000 0.1297361735
H   H173      1.0  0.71340  0.77110  0.46550  1.0000 0.1297361735
H   H174      1.0  0.49790  0.46340  0.44230  1.0000 0.1297361735
H   H175      1.0  0.02110  0.05560  0.55770  1.0000 0.1297361735
H   H176      1.0  0.30560  0.24790  0.53450  1.0000 0.1297361735
H   H177      1.0  0.45600  0.89070  0.95970  1.0000 0.0988027264
H   H178      1.0  0.74630  0.20600  0.06530  1.0000 0.0988027264
H   H179      1.0  0.14070  0.68100  0.93470  1.0000 0.0988027264
H   H180      1.0  0.93100  0.49630  0.04030  1.0000 0.0988027264
H   H181      1.0  0.79400  0.85930  0.54030  1.0000 0.0988027264
H   H182      1.0  0.50370  0.54400  0.43470  1.0000 0.0988027264
H   H183      1.0  0.10930  0.06900  0.56530  1.0000 0.0988027264
H   H184      1.0  0.31900  0.25370  0.45970  1.0000 0.0988027264
H   H185      1.0  0.36570  0.75300  0.94430  1.0000 0.1208426367
H   H186      1.0  0.67140  0.11570  0.11270  1.0000 0.1208426367
H   H187      1.0  0.00300  0.55870  0.88730  1.0000 0.1208426367
H   H188      1.0  0.80870  0.42140  0.05570  1.0000 0.1208426367
H   H189      1.0  0.88430  0.99700  0.55570  1.0000 0.1208426367
H   H190      1.0  0.57860  0.63430  0.38730  1.0000 0.1208426367
H   H191      1.0  0.24700  0.19130  0.61270  1.0000 0.1208426367
H   H192      1.0  0.44130  0.32860  0.44430  1.0000 0.1208426367
H   H193      1.0  0.35610  0.70490  0.00460  1.0000 0.1208426367
H   H194      1.0  0.60150  0.10610  0.15120  1.0000 0.1208426367
H   H195      1.0  0.95490  0.45030  0.84880  1.0000 0.1208426367
H   H196      1.0  0.70030  0.35150  0.99540  1.0000 0.1208426367
H   H197      1.0  0.89390  0.04510  0.49540  1.0000 0.1208426367
H   H198      1.0  0.64850  0.64390  0.34880  1.0000 0.1208426367
H   H199      1.0  0.29510  0.29970  0.65120  1.0000 0.1208426367
H   H200      1.0  0.54970  0.39850  0.50460  1.0000 0.1208426367
H   H201      1.0  0.44330  0.73950  0.24240  1.0000 0.1396156723
H   H202      1.0  0.45090  0.19330  0.20380  1.0000 0.1396156723
H   H203      1.0  0.98950  0.24710  0.79620  1.0000 0.1396156723
H   H204      1.0  0.49710  0.20090  0.75760  1.0000 0.1396156723
H   H205      1.0  0.80670  0.01050  0.25760  1.0000 0.1396156723
H   H206      1.0  0.79910  0.55670  0.29620  1.0000 0.1396156723
H   H207      1.0  0.26050  0.50290  0.70380  1.0000 0.1396156723
H   H208      1.0  0.75290  0.54910  0.74240  1.0000 0.1396156723
H   H209      1.0  0.51370  0.83050  0.27740  1.0000 0.1396156723
H   H210      1.0  0.48630  0.26370  0.18320  1.0000 0.1396156723
H   H211      1.0  0.08050  0.30310  0.81680  1.0000 0.1396156723
H   H212      1.0  0.55310  0.23630  0.72260  1.0000 0.1396156723
H   H213      1.0  0.73630  0.91950  0.22260  1.0000 0.1396156723
H   H214      1.0  0.76370  0.48630  0.31680  1.0000 0.1396156723
H   H215      1.0  0.16950  0.44690  0.68320  1.0000 0.1396156723
H   H216      1.0  0.69690  0.51370  0.77740  1.0000 0.1396156723
H   H217      1.0  0.33840  0.70630  0.24410  1.0000 0.0903624821
H   H218      1.0  0.34430  0.08840  0.13210  1.0000 0.0903624821
H   H219      1.0  0.95630  0.21220  0.86790  1.0000 0.0903624821
H   H220      1.0  0.46220  0.09430  0.75590  1.0000 0.0903624821
H   H221      1.0  0.91160  0.04370  0.25590  1.0000 0.0903624821
H   H222      1.0  0.90570  0.66160  0.36790  1.0000 0.0903624821
H   H223      1.0  0.29370  0.53780  0.63210  1.0000 0.0903624821
H   H224      1.0  0.78780  0.65570  0.74410  1.0000 0.0903624821
H   H225      1.0  0.40780  0.79900  0.27580  1.0000 0.0988027264
H   H226      1.0  0.38200  0.15780  0.10880  1.0000 0.0988027264
H   H227      1.0  0.04900  0.27320  0.89120  1.0000 0.0988027264
H   H228      1.0  0.52320  0.13200  0.72420  1.0000 0.0988027264
H   H229      1.0  0.84220  0.95100  0.22420  1.0000 0.0988027264
H   H230      1.0  0.86800  0.59220  0.39120  1.0000 0.0988027264
H   H231      1.0  0.20100  0.47680  0.60880  1.0000 0.0988027264
H   H232      1.0  0.72680  0.61800  0.77580  1.0000 0.0988027264
H   H233      1.0  0.43090  0.77640  0.33830  1.0000 0.1208426367
H   H234      1.0  0.34260  0.18090  0.15450  1.0000 0.1208426367
H   H235      1.0  0.02640  0.18810  0.84550  1.0000 0.1208426367
H   H236      1.0  0.43810  0.09260  0.66170  1.0000 0.1208426367
H   H237      1.0  0.81910  0.97360  0.16170  1.0000 0.1208426367
H   H238      1.0  0.90740  0.56910  0.34550  1.0000 0.1208426367
H   H239      1.0  0.22360  0.56190  0.65450  1.0000 0.1208426367
H   H240      1.0  0.81190  0.65740  0.83830  1.0000 0.1208426367
H   H241      1.0  0.38070  0.69260  0.30730  1.0000 0.1297361735
H   H242      1.0  0.32340  0.13070  0.18810  1.0000 0.1297361735
H   H243      1.0  0.94260  0.13530  0.81190  1.0000 0.1297361735
H   H244      1.0  0.38530  0.07340  0.69270  1.0000 0.1297361735
H   H245      1.0  0.86930  0.05740  0.19270  1.0000 0.1297361735
H   H246      1.0  0.92660  0.61930  0.31190  1.0000 0.1297361735
H   H247      1.0  0.30740  0.61470  0.68810  1.0000 0.1297361735
H   H248      1.0  0.86470  0.67660  0.80730  1.0000 0.1297361735
H   H249      1.0  0.22120  0.56610  0.00450  1.0000 0.1208426367
H   H250      1.0  0.46670  0.97120  0.15510  1.0000 0.1208426367
H   H251      1.0  0.81610  0.31160  0.84490  1.0000 0.1208426367
H   H252      1.0  0.56160  0.21670  0.99550  1.0000 0.1208426367
H   H253      1.0  0.02880  0.18390  0.49550  1.0000 0.1208426367
H   H254      1.0  0.78330  0.77880  0.34490  1.0000 0.1208426367
H   H255      1.0  0.43390  0.43840  0.65510  1.0000 0.1208426367
H   H256      1.0  0.68840  0.53330  0.50450  1.0000 0.1208426367
H   H257      1.0  0.31940  0.71750  0.33270  1.0000 0.1099554586
H   H258      1.0  0.23670  0.06940  0.10190  1.0000 0.1099554586
H   H259      1.0  0.96750  0.13480  0.89810  1.0000 0.1099554586
H   H260      1.0  0.38480  0.98670  0.66730  1.0000 0.1099554586
H   H261      1.0  0.93060  0.03250  0.16730  1.0000 0.1099554586
H   H262      1.0  0.01330  0.68060  0.39810  1.0000 0.1099554586
H   H263      1.0  0.28250  0.61520  0.60190  1.0000 0.1099554586
H   H264      1.0  0.86520  0.76330  0.83270  1.0000 0.1099554586
H   H265      1.0  0.26750  0.63360  0.29930  1.0000 0.1099554586
H   H266      1.0  0.21820  0.01750  0.13390  1.0000 0.1099554586
H   H267      1.0  0.88360  0.08430  0.86610  1.0000 0.1099554586
H   H268      1.0  0.33430  0.96820  0.70070  1.0000 0.1099554586
H   H269      1.0  0.98250  0.11640  0.20070  1.0000 0.1099554586
H   H270      1.0  0.03180  0.73250  0.36610  1.0000 0.1099554586
H   H271      1.0  0.36640  0.66570  0.63390  1.0000 0.1099554586
H   H272      1.0  0.91570  0.78180  0.79930  1.0000 0.1099554586
H   H273      1.0  0.16490  0.51570  0.06540  1.0000 0.1479171098
H   H274      1.0  0.34950  0.91490  0.14920  1.0000 0.1479171098
H   H275      1.0  0.76570  0.20030  0.85080  1.0000 0.1479171098
H   H276      1.0  0.45030  0.09950  0.93460  1.0000 0.1479171098
H   H277      1.0  0.08510  0.23430  0.43460  1.0000 0.1479171098
H   H278      1.0  0.90050  0.83510  0.35080  1.0000 0.1479171098
H   H279      1.0  0.48430  0.54970  0.64920  1.0000 0.1479171098
H   H280      1.0  0.79970  0.65050  0.56540  1.0000 0.1396156723
H   H281      1.0  0.35870  0.70280  0.39730  1.0000 0.1208426367
H   H282      1.0  0.21140  0.10870  0.15590  1.0000 0.1208426367
H   H283      1.0  0.95280  0.05550  0.84410  1.0000 0.1208426367
H   H284      1.0  0.30550  0.96140  0.60270  1.0000 0.1208426367
H   H285      1.0  0.89130  0.04720  0.10270  1.0000 0.1208426367
H   H286      1.0  0.03860  0.64130  0.34410  1.0000 0.1208426367
H   H287      1.0  0.29720  0.69450  0.65590  1.0000 0.1208426367
H   H288      1.0  0.94450  0.78860  0.89730  1.0000 0.1208426367
H   H289      1.0  0.25870  0.61780  0.37770  1.0000 0.1297361735
H   H290      1.0  0.13100  0.00870  0.14090  1.0000 0.1208426367
H   H291      1.0  0.86780  0.99010  0.85910  1.0000 0.1297361735
H   H292      1.0  0.24010  0.88100  0.62230  1.0000 0.1297361735
H   H293      1.0  0.99130  0.13220  0.12230  1.0000 0.1208426367
H   H294      1.0  0.11900  0.74130  0.35910  1.0000 0.1297361735
H   H295      1.0  0.38220  0.75990  0.64090  1.0000 0.1208426367
H   H296      1.0  0.00990  0.86900  0.87770  1.0000 0.1297361735
H   H297      1.0  0.31230  0.62190  0.36420  1.0000 0.1099554586
H   H298      1.0  0.19810  0.06230  0.19040  1.0000 0.1099554586
H   H299      1.0  0.87190  0.00770  0.80960  1.0000 0.1099554586
H   H300      1.0  0.25770  0.94810  0.63580  1.0000 0.1099554586
H   H301      1.0  0.93770  0.12810  0.13580  1.0000 0.1099554586
H   H302      1.0  0.05190  0.68770  0.30960  1.0000 0.1099554586
H   H303      1.0  0.37810  0.74230  0.69040  1.0000 0.1099554586
H   H304      1.0  0.99230  0.80190  0.86420  1.0000 0.1099554586
H   H305      1.0  0.95040  0.28970  0.97430  1.0000 0.1396156723
H   H306      1.0  0.22610  0.70040  0.16070  1.0000 0.1396156723
H   H307      1.0  0.53970  0.06540  0.83930  1.0000 0.1396156723
H   H308      1.0  0.31540  0.97610  0.02570  1.0000 0.1396156723
H   H309      1.0  0.29960  0.46030  0.52570  1.0000 0.1396156723
H   H310      1.0  0.02390  0.04960  0.33930  1.0000 0.1396156723
H   H311      1.0  0.71030  0.68460  0.66070  1.0000 0.1396156723
H   H312      1.0  0.93460  0.77390  0.47430  1.0000 0.1396156723
H   H313      1.0  0.01110  0.34750  0.91520  1.0000 0.1099554586
H   H314      1.0  0.34590  0.76110  0.16360  1.0000 0.1099554586
H   H315      1.0  0.59750  0.18230  0.83640  1.0000 0.1099554586
H   H316      1.0  0.43230  0.09590  0.08480  1.0000 0.1099554586
H   H317      1.0  0.23890  0.40250  0.58480  1.0000 0.1099554586
H   H318      1.0  0.90410  0.98890  0.33640  1.0000 0.1099554586
H   H319      1.0  0.65250  0.56770  0.66360  1.0000 0.1099554586
H   H320      1.0  0.81770  0.65410  0.41520  1.0000 0.1099554586
H   H321      1.0  0.02010  0.39340  0.08570  1.0000 0.1297361735
H   H322      1.0  0.18440  0.77010  0.12670  1.0000 0.1297361735
H   H323      1.0  0.64340  0.05770  0.87330  1.0000 0.1297361735
H   H324      1.0  0.30770  0.93440  0.91430  1.0000 0.1297361735
H   H325      1.0  0.22990  0.35660  0.41430  1.0000 0.1297361735
H   H326      1.0  0.06560  0.97990  0.37330  1.0000 0.1297361735
H   H327      1.0  0.60660  0.69230  0.62670  1.0000 0.1297361735
H   H328      1.0  0.94230  0.81560  0.58570  1.0000 0.1297361735
H   H329      1.0  0.05540  0.37350  0.08910  1.0000 0.1297361735
H   H330      1.0  0.21630  0.80540  0.18190  1.0000 0.1297361735
H   H331      1.0  0.62350  0.03440  0.81810  1.0000 0.1297361735
H   H332      1.0  0.28440  0.96630  0.91090  1.0000 0.1297361735
H   H333      1.0  0.19460  0.37650  0.41090  1.0000 0.1297361735
H   H334      1.0  0.03370  0.94460  0.31810  1.0000 0.1297361735
H   H335      1.0  0.62650  0.71560  0.68190  1.0000 0.1297361735
H   H336      1.0  0.96560  0.78370  0.58910  1.0000 0.1297361735
H   H337      1.0  0.09870  0.20070  0.34860  1.0000 0.1297361735
H   H338      1.0  0.00010  0.84870  0.39800  1.0000 0.1297361735
H   H339      1.0  0.45070  0.60210  0.60200  1.0000 0.1297361735
H   H340      1.0  0.85210  0.75010  0.65140  1.0000 0.1297361735
H   H341      1.0  0.15130  0.54930  0.15140  1.0000 0.1297361735
H   H342      1.0  0.24990  0.90130  0.10200  1.0000 0.1297361735
H   H343      1.0  0.79930  0.14790  0.89800  1.0000 0.1297361735
H   H344      1.0  0.39790  0.99990  0.84860  1.0000 0.1297361735
H   H345      1.0  0.18970  0.28860  0.30550  1.0000 0.1099554586
H   H346      1.0  0.13420  0.93970  0.40110  1.0000 0.1099554586
H   H347      1.0  0.53860  0.73310  0.59890  1.0000 0.1099554586
H   H348      1.0  0.98310  0.88420  0.69450  1.0000 0.1099554586
H   H349      1.0  0.06030  0.46140  0.19450  1.0000 0.1099554586
H   H350      1.0  0.11580  0.81030  0.09890  1.0000 0.1099554586
H   H351      1.0  0.71140  0.01690  0.90110  1.0000 0.1099554586
H   H352      1.0  0.26690  0.86580  0.80550  1.0000 0.1099554586
H   H353      1.0  0.17910  0.34290  0.26320  1.0000 0.1297361735
H   H354      1.0  0.16590  0.92910  0.33620  1.0000 0.1297361735
H   H355      1.0  0.59290  0.82970  0.66380  1.0000 0.1208426367
H   H356      1.0  0.07970  0.91590  0.73680  1.0000 0.1208426367
H   H357      1.0  0.07090  0.40710  0.23680  1.0000 0.1208426367
H   H358      1.0  0.08410  0.82090  0.16380  1.0000 0.1208426367
H   H359      1.0  0.65710  0.92030  0.83620  1.0000 0.1297361735
H   H360      1.0  0.17030  0.83410  0.76320  1.0000 0.1297361735
H   H361      1.0  0.06730  0.29740  0.26070  1.0000 0.1208426367
H   H362      1.0  0.05660  0.81730  0.26990  1.0000 0.1208426367
H   H363      1.0  0.54740  0.78670  0.73010  1.0000 0.1208426367
H   H364      1.0  0.03670  0.80660  0.73930  1.0000 0.1208426367
H   H365      1.0  0.18270  0.45260  0.23930  1.0000 0.1208426367
H   H366      1.0  0.19340  0.93270  0.23010  1.0000 0.1208426367
H   H367      1.0  0.70260  0.96330  0.76990  1.0000 0.1208426367
H   H368      1.0  0.21330  0.94340  0.76070  1.0000 0.1208426367
H   H369      1.0  0.64760  0.97260  0.32460  1.0000 0.1396156723
H   H370      1.0  0.57300  0.39760  0.17500  1.0000 0.1396156723
H   H371      1.0  0.22260  0.39800  0.82500  1.0000 0.1396156723
H   H372      1.0  0.64800  0.32300  0.67540  1.0000 0.1396156723
H   H373      1.0  0.60240  0.77740  0.17540  1.0000 0.1396156723
H   H374      1.0  0.67700  0.35240  0.32500  1.0000 0.1396156723
H   H375      1.0  0.02740  0.35200  0.67500  1.0000 0.1396156723
H   H376      1.0  0.60200  0.42700  0.82460  1.0000 0.1396156723
H   H377      1.0  0.69260  0.04990  0.30770  1.0000 0.1396156723
H   H378      1.0  0.63490  0.44260  0.14270  1.0000 0.1396156723
H   H379      1.0  0.29990  0.49220  0.85730  1.0000 0.1396156723
H   H380      1.0  0.74220  0.38490  0.69230  1.0000 0.1396156723
H   H381      1.0  0.55740  0.70010  0.19230  1.0000 0.1396156723
H   H382      1.0  0.61510  0.30740  0.35730  1.0000 0.1396156723
H   H383      1.0  0.95010  0.25780  0.64270  1.0000 0.1396156723
H   H384      1.0  0.50780  0.36510  0.80770  1.0000 0.1396156723
H   H385      1.0  0.70570  0.05070  0.40320  1.0000 0.0988027264
H   H386      1.0  0.55250  0.45570  0.15500  1.0000 0.0988027264
H   H387      1.0  0.30070  0.39750  0.84500  1.0000 0.0988027264
H   H388      1.0  0.64750  0.30250  0.59680  1.0000 0.0988027264
H   H389      1.0  0.54430  0.69930  0.09680  1.0000 0.0988027264
H   H390      1.0  0.69750  0.29430  0.34500  1.0000 0.0988027264
H   H391      1.0  0.94930  0.35250  0.65500  1.0000 0.0988027264
H   H392      1.0  0.60250  0.44750  0.90320  1.0000 0.0988027264
H   H393      1.0  0.64260  0.03170  0.37310  1.0000 0.0988027264
H   H394      1.0  0.51950  0.39260  0.11090  1.0000 0.0988027264
H   H395      1.0  0.28170  0.40860  0.88910  1.0000 0.0988027264
H   H396      1.0  0.65860  0.26950  0.62690  1.0000 0.0988027264
H   H397      1.0  0.60740  0.71830  0.12690  1.0000 0.0988027264
H   H398      1.0  0.73050  0.35740  0.38910  1.0000 0.0988027264
H   H399      1.0  0.96830  0.34140  0.61090  1.0000 0.0988027264
H   H400      1.0  0.59140  0.48050  0.87310  1.0000 0.0988027264
H   H401      1.0  0.82120  0.18800  0.39580  1.0000 0.1099554586
H   H402      1.0  0.67540  0.57120  0.13320  1.0000 0.1099554586
H   H403      1.0  0.43800  0.54220  0.86680  1.0000 0.1099554586
H   H404      1.0  0.79220  0.42540  0.60420  1.0000 0.1099554586
H   H405      1.0  0.42880  0.56200  0.10420  1.0000 0.1099554586
H   H406      1.0  0.57460  0.17880  0.36680  1.0000 0.1099554586
H   H407      1.0  0.81200  0.20780  0.63320  1.0000 0.1099554586
H   H408      1.0  0.45780  0.32460  0.89580  1.0000 0.1099554586
H   H409      1.0  0.75980  0.16950  0.36350  1.0000 0.1099554586
H   H410      1.0  0.64630  0.50980  0.09030  1.0000 0.1099554586
H   H411      1.0  0.41950  0.55600  0.90970  1.0000 0.1099554586
H   H412      1.0  0.80600  0.39630  0.63650  1.0000 0.1099554586
H   H413      1.0  0.49020  0.58050  0.13650  1.0000 0.1099554586
H   H414      1.0  0.60370  0.24020  0.40970  1.0000 0.1099554586
H   H415      1.0  0.83050  0.19400  0.59030  1.0000 0.1099554586
H   H416      1.0  0.44400  0.35370  0.86350  1.0000 0.1099554586
H   H417      1.0  0.71060  0.15570  0.42650  1.0000 0.0988027264
H   H418      1.0  0.53410  0.46060  0.05490  1.0000 0.0988027264
H   H419      1.0  0.40570  0.47920  0.94510  1.0000 0.0988027264
H   H420      1.0  0.72920  0.28410  0.57350  1.0000 0.0988027264
H   H421      1.0  0.53940  0.59430  0.07350  1.0000 0.0988027264
H   H422      1.0  0.71590  0.28940  0.44510  1.0000 0.0988027264
H   H423      1.0  0.84430  0.27080  0.55490  1.0000 0.0988027264
H   H424      1.0  0.52080  0.46590  0.92650  1.0000 0.0988027264
H   H425      1.0  0.76920  0.17090  0.45890  1.0000 0.0988027264
H   H426      1.0  0.56030  0.51920  0.09830  1.0000 0.0988027264
H   H427      1.0  0.42090  0.46200  0.90170  1.0000 0.0988027264
H   H428      1.0  0.71200  0.31030  0.54110  1.0000 0.0988027264
H   H429      1.0  0.48080  0.57910  0.04110  1.0000 0.0988027264
H   H430      1.0  0.68970  0.23080  0.40170  1.0000 0.0988027264
H   H431      1.0  0.82910  0.28800  0.59830  1.0000 0.0988027264
H   H432      1.0  0.53800  0.43970  0.95890  1.0000 0.0988027264
H   H433      1.0  0.83820  0.29600  0.47600  1.0000 0.1099554586
H   H434      1.0  0.61220  0.58820  0.04220  1.0000 0.1099554586
H   H435      1.0  0.54600  0.57000  0.95780  1.0000 0.1099554586
H   H436      1.0  0.82000  0.36220  0.52400  1.0000 0.1099554586
H   H437      1.0  0.41180  0.45400  0.02400  1.0000 0.1099554586
H   H438      1.0  0.63780  0.16180  0.45780  1.0000 0.1099554586
H   H439      1.0  0.70400  0.18000  0.54220  1.0000 0.1099554586
H   H440      1.0  0.43000  0.38780  0.97600  1.0000 0.1099554586
H   H441      1.0  0.82420  0.29140  0.42220  1.0000 0.1208426367
H   H442      1.0  0.65200  0.57420  0.03280  1.0000 0.1208426367
H   H443      1.0  0.54140  0.61920  0.96720  1.0000 0.1208426367
H   H444      1.0  0.86920  0.40200  0.57780  1.0000 0.1208426367
H   H445      1.0  0.42580  0.45860  0.07780  1.0000 0.1208426367
H   H446      1.0  0.59800  0.17580  0.46720  1.0000 0.1208426367
H   H447      1.0  0.70860  0.13080  0.53280  1.0000 0.1208426367
H   H448      1.0  0.38080  0.34800  0.92220  1.0000 0.1208426367
H   H449      1.0  0.88790  0.30770  0.44620  1.0000 0.1297361735
H   H450      1.0  0.69170  0.63790  0.08020  1.0000 0.1297361735
H   H451      1.0  0.55770  0.61150  0.91980  1.0000 0.1297361735
H   H452      1.0  0.86150  0.44170  0.55380  1.0000 0.1297361735
H   H453      1.0  0.36210  0.44230  0.05380  1.0000 0.1297361735
H   H454      1.0  0.55830  0.11210  0.41980  1.0000 0.1297361735
H   H455      1.0  0.69230  0.13850  0.58020  1.0000 0.1297361735
H   H456      1.0  0.38850  0.30830  0.94620  1.0000 0.1297361735
C   C1        1.0  0.81907  0.24225  0.27892  1.0000 0.2758148257
C   C2        1.0  0.79015  0.56907  0.07682  1.0000 0.2758148257
C   C3        1.0  0.49225  0.71333  0.92318  1.0000 0.2758148257
C   C4        1.0  0.96333  0.54015  0.72108  1.0000 0.2758148257
C   C5        1.0  0.43093  0.50775  0.22108  1.0000 0.2758148257
C   C6        1.0  0.45985  0.18093  0.42318  1.0000 0.2758148257
C   C7        1.0  0.75775  0.03667  0.57682  1.0000 0.2758148257
C   C8        1.0  0.28667  0.20985  0.77892  1.0000 0.2758148257
C   C9        1.0  0.86186  0.31549  0.30475  1.0000 -0.2183431342
C   C10       1.0  0.80711  0.61186  0.04637  1.0000 -0.2183431342
C   C11       1.0  0.56549  0.76074  0.95363  1.0000 -0.2183431342
C   C12       1.0  0.01074  0.55711  0.69525  1.0000 -0.2183431342
C   C13       1.0  0.38814  0.43451  0.19525  1.0000 -0.2183431342
C   C14       1.0  0.44289  0.13814  0.45363  1.0000 -0.2183431342
C   C15       1.0  0.68451  0.98926  0.54637  1.0000 -0.2183431342
C   C16       1.0  0.23926  0.19289  0.80475  1.0000 -0.2183431342
C   C17       1.0  0.82544  0.32599  0.30343  1.0000 -0.0667914282
C   C18       1.0  0.77201  0.57544  0.99945  1.0000 -0.0667914282
C   C19       1.0  0.57599  0.77256  0.00055  1.0000 -0.0667914282
C   C20       1.0  0.02256  0.52201  0.69657  1.0000 -0.0667914282
C   C21       1.0  0.42456  0.42401  0.19657  1.0000 -0.0667914282
C   C22       1.0  0.47799  0.17456  0.50055  1.0000 -0.0667914282
C   C23       1.0  0.67401  0.97744  0.49945  1.0000 -0.0667914282
C   C24       1.0  0.22744  0.22799  0.80343  1.0000 -0.0667914282
C   C25       1.0  0.74518  0.26431  0.27649  1.0000 -0.1365709384
C   C26       1.0  0.71869  0.49518  0.98087  1.0000 -0.1365709384
C   C27       1.0  0.51431  0.73782  0.01913  1.0000 -0.1365709384
C   C28       1.0  0.98782  0.46869  0.72351  1.0000 -0.1365709384
C   C29       1.0  0.50482  0.48569  0.22351  1.0000 -0.1365709384
C   C30       1.0  0.53131  0.25482  0.51913  1.0000 -0.1365709384
C   C31       1.0  0.73569  0.01218  0.48087  1.0000 -0.1365709384
C   C32       1.0  0.26218  0.28131  0.77649  1.0000 -0.1365709384
C   C33       1.0  0.70080  0.19065  0.25125  1.0000 -0.0808321917
C   C34       1.0  0.69955  0.45080  0.01015  1.0000 -0.0808321917
C   C35       1.0  0.44065  0.68940  0.98985  1.0000 -0.0808321917
C   C36       1.0  0.93940  0.44955  0.74875  1.0000 -0.0808321917
C   C37       1.0  0.54920  0.55935  0.24875  1.0000 -0.0808321917
C   C38       1.0  0.55045  0.29920  0.48985  1.0000 -0.0808321917
C   C39       1.0  0.80935  0.06060  0.51015  1.0000 -0.0808321917
C   C40       1.0  0.31060  0.30045  0.75125  1.0000 -0.0808321917
C   C41       1.0  0.73636  0.17776  0.25232  1.0000 -0.1524276789
C   C42       1.0  0.73404  0.48636  0.05860  1.0000 -0.1524276789
C   C43       1.0  0.42776  0.67544  0.94140  1.0000 -0.1524276789
C   C44       1.0  0.92544  0.48404  0.74768  1.0000 -0.1524276789
C   C45       1.0  0.51364  0.57224  0.24768  1.0000 -0.1524276789
C   C46       1.0  0.51596  0.26364  0.44140  1.0000 -0.1524276789
C   C47       1.0  0.82224  0.07456  0.55860  1.0000 -0.1524276789
C   C48       1.0  0.32456  0.26596  0.75232  1.0000 -0.1524276789
C   C49       1.0  0.68407  0.09702  0.22329  1.0000 0.4260090592
C   C50       1.0  0.71078  0.43407  0.08705  1.0000 0.424749231
C   C51       1.0  0.34702  0.62373  0.91295  1.0000 0.4260090592
C   C52       1.0  0.87373  0.46078  0.77671  1.0000 0.424749231
C   C53       1.0  0.56593  0.65298  0.27671  1.0000 0.424749231
C   C54       1.0  0.53922  0.31593  0.41295  1.0000 0.424749231
C   C55       1.0  0.90298  0.12627  0.58705  1.0000 0.4260090592
C   C56       1.0  0.37627  0.28922  0.72329  1.0000 0.424749231
C   C57       1.0  0.70316  0.00441  0.18557  1.0000 0.4505497125
C   C58       1.0  0.76759  0.45316  0.19875  1.0000 0.4505497125
C   C59       1.0  0.25441  0.56884  0.80125  1.0000 0.4505497125
C   C60       1.0  0.81884  0.51759  0.81443  1.0000 0.4505497125
C   C61       1.0  0.54684  0.74559  0.31443  1.0000 0.4505497125
C   C62       1.0  0.48241  0.29684  0.30125  1.0000 0.4505497125
C   C63       1.0  0.99559  0.18116  0.69875  1.0000 0.4505497125
C   C64       1.0  0.43116  0.23241  0.68557  1.0000 0.4505497125
C   C65       1.0  0.66309  0.93281  0.15130  1.0000 -0.3191754054
C   C66       1.0  0.76179  0.41309  0.23028  1.0000 -0.3191754054
C   C67       1.0  0.18281  0.53151  0.76972  1.0000 -0.3191754054
C   C68       1.0  0.78151  0.51179  0.84870  1.0000 -0.3191754054
C   C69       1.0  0.58691  0.81719  0.34870  1.0000 -0.3191754054
C   C70       1.0  0.48821  0.33691  0.26972  1.0000 -0.3191754054
C   C71       1.0  0.06719  0.21849  0.73028  1.0000 -0.3191754054
C   C72       1.0  0.46849  0.23821  0.65130  1.0000 -0.3191754054
C   C73       1.0  0.70088  0.96017  0.11005  1.0000 -0.1365709384
C   C74       1.0  0.84083  0.45088  0.24071  1.0000 -0.1365709384
C   C75       1.0  0.21017  0.60012  0.75929  1.0000 -0.1365709384
C   C76       1.0  0.85012  0.59083  0.88995  1.0000 -0.1365709384
C   C77       1.0  0.54912  0.78983  0.38995  1.0000 -0.1365709384
C   C78       1.0  0.40917  0.29912  0.25929  1.0000 -0.1365709384
C   C79       1.0  0.03983  0.14988  0.74071  1.0000 -0.1365709384
C   C80       1.0  0.39988  0.15917  0.61005  1.0000 -0.1365709384
C   C81       1.0  0.68032  0.98060  0.07992  1.0000 -0.1879124808
C   C82       1.0  0.85040  0.43032  0.19972  1.0000 -0.1879124808
C   C83       1.0  0.23060  0.65068  0.80028  1.0000 -0.1879124808
C   C84       1.0  0.90068  0.60040  0.92008  1.0000 -0.1879124808
C   C85       1.0  0.56968  0.76940  0.42008  1.0000 -0.1879124808
C   C86       1.0  0.39960  0.31968  0.30028  1.0000 -0.1879124808
C   C87       1.0  0.01940  0.09932  0.69972  1.0000 -0.1879124808
C   C88       1.0  0.34932  0.14960  0.57992  1.0000 -0.1879124808
C   C89       1.0  0.71756  0.00832  0.03828  1.0000 -0.1030469164
C   C90       1.0  0.92928  0.46756  0.20924  1.0000 -0.1030469164
C   C91       1.0  0.25832  0.72004  0.79076  1.0000 -0.1030469164
C   C92       1.0  0.97004  0.67928  0.96172  1.0000 -0.1030469164
C   C93       1.0  0.53244  0.74168  0.46172  1.0000 -0.1030469164
C   C94       1.0  0.32072  0.28244  0.29076  1.0000 -0.1030469164
C   C95       1.0  0.99168  0.02996  0.70924  1.0000 -0.1030469164
C   C96       1.0  0.27996  0.07072  0.53828  1.0000 -0.1030469164
C   C97       1.0  0.69824  0.03120  0.00904  1.0000 -0.3998477402
C   C98       1.0  0.93920  0.44824  0.16704  1.0000 -0.3998477402
C   C99       1.0  0.28120  0.77216  0.83296  1.0000 -0.3998477402
C   C100      1.0  0.02216  0.68920  0.99096  1.0000 -0.3998477402
C   C101      1.0  0.55176  0.71880  0.49096  1.0000 -0.3998477402
C   C102      1.0  0.31080  0.30176  0.33296  1.0000 -0.3998477402
C   C103      1.0  0.96880  0.97784  0.66704  1.0000 -0.3998477402
C   C104      1.0  0.22784  0.06080  0.50904  1.0000 -0.3998477402
C   C105      1.0  0.86754  0.24327  0.16901  1.0000 0.0703399455
C   C106      1.0  0.94853  0.61754  0.12427  1.0000 0.0703399455
C   C107      1.0  0.49327  0.82426  0.87573  1.0000 0.0703399455
C   C108      1.0  0.07426  0.69853  0.83099  1.0000 0.0703399455
C   C109      1.0  0.38246  0.50673  0.33099  1.0000 0.0703399455
C   C110      1.0  0.30147  0.13246  0.37573  1.0000 0.0703399455
C   C111      1.0  0.75673  0.92574  0.62427  1.0000 0.0703399455
C   C112      1.0  0.17574  0.05147  0.66901  1.0000 0.0703399455
C   C113      1.0  0.88802  0.26708  0.12910  1.0000 -0.2183431342
C   C114      1.0  0.00892  0.63802  0.12094  1.0000 -0.2183431342
C   C115      1.0  0.51708  0.88798  0.87906  1.0000 -0.2183431342
C   C116      1.0  0.13798  0.75892  0.87090  1.0000 -0.2183431342
C   C117      1.0  0.36198  0.48292  0.37090  1.0000 -0.2183431342
C   C118      1.0  0.24108  0.11198  0.37906  1.0000 -0.2183431342
C   C119      1.0  0.73292  0.86202  0.62094  1.0000 -0.2183431342
C   C120      1.0  0.11202  0.99108  0.62910  1.0000 -0.2183431342
C   C121      1.0  0.91875  0.25874  0.10569  1.0000 0.1479171098
C   C122      1.0  0.06306  0.66875  0.16001  1.0000 0.1479171098
C   C123      1.0  0.50874  0.90305  0.83999  1.0000 0.1479171098
C   C124      1.0  0.15305  0.81306  0.89431  1.0000 0.1479171098
C   C125      1.0  0.33125  0.49126  0.39431  1.0000 0.1479171098
C   C126      1.0  0.18694  0.08125  0.33999  1.0000 0.1479171098
C   C127      1.0  0.74126  0.84695  0.66001  1.0000 0.1479171098
C   C128      1.0  0.09695  0.93694  0.60569  1.0000 0.1479171098
C   C129      1.0  0.93194  0.23022  0.12636  1.0000 -0.209822962
C   C130      1.0  0.05558  0.68194  0.20172  1.0000 -0.2183431342
C   C131      1.0  0.48022  0.85386  0.79828  1.0000 -0.209822962
C   C132      1.0  0.10386  0.80558  0.87364  1.0000 -0.209822962
C   C133      1.0  0.31806  0.51978  0.37364  1.0000 -0.209822962
C   C134      1.0  0.19442  0.06806  0.29828  1.0000 -0.209822962
C   C135      1.0  0.76978  0.89614  0.70172  1.0000 -0.209822962
C   C136      1.0  0.14614  0.94442  0.62636  1.0000 -0.209822962
C   C137      1.0  0.91108  0.20842  0.16670  1.0000 0.0760699546
C   C138      1.0  0.99438  0.66108  0.20266  1.0000 0.0760699546
C   C139      1.0  0.45842  0.79172  0.79734  1.0000 0.0760699546
C   C140      1.0  0.04172  0.74438  0.83330  1.0000 0.0760699546
C   C141      1.0  0.33892  0.54158  0.33333  1.0000 0.0760699546
C   C142      1.0  0.25562  0.08892  0.29734  1.0000 0.0760699546
C   C143      1.0  0.79158  0.95828  0.70266  1.0000 0.0760699546
C   C144      1.0  0.20828  0.00562  0.66667  1.0000 0.0760699546
C   C145      1.0  0.94096  0.28163  0.05999  1.0000 -0.2183431342
C   C146      1.0  0.13097  0.69096  0.15933  1.0000 -0.2183431342
C   C147      1.0  0.53163  0.97164  0.84067  1.0000 -0.2183431342
C   C148      1.0  0.22164  0.88097  0.94001  1.0000 -0.2183431342
C   C149      1.0  0.30904  0.46837  0.44001  1.0000 -0.2183431342
C   C150      1.0  0.11903  0.05904  0.34067  1.0000 -0.2183431342
C   C151      1.0  0.71837  0.77836  0.65933  1.0000 -0.2183431342
C   C152      1.0  0.02836  0.86903  0.55999  1.0000 -0.2183431342
C   C153      1.0  0.49471  0.89496  0.06647  1.0000 0.2902164069
C   C154      1.0  0.67824  0.24471  0.09975  1.0000 0.2902164069
C   C155      1.0  0.14496  0.57849  0.90025  1.0000 0.2902164069
C   C156      1.0  0.82849  0.42824  0.93353  1.0000 0.2902164069
C   C157      1.0  0.75529  0.85504  0.43353  1.0000 0.2902164069
C   C158      1.0  0.57176  0.50529  0.40025  1.0000 0.2902164069
C   C159      1.0  0.10504  0.17151  0.59975  1.0000 0.2902164069
C   C160      1.0  0.42151  0.32176  0.56647  1.0000 0.2902164069
C   C161      1.0  0.49972  0.92290  0.02902  1.0000 -0.209822962
C   C162      1.0  0.72070  0.24972  0.07682  1.0000 -0.209822962
C   C163      1.0  0.17290  0.64388  0.92318  1.0000 -0.209822962
C   C164      1.0  0.89388  0.47070  0.97098  1.0000 -0.209822962
C   C165      1.0  0.75028  0.82710  0.47098  1.0000 -0.209822962
C   C166      1.0  0.52930  0.50028  0.42318  1.0000 -0.209822962
C   C167      1.0  0.07710  0.10612  0.57682  1.0000 -0.209822962
C   C168      1.0  0.35612  0.27930  0.52902  1.0000 -0.209822962
C   C169      1.0  0.45192  0.87049  0.98441  1.0000 -0.0808321917
C   C170      1.0  0.71751  0.20192  0.08143  1.0000 -0.0808321917
C   C171      1.0  0.12049  0.63608  0.91857  1.0000 -0.0808321917
C   C172      1.0  0.88608  0.46751  0.01559  1.0000 -0.0808321917
C   C173      1.0  0.79808  0.87951  0.51559  1.0000 -0.0808321917
C   C174      1.0  0.53249  0.54808  0.41857  1.0000 -0.0808321917
C   C175      1.0  0.12951  0.11392  0.58143  1.0000 -0.0808321917
C   C176      1.0  0.36392  0.28249  0.48441  1.0000 -0.0808321917
C   C177      1.0  0.39813  0.78880  0.97513  1.0000 -0.1319041523
C   C178      1.0  0.67300  0.14813  0.10933  1.0000 -0.1319041523
C   C179      1.0  0.03880  0.56367  0.89067  1.0000 -0.1319041523
C   C180      1.0  0.81367  0.42300  0.02487  1.0000 -0.1319041523
C   C181      1.0  0.85187  0.96120  0.52487  1.0000 -0.1319041523
C   C182      1.0  0.57700  0.60187  0.39067  1.0000 -0.1319041523
C   C183      1.0  0.21120  0.18633  0.60933  1.0000 -0.1319041523
C   C184      1.0  0.43633  0.32700  0.47513  1.0000 -0.1319041523
C   C185      1.0  0.39271  0.76092  0.01103  1.0000 -0.0913447625
C   C186      1.0  0.63168  0.14271  0.13179  1.0000 -0.0913447625
C   C187      1.0  0.01092  0.49989  0.86821  1.0000 -0.0913447625
C   C188      1.0  0.74989  0.38168  0.98897  1.0000 -0.0913447625
C   C189      1.0  0.85729  0.98908  0.48897  1.0000 -0.0913447625
C   C190      1.0  0.61832  0.60729  0.36821  1.0000 -0.0913447625
C   C191      1.0  0.23908  0.25011  0.63179  1.0000 -0.0913447625
C   C192      1.0  0.50011  0.36832  0.51103  1.0000 -0.0913447625
C   C193      1.0  0.43887  0.81136  0.05703  1.0000 -0.1524276789
C   C194      1.0  0.63184  0.18887  0.12751  1.0000 -0.1524276789
C   C195      1.0  0.06136  0.50433  0.87249  1.0000 -0.1524276789
C   C196      1.0  0.75433  0.38184  0.94297  1.0000 -0.1524276789
C   C197      1.0  0.81113  0.93864  0.44297  1.0000 -0.1524276789
C   C198      1.0  0.61816  0.56113  0.37249  1.0000 -0.1524276789
C   C199      1.0  0.18864  0.24567  0.62751  1.0000 -0.1524276789
C   C200      1.0  0.49567  0.36816  0.55703  1.0000 -0.1524276789
C   C201      1.0  0.42759  0.77432  0.09351  1.0000 0.4417569284
C   C202      1.0  0.58408  0.17759  0.15327  1.0000 0.4417569284
C   C203      1.0  0.02432  0.43081  0.84673  1.0000 0.4417569284
C   C204      1.0  0.68081  0.33408  0.90649  1.0000 0.4417569284
C   C205      1.0  0.82241  0.97568  0.40649  1.0000 0.4417569284
C   C206      1.0  0.66592  0.57241  0.34673  1.0000 0.4417569284
C   C207      1.0  0.22568  0.31919  0.65327  1.0000 0.4417569284
C   C208      1.0  0.56919  0.41592  0.59351  1.0000 0.4417569284
C   C209      1.0  0.47741  0.82003  0.21164  1.0000 0.4417569284
C   C210      1.0  0.51577  0.22741  0.15738  1.0000 0.4417569284
C   C211      1.0  0.07003  0.35839  0.84262  1.0000 0.4417569284
C   C212      1.0  0.60839  0.26577  0.78836  1.0000 0.4417569284
C   C213      1.0  0.77259  0.92997  0.28836  1.0000 0.4417569284
C   C214      1.0  0.73423  0.52259  0.34262  1.0000 0.4417569284
C   C215      1.0  0.17997  0.39161  0.65738  1.0000 0.4417569284
C   C216      1.0  0.64161  0.48423  0.71164  1.0000 0.4417569284
C   C217      1.0  0.46126  0.78604  0.25170  1.0000 -0.3191754054
C   C218      1.0  0.45956  0.21126  0.17522  1.0000 -0.3191754054
C   C219      1.0  0.03604  0.28434  0.82478  1.0000 -0.3191754054
C   C220      1.0  0.53434  0.20956  0.74830  1.0000 -0.3191754054
C   C221      1.0  0.78874  0.96396  0.24830  1.0000 -0.3191754054
C   C222      1.0  0.79044  0.53874  0.32478  1.0000 -0.3191754054
C   C223      1.0  0.21396  0.46566  0.67522  1.0000 -0.3191754054
C   C224      1.0  0.71566  0.54044  0.75170  1.0000 -0.3191754054
C   C225      1.0  0.39196  0.75374  0.26890  1.0000 -0.122116479
C   C226      1.0  0.37306  0.14196  0.13822  1.0000 -0.122116479
C   C227      1.0  0.00374  0.23484  0.86178  1.0000 -0.122116479
C   C228      1.0  0.48484  0.12306  0.73110  1.0000 -0.122116479
C   C229      1.0  0.85804  0.99626  0.23110  1.0000 -0.122116479
C   C230      1.0  0.87694  0.60804  0.36178  1.0000 -0.122116479
C   C231      1.0  0.24626  0.51516  0.63822  1.0000 -0.122116479
C   C232      1.0  0.76516  0.62694  0.76890  1.0000 -0.122116479
C   C233      1.0  0.38074  0.72560  0.31234  1.0000 -0.1786959711
C   C234      1.0  0.31840  0.13074  0.15514  1.0000 -0.1786959711
C   C235      1.0  0.97560  0.16326  0.84486  1.0000 -0.1786959711
C   C236      1.0  0.41326  0.06840  0.68766  1.0000 -0.1786959711
C   C237      1.0  0.86926  0.02440  0.18766  1.0000 -0.1786959711
C   C238      1.0  0.93160  0.61926  0.34486  1.0000 -0.1786959711
C   C239      1.0  0.27440  0.58674  0.65514  1.0000 -0.1786959711
C   C240      1.0  0.83674  0.68160  0.81234  1.0000 -0.1786959711
C   C241      1.0  0.16479  0.50878  0.99817  1.0000 0.0988027264
C   C242      1.0  0.41662  0.91479  0.15601  1.0000 0.0988027264
C   C243      1.0  0.75878  0.26061  0.84399  1.0000 0.0988027264
C   C244      1.0  0.51061  0.16662  0.00183  1.0000 0.0988027264
C   C245      1.0  0.08521  0.24122  0.50183  1.0000 0.0988027264
C   C246      1.0  0.83338  0.83521  0.34399  1.0000 0.0988027264
C   C247      1.0  0.49122  0.48939  0.65601  1.0000 0.0988027264
C   C248      1.0  0.73939  0.58338  0.49817  1.0000 0.0988027264
C   C249      1.0  0.31830  0.68380  0.32530  1.0000 -0.122116479
C   C250      1.0  0.24300  0.06830  0.13450  1.0000 -0.122116479
C   C251      1.0  0.93380  0.10850  0.86550  1.0000 -0.122116479
C   C252      1.0  0.35850  0.99300  0.67470  1.0000 -0.122116479
C   C253      1.0  0.93170  0.06620  0.17470  1.0000 -0.122116479
C   C254      1.0  0.00700  0.68170  0.36550  1.0000 -0.122116479
C   C255      1.0  0.31620  0.64150  0.63450  1.0000 -0.122116479
C   C256      1.0  0.89150  0.75700  0.82530  1.0000 -0.122116479
C   C257      1.0  0.13243  0.47924  0.03467  1.0000 -0.1995435012
C   C258      1.0  0.34776  0.88243  0.15319  1.0000 -0.1995435012
C   C259      1.0  0.72924  0.19457  0.84681  1.0000 -0.1995435012
C   C260      1.0  0.44457  0.09776  0.96533  1.0000 -0.1995435012
C   C261      1.0  0.11757  0.27076  0.46533  1.0000 -0.1995435012
C   C262      1.0  0.90224  0.86757  0.34681  1.0000 -0.1995435012
C   C263      1.0  0.52076  0.55543  0.65319  1.0000 -0.1995435012
C   C264      1.0  0.80543  0.65224  0.53467  1.0000 -0.1995435012
C   C265      1.0  0.31130  0.65360  0.37070  1.0000 -0.3717725108
C   C266      1.0  0.19060  0.06130  0.15770  1.0000 -0.3717725108
C   C267      1.0  0.90360  0.03290  0.84230  1.0000 -0.3717725108
C   C268      1.0  0.28290  0.94060  0.62930  1.0000 -0.3717725108
C   C269      1.0  0.93870  0.09640  0.12930  1.0000 -0.3717725108
C   C270      1.0  0.05940  0.68870  0.34230  1.0000 -0.3717725108
C   C271      1.0  0.34640  0.71710  0.65770  1.0000 -0.3717725108
C   C272      1.0  0.96710  0.80940  0.87070  1.0000 -0.3717725108
C   C273      1.0  0.05266  0.39646  0.02672  1.0000 0.1632784923
C   C274      1.0  0.27594  0.80266  0.15620  1.0000 0.1632784923
C   C275      1.0  0.64646  0.11974  0.84380  1.0000 0.1632784923
C   C276      1.0  0.36974  0.02594  0.97328  1.0000 0.1632784923
C   C277      1.0  0.19734  0.35354  0.47328  1.0000 0.1632784923
C   C278      1.0  0.97406  0.94734  0.34380  1.0000 0.1632784923
C   C279      1.0  0.60354  0.63026  0.65620  1.0000 0.1632784923
C   C280      1.0  0.88026  0.72406  0.52672  1.0000 0.1632784923
C   C281      1.0  0.00678  0.34724  0.98122  1.0000 -0.209822962
C   C282      1.0  0.27556  0.75678  0.15954  1.0000 -0.209822962
C   C283      1.0  0.59724  0.11602  0.84046  1.0000 -0.209822962
C   C284      1.0  0.36602  0.02556  0.01878  1.0000 -0.209822962
C   C285      1.0  0.24322  0.40276  0.51878  1.0000 -0.209822962
C   C286      1.0  0.97444  0.99322  0.34046  1.0000 -0.209822962
C   C287      1.0  0.65276  0.63398  0.65954  1.0000 -0.209822962
C   C288      1.0  0.88398  0.72444  0.48122  1.0000 -0.209822962
C   C289      1.0  0.04325  0.38196  0.94641  1.0000 0.0760699546
C   C290      1.0  0.34684  0.79325  0.16129  1.0000 0.0760699546
C   C291      1.0  0.63196  0.18555  0.83871  1.0000 0.0760699546
C   C292      1.0  0.43555  0.09684  0.05359  1.0000 0.0703399455
C   C293      1.0  0.20675  0.36804  0.55359  1.0000 0.0760699546
C   C294      1.0  0.90316  0.95675  0.33871  1.0000 0.0760699546
C   C295      1.0  0.61804  0.56445  0.66129  1.0000 0.0760699546
C   C296      1.0  0.81445  0.65316  0.44641  1.0000 0.0703399455
C   C297      1.0  0.01740  0.36150  0.06830  1.0000 -0.209822962
C   C298      1.0  0.19910  0.76740  0.15590  1.0000 -0.209822962
C   C299      1.0  0.61150  0.04320  0.84410  1.0000 -0.209822962
C   C300      1.0  0.29320  0.94910  0.93170  1.0000 -0.209822962
C   C301      1.0  0.23260  0.38850  0.43170  1.0000 -0.209822962
C   C302      1.0  0.05090  0.98260  0.34410  1.0000 -0.209822962
C   C303      1.0  0.63850  0.70680  0.65590  1.0000 -0.209822962
C   C304      1.0  0.95680  0.80090  0.56830  1.0000 -0.209822962
C   C305      1.0  0.02687  0.19570  0.33217  1.0000 0.2902164069
C   C306      1.0  0.94470  0.77687  0.33117  1.0000 0.2902164069
C   C307      1.0  0.44570  0.61353  0.66883  1.0000 0.2902164069
C   C308      1.0  0.86353  0.69470  0.66783  1.0000 0.2902164069
C   C309      1.0  0.22313  0.55430  0.16783  1.0000 0.2902164069
C   C310      1.0  0.30530  0.97313  0.16883  1.0000 0.2902164069
C   C311      1.0  0.80430  0.13647  0.83117  1.0000 0.2902164069
C   C312      1.0  0.38647  0.05530  0.83217  1.0000 0.2902164069
C   C313      1.0  0.09216  0.22062  0.33118  1.0000 -0.2415090687
C   C314      1.0  0.01098  0.84216  0.37154  1.0000 -0.2415090687
C   C315      1.0  0.47062  0.63944  0.62846  1.0000 -0.2415090687
C   C316      1.0  0.88944  0.76098  0.66882  1.0000 -0.2415090687
C   C317      1.0  0.15784  0.52938  0.16882  1.0000 -0.2415090687
C   C318      1.0  0.23902  0.90784  0.12846  1.0000 -0.2415090687
C   C319      1.0  0.77938  0.11056  0.87154  1.0000 -0.2415090687
C   C320      1.0  0.36056  0.98902  0.83118  1.0000 -0.2415090687
C   C321      1.0  0.14625  0.27302  0.30567  1.0000 -0.0808321917
C   C322      1.0  0.09058  0.89625  0.37323  1.0000 -0.0808321917
C   C323      1.0  0.52302  0.71735  0.62677  1.0000 -0.0808321917
C   C324      1.0  0.96735  0.84058  0.69433  1.0000 -0.0808321917
C   C325      1.0  0.10375  0.47698  0.19433  1.0000 -0.0808321917
C   C326      1.0  0.15942  0.85375  0.12677  1.0000 -0.0808321917
C   C327      1.0  0.72698  0.03265  0.87323  1.0000 -0.0808321917
C   C328      1.0  0.28265  0.90942  0.80567  1.0000 -0.0808321917
C   C329      1.0  0.13960  0.30441  0.27981  1.0000 -0.1524276789
C   C330      1.0  0.10979  0.88960  0.33519  1.0000 -0.1524276789
C   C331      1.0  0.55441  0.77460  0.66481  1.0000 -0.1524276789
C   C332      1.0  0.02460  0.85979  0.72019  1.0000 -0.1524276789
C   C333      1.0  0.11040  0.44559  0.22019  1.0000 -0.1524276789
C   C334      1.0  0.14021  0.86040  0.16481  1.0000 -0.1524276789
C   C335      1.0  0.69559  0.97540  0.83519  1.0000 -0.1524276789
C   C336      1.0  0.22540  0.89021  0.77981  1.0000 -0.1524276789
C   C337      1.0  0.07371  0.27792  0.27903  1.0000 -0.1030469164
C   C338      1.0  0.04468  0.82371  0.29579  1.0000 -0.1030469164
C   C339      1.0  0.52792  0.74889  0.70421  1.0000 -0.1030469164
C   C340      1.0  0.99889  0.79468  0.72097  1.0000 -0.1030469164
C   C341      1.0  0.17629  0.47208  0.22097  1.0000 -0.1030469164
C   C342      1.0  0.20532  0.92629  0.20421  1.0000 -0.1030469164
C   C343      1.0  0.72208  0.00111  0.79579  1.0000 -0.1030469164
C   C344      1.0  0.25111  0.95532  0.77903  1.0000 -0.1030469164
C   C345      1.0  0.01642  0.22359  0.30421  1.0000 -0.1576662752
C   C346      1.0  0.96221  0.76642  0.29283  1.0000 -0.1576662752
C   C347      1.0  0.47359  0.66938  0.70717  1.0000 -0.1576662752
C   C348      1.0  0.91938  0.71221  0.69579  1.0000 -0.1576662752
C   C349      1.0  0.23358  0.52641  0.19579  1.0000 -0.1576662752
C   C350      1.0  0.28779  0.98358  0.20717  1.0000 -0.1576662752
C   C351      1.0  0.77641  0.08062  0.79283  1.0000 -0.1576662752
C   C352      1.0  0.33062  0.03779  0.80421  1.0000 -0.1576662752
C   C353      1.0  0.94578  0.19444  0.29882  1.0000 0.4260090592
C   C354      1.0  0.89696  0.69578  0.25134  1.0000 0.4260090592
C   C355      1.0  0.44444  0.64562  0.74866  1.0000 0.4260090592
C   C356      1.0  0.89562  0.64696  0.70118  1.0000 0.4260090592
C   C357      1.0  0.30422  0.55556  0.20118  1.0000 0.4260090592
C   C358      1.0  0.35304  0.05422  0.24866  1.0000 0.4260090592
C   C359      1.0  0.80556  0.10438  0.75134  1.0000 0.4260090592
C   C360      1.0  0.35438  0.10304  0.79882  1.0000 0.4260090592
C   C361      1.0  0.77485  0.07166  0.33851  1.0000 0.4589034189
C   C362      1.0  0.68634  0.52485  0.20319  1.0000 0.4589034189
C   C363      1.0  0.32166  0.48315  0.79681  1.0000 0.4589034189
C   C364      1.0  0.73315  0.43634  0.66149  1.0000 0.4589034189
C   C365      1.0  0.47515  0.67834  0.16149  1.0000 0.4589034189
C   C366      1.0  0.56366  0.22515  0.29681  1.0000 0.4589034189
C   C367      1.0  0.92834  0.26685  0.70319  1.0000 0.4589034189
C   C368      1.0  0.51685  0.31366  0.83851  1.0000 0.4589034189
C   C369      1.0  0.69732  0.03435  0.33327  1.0000 -0.3073026593
C   C370      1.0  0.61405  0.44732  0.16297  1.0000 -0.3073026593
C   C371      1.0  0.28435  0.45108  0.83703  1.0000 -0.3073026593
C   C372      1.0  0.70108  0.36405  0.66667  1.0000 -0.3073026593
C   C373      1.0  0.55268  0.71565  0.16673  1.0000 -0.3073026593
C   C374      1.0  0.63595  0.30268  0.33703  1.0000 -0.3073026593
C   C375      1.0  0.96565  0.29892  0.66297  1.0000 -0.3073026593
C   C376      1.0  0.54892  0.38595  0.83327  1.0000 -0.3073026593
C   C377      1.0  0.69775  0.06340  0.37735  1.0000 -0.1365709384
C   C378      1.0  0.57040  0.44775  0.13435  1.0000 -0.1365709384
C   C379      1.0  0.31340  0.43605  0.86565  1.0000 -0.1365709384
C   C380      1.0  0.68605  0.32040  0.62265  1.0000 -0.1365709384
C   C381      1.0  0.55225  0.68660  0.12265  1.0000 -0.1319041523
C   C382      1.0  0.67960  0.30225  0.36565  1.0000 -0.1319041523
C   C383      1.0  0.93660  0.31395  0.63435  1.0000 -0.1365709384
C   C384      1.0  0.56395  0.42960  0.87735  1.0000 -0.1365709384
C   C385      1.0  0.76612  0.15642  0.39014  1.0000 -0.1703775021
C   C386      1.0  0.62598  0.51612  0.10970  1.0000 -0.1703775021
C   C387      1.0  0.40642  0.51628  0.89030  1.0000 -0.1703775021
C   C388      1.0  0.76628  0.37598  0.60986  1.0000 -0.1703775021
C   C389      1.0  0.48388  0.59358  0.10986  1.0000 -0.1703775021
C   C390      1.0  0.62402  0.23388  0.39030  1.0000 -0.1703775021
C   C391      1.0  0.84358  0.23372  0.60970  1.0000 -0.1703775021
C   C392      1.0  0.48372  0.37402  0.89014  1.0000 -0.1703775021
C   C393      1.0  0.76479  0.18546  0.43245  1.0000 -0.122116479
C   C394      1.0  0.58234  0.51479  0.07933  1.0000 -0.122116479
C   C395      1.0  0.43546  0.50301  0.92067  1.0000 -0.122116479
C   C396      1.0  0.75301  0.33234  0.56755  1.0000 -0.122116479
C   C397      1.0  0.48521  0.56454  0.06755  1.0000 -0.122116479
C   C398      1.0  0.66766  0.23521  0.42067  1.0000 -0.122116479
C   C399      1.0  0.81454  0.24699  0.57933  1.0000 -0.122116479
C   C400      1.0  0.49699  0.41766  0.93245  1.0000 -0.122116479
C   C401      1.0  0.83490  0.27822  0.44532  1.0000 -0.3826920743
C   C402      1.0  0.63958  0.58490  0.05668  1.0000 -0.3826920743
C   C403      1.0  0.52822  0.58290  0.94332  1.0000 -0.3826920743
C   C404      1.0  0.83290  0.38958  0.55468  1.0000 -0.3826920743
C   C405      1.0  0.41510  0.47178  0.05468  1.0000 -0.3826920743
C   C406      1.0  0.61042  0.16510  0.44332  1.0000 -0.3826920743
C   C407      1.0  0.72178  0.16710  0.55668  1.0000 -0.3826920743
C   C408      1.0  0.41710  0.36042  0.94532  1.0000 -0.3826920743
N   N1        1.0  0.71798  0.08599  0.22017  1.0000 -0.3191754054
N   N2        1.0  0.74781  0.46798  0.13199  1.0000 -0.3191754054
N   N3        1.0  0.33599  0.61582  0.86801  1.0000 -0.3191754054
N   N4        1.0  0.86582  0.49781  0.77983  1.0000 -0.3191754054
N   N5        1.0  0.53202  0.66401  0.27983  1.0000 -0.3191754054
N   N6        1.0  0.50219  0.28202  0.36801  1.0000 -0.3191754054
N   N7        1.0  0.91401  0.13418  0.63199  1.0000 -0.3191754054
N   N8        1.0  0.38418  0.25219  0.72017  1.0000 -0.3191754054
N   N9        1.0  0.66491  0.00963  0.18828  1.0000 -0.2958668116
N   N10       1.0  0.72663  0.41491  0.15528  1.0000 -0.2958668116
N   N11       1.0  0.25963  0.57135  0.84472  1.0000 -0.2944783035
N   N12       1.0  0.82135  0.47663  0.81172  1.0000 -0.2944783035
N   N13       1.0  0.58509  0.74037  0.31172  1.0000 -0.2958668116
N   N14       1.0  0.52337  0.33509  0.34472  1.0000 -0.2944783035
N   N15       1.0  0.99037  0.17865  0.65528  1.0000 -0.2944783035
N   N16       1.0  0.42865  0.27337  0.68828  1.0000 -0.2944783035
N   N17       1.0  0.87880  0.21436  0.18816  1.0000 -0.1995435012
N   N18       1.0  0.94064  0.62880  0.16444  1.0000 -0.1995435012
N   N19       1.0  0.46436  0.77620  0.83556  1.0000 -0.1995435012
N   N20       1.0  0.02620  0.69064  0.81184  1.0000 -0.1995435012
N   N21       1.0  0.37120  0.53564  0.31184  1.0000 -0.1995435012
N   N22       1.0  0.30936  0.12120  0.33556  1.0000 -0.1995435012
N   N23       1.0  0.78564  0.97380  0.66444  1.0000 -0.1995435012
N   N24       1.0  0.22380  0.05936  0.68816  1.0000 -0.1995435012
N   N25       1.0  0.46853  0.82069  0.13766  1.0000 -0.3191754054
N   N26       1.0  0.58087  0.21853  0.14784  1.0000 -0.3191754054
N   N27       1.0  0.07069  0.43303  0.85216  1.0000 -0.3191754054
N   N28       1.0  0.68303  0.33087  0.86234  1.0000 -0.3191754054
N   N29       1.0  0.78147  0.92931  0.36234  1.0000 -0.3191754054
N   N30       1.0  0.66913  0.53147  0.35216  1.0000 -0.3191754054
N   N31       1.0  0.17931  0.31697  0.64784  1.0000 -0.3191754054
N   N32       1.0  0.56697  0.41913  0.63766  1.0000 -0.3191754054
N   N33       1.0  0.44988  0.77801  0.16993  1.0000 -0.3191754054
N   N34       1.0  0.52995  0.19988  0.17187  1.0000 -0.3191754054
N   N35       1.0  0.02801  0.35808  0.82813  1.0000 -0.3191754054
N   N36       1.0  0.60808  0.27995  0.83007  1.0000 -0.3191754054
N   N37       1.0  0.80012  0.97199  0.33007  1.0000 -0.3191754054
N   N38       1.0  0.72005  0.55012  0.32813  1.0000 -0.3191754054
N   N39       1.0  0.22199  0.39192  0.67187  1.0000 -0.3191754054
N   N40       1.0  0.64192  0.47005  0.66993  1.0000 -0.3191754054
N   N41       1.0  0.12273  0.46278  0.95425  1.0000 -0.209822962
N   N42       1.0  0.41848  0.87273  0.15995  1.0000 -0.209822962
N   N43       1.0  0.71278  0.25853  0.84005  1.0000 -0.209822962
N   N44       1.0  0.50853  0.16848  0.04575  1.0000 -0.209822962
N   N45       1.0  0.12727  0.28722  0.54575  1.0000 -0.209822962
N   N46       1.0  0.83152  0.87727  0.34005  1.0000 -0.209822962
N   N47       1.0  0.53722  0.49147  0.65995  1.0000 -0.209822962
N   N48       1.0  0.74147  0.58152  0.45425  1.0000 -0.209822962
N   N49       1.0  0.88991  0.14257  0.32158  1.0000 -0.3191754054
N   N50       1.0  0.81833  0.63991  0.24734  1.0000 -0.3191754054
N   N51       1.0  0.39257  0.57099  0.75266  1.0000 -0.3254685941
N   N52       1.0  0.82099  0.56833  0.67842  1.0000 -0.3254685941
N   N53       1.0  0.36009  0.60743  0.17842  1.0000 -0.3254685941
N   N54       1.0  0.43167  0.11009  0.25266  1.0000 -0.3254685941
N   N55       1.0  0.85743  0.17901  0.74734  1.0000 -0.3191754054
N   N56       1.0  0.42901  0.18167  0.82158  1.0000 -0.3254685941
N   N57       1.0  0.82267  0.11629  0.31162  1.0000 -0.3073026593
N   N58       1.0  0.76105  0.57267  0.20638  1.0000 -0.3073026593
N   N59       1.0  0.36629  0.55467  0.79362  1.0000 -0.3073026593
N   N60       1.0  0.80467  0.51105  0.68838  1.0000 -0.3073026593
N   N61       1.0  0.42733  0.63371  0.18838  1.0000 -0.3073026593
N   N62       1.0  0.48895  0.17733  0.29362  1.0000 -0.3073026593
N   N63       1.0  0.88371  0.19533  0.70638  1.0000 -0.3073026593
N   N64       1.0  0.44533  0.23895  0.81162  1.0000 -0.3073026593
O   O1        1.0  0.86001  0.23797  0.28210  1.0000 -0.4714390782
O   O2        1.0  0.82791  0.61001  0.12204  1.0000 -0.4714390782
O   O3        1.0  0.48797  0.70587  0.87796  1.0000 -0.4714390782
O   O4        1.0  0.95587  0.57791  0.71790  1.0000 -0.4581809848
O   O5        1.0  0.38999  0.51203  0.21790  1.0000 -0.4714390782
O   O6        1.0  0.42209  0.13999  0.37796  1.0000 -0.4714390782
O   O7        1.0  0.76203  0.04413  0.62204  1.0000 -0.4714390782
O   O8        1.0  0.29413  0.17209  0.78210  1.0000 -0.4714390782
O   O9        1.0  0.60789  0.04065  0.20168  1.0000 -0.4516845959
O   O10       1.0  0.65621  0.35789  0.06724  1.0000 -0.4516845959
O   O11       1.0  0.29065  0.58897  0.93276  1.0000 -0.4516845959
O   O12       1.0  0.83897  0.40621  0.79832  1.0000 -0.4516845959
O   O13       1.0  0.64211  0.70935  0.29832  1.0000 -0.4516845959
O   O14       1.0  0.59379  0.39211  0.43276  1.0000 -0.4516845959
O   O15       1.0  0.95935  0.16103  0.56724  1.0000 -0.4516845959
O   O16       1.0  0.41103  0.34379  0.70168  1.0000 -0.4516845959
O   O17       1.0  0.78007  0.06308  0.21065  1.0000 -0.4987211897
O   O18       1.0  0.81942  0.53007  0.21699  1.0000 -0.4987211897
O   O19       1.0  0.31308  0.60243  0.78301  1.0000 -0.4987211897
O   O20       1.0  0.85243  0.56942  0.78935  1.0000 -0.4942112844
O   O21       1.0  0.46993  0.68692  0.28935  1.0000 -0.4987211897
O   O22       1.0  0.43058  0.21993  0.28301  1.0000 -0.4987211897
O   O23       1.0  0.93692  0.14757  0.71699  1.0000 -0.4987211897
O   O24       1.0  0.39757  0.18058  0.71065  1.0000 -0.4987211897
O   O25       1.0  0.54247  0.94972  0.10831  1.0000 -0.4714390782
O   O26       1.0  0.68416  0.29247  0.09275  1.0000 -0.4714390782
O   O27       1.0  0.19972  0.59141  0.90725  1.0000 -0.4714390782
O   O28       1.0  0.84141  0.43416  0.89169  1.0000 -0.4714390782
O   O29       1.0  0.70753  0.80028  0.39169  1.0000 -0.4714390782
O   O30       1.0  0.56584  0.45753  0.40725  1.0000 -0.4714390782
O   O31       1.0  0.05028  0.15859  0.59275  1.0000 -0.4714390782
O   O32       1.0  0.40859  0.31584  0.60831  1.0000 -0.4714390782
O   O33       1.0  0.37874  0.69906  0.08218  1.0000 -0.4760949257
O   O34       1.0  0.54656  0.12874  0.17968  1.0000 -0.4760949257
O   O35       1.0  0.94906  0.36688  0.82032  1.0000 -0.4760949257
O   O36       1.0  0.61688  0.29656  0.91782  1.0000 -0.4760949257
O   O37       1.0  0.87126  0.05094  0.41782  1.0000 -0.4760949257
O   O38       1.0  0.70344  0.62126  0.32032  1.0000 -0.4760949257
O   O39       1.0  0.30094  0.38312  0.67968  1.0000 -0.4760949257
O   O40       1.0  0.63312  0.45344  0.58218  1.0000 -0.4760949257
O   O41       1.0  0.51821  0.89246  0.22091  1.0000 -0.4760949257
O   O42       1.0  0.54730  0.26821  0.12575  1.0000 -0.4714390782
O   O43       1.0  0.14246  0.42155  0.87425  1.0000 -0.4714390782
O   O44       1.0  0.67155  0.29730  0.77909  1.0000 -0.4714390782
O   O45       1.0  0.73179  0.85754  0.27909  1.0000 -0.4714390782
O   O46       1.0  0.70270  0.48179  0.37425  1.0000 -0.4714390782
O   O47       1.0  0.10754  0.32845  0.62575  1.0000 -0.4714390782
O   O48       1.0  0.57845  0.45270  0.72091  1.0000 -0.4714390782
O   O49       1.0  0.97852  0.14684  0.35904  1.0000 -0.4942112844
O   O50       1.0  0.86948  0.72852  0.33168  1.0000 -0.4942112844
O   O51       1.0  0.39684  0.53780  0.66832  1.0000 -0.4942112844
O   O52       1.0  0.78780  0.61948  0.64096  1.0000 -0.4942112844
O   O53       1.0  0.27148  0.60316  0.14096  1.0000 -0.4987211897
O   O54       1.0  0.38052  0.02148  0.16832  1.0000 -0.4942112844
O   O55       1.0  0.85316  0.21220  0.83168  1.0000 -0.4942112844
O   O56       1.0  0.46220  0.13052  0.85904  1.0000 -0.4942112844
O   O57       1.0  0.93896  0.21927  0.27075  1.0000 -0.4581809848
O   O58       1.0  0.91821  0.68896  0.21969  1.0000 -0.4581809848
O   O59       1.0  0.46927  0.69852  0.78031  1.0000 -0.4581809848
O   O60       1.0  0.94852  0.66821  0.72925  1.0000 -0.4581809848
O   O61       1.0  0.31104  0.53073  0.22925  1.0000 -0.4581809848
O   O62       1.0  0.33179  0.06104  0.28031  1.0000 -0.4581809848
O   O63       1.0  0.78073  0.05148  0.71969  1.0000 -0.4581809848
O   O64       1.0  0.30148  0.08179  0.77075  1.0000 -0.4581809848
O   O65       1.0  0.79051  0.05652  0.37045  1.0000 -0.4987211897
O   O66       1.0  0.67006  0.54051  0.23399  1.0000 -0.4987211897
O   O67       1.0  0.30652  0.43607  0.76601  1.0000 -0.4987211897
O   O68       1.0  0.68607  0.42006  0.62955  1.0000 -0.4987211897
O   O69       1.0  0.45949  0.69348  0.12955  1.0000 -0.4987211897
O   O70       1.0  0.57994  0.20949  0.26601  1.0000 -0.4987211897
O   O71       1.0  0.94348  0.31393  0.73399  1.0000 -0.4987211897
O   O72       1.0  0.56393  0.32994  0.87045  1.0000 -0.4987211897
