# DDEC6 charges by PACMAN v1.1 (https://github.com/mtap-research/PACMAN-charge/)
data_2005[Mn][lvt]2[ASR]4
_chemical_formula_sum              "Mn24 H312 C336 N64 O72"
_cell_length_a       29.836
_cell_length_b       29.836
_cell_length_c       29.836
_cell_angle_alpha    94.9838
_cell_angle_beta     94.9838
_cell_angle_gamma    145.716

_symmetry_space_group_name_H-M    "P 1"
_symmetry_Int_Tables_number       1

loop_
  _symmetry_equiv_pos_as_xyz
  'x, y, z'

loop_
  _atom_site_type_symbol
  _atom_site_label
  _atom_site_symmetry_multiplicity
  _atom_site_fract_x
  _atom_site_fract_y
  _atom_site_fract_z
  _atom_site_occupancy
  _atom_site_charge
Mn  Mn1       1.0  0.62380  0.23030  0.16436  1.0000 0.8918309102
Mn  Mn2       1.0  0.70944  0.37380  0.89350  1.0000 0.8796564231
Mn  Mn3       1.0  0.48030  0.81594  0.10650  1.0000 0.8918309102
Mn  Mn4       1.0  0.06594  0.45944  0.83564  1.0000 0.8918309102
Mn  Mn5       1.0  0.62620  0.51970  0.33564  1.0000 0.8796564231
Mn  Mn6       1.0  0.54056  0.37620  0.60650  1.0000 0.8796564231
Mn  Mn7       1.0  0.76970  0.93406  0.39350  1.0000 0.8796564231
Mn  Mn8       1.0  0.18406  0.29056  0.66436  1.0000 0.8918309102
Mn  Mn9       1.0  0.74596  0.46645  0.12839  1.0000 0.9403708021
Mn  Mn10      1.0  0.86757  0.49596  0.77951  1.0000 0.9403708021
Mn  Mn11      1.0  0.71645  0.08806  0.22049  1.0000 0.9403708021
Mn  Mn12      1.0  0.33806  0.61757  0.87161  1.0000 0.9403708021
Mn  Mn13      1.0  0.50404  0.28355  0.37161  1.0000 0.9403708021
Mn  Mn14      1.0  0.38243  0.25404  0.72049  1.0000 0.9403708021
Mn  Mn15      1.0  0.53355  0.66194  0.27951  1.0000 0.9403708021
Mn  Mn16      1.0  0.91194  0.13243  0.62839  1.0000 0.9403708021
Mn  Mn17      1.0  0.41785  0.09055  0.24746  1.0000 0.8918309102
Mn  Mn18      1.0  0.42039  0.16785  0.82730  1.0000 0.8918309102
Mn  Mn19      1.0  0.34055  0.59309  0.17270  1.0000 0.8918309102
Mn  Mn20      1.0  0.84309  0.17039  0.75254  1.0000 0.8918309102
Mn  Mn21      1.0  0.83215  0.65945  0.25254  1.0000 0.8918309102
Mn  Mn22      1.0  0.82961  0.58215  0.67270  1.0000 0.8918309102
Mn  Mn23      1.0  0.90945  0.15691  0.32730  1.0000 0.8918309102
Mn  Mn24      1.0  0.40691  0.57961  0.74746  1.0000 0.8918309102
H   H1        1.0  0.50760  0.05860  0.03140  1.0000 0.1386015182
H   H2        1.0  0.72620  0.25760  0.94900  1.0000 0.1386015182
H   H3        1.0  0.30860  0.77720  0.05100  1.0000 0.1386015182
H   H4        1.0  0.02720  0.47620  0.96860  1.0000 0.1386015182
H   H5        1.0  0.74240  0.69140  0.46860  1.0000 0.1386015182
H   H6        1.0  0.52380  0.49240  0.55100  1.0000 0.1386015182
H   H7        1.0  0.94140  0.97280  0.44900  1.0000 0.1386015182
H   H8        1.0  0.22280  0.27380  0.53140  1.0000 0.1386015182
H   H9        1.0  0.51090  0.07080  0.95710  1.0000 0.1010771727
H   H10       1.0  0.80380  0.26090  0.94010  1.0000 0.1010771727
H   H11       1.0  0.32080  0.86370  0.05990  1.0000 0.1010771727
H   H12       1.0  0.11370  0.55380  0.04290  1.0000 0.1010771727
H   H13       1.0  0.73910  0.67920  0.54290  1.0000 0.1010771727
H   H14       1.0  0.44620  0.48910  0.55990  1.0000 0.1010771727
H   H15       1.0  0.92920  0.88630  0.44010  1.0000 0.1010771727
H   H16       1.0  0.13630  0.19620  0.45710  1.0000 0.1010771727
H   H17       1.0  0.57660  0.18980  0.94120  1.0000 0.1287825191
H   H18       1.0  0.88540  0.32660  0.88680  1.0000 0.1287825191
H   H19       1.0  0.43980  0.99860  0.11320  1.0000 0.1287825191
H   H20       1.0  0.24860  0.63540  0.05880  1.0000 0.1287825191
H   H21       1.0  0.67340  0.56020  0.55880  1.0000 0.1287825191
H   H22       1.0  0.36460  0.42340  0.61320  1.0000 0.1287825191
H   H23       1.0  0.81020  0.75140  0.38680  1.0000 0.1287825191
H   H24       1.0  0.00140  0.11460  0.44120  1.0000 0.1287825191
H   H25       1.0  0.63890  0.29230  0.00240  1.0000 0.1204910738
H   H26       1.0  0.88650  0.38890  0.84660  1.0000 0.1204910738
H   H27       1.0  0.54230  0.03990  0.15340  1.0000 0.1204910738
H   H28       1.0  0.28990  0.63650  0.99760  1.0000 0.1204910738
H   H29       1.0  0.61110  0.45770  0.49760  1.0000 0.1204910738
H   H30       1.0  0.36350  0.36110  0.65340  1.0000 0.1204910738
H   H31       1.0  0.70770  0.71010  0.34660  1.0000 0.1204910738
H   H32       1.0  0.96010  0.11350  0.50240  1.0000 0.1204910738
H   H33       1.0  0.76470  0.48230  0.23960  1.0000 0.1386015182
H   H34       1.0  0.77510  0.51470  0.78240  1.0000 0.1386015182
H   H35       1.0  0.73230  0.99270  0.21760  1.0000 0.1386015182
H   H36       1.0  0.24270  0.52510  0.76040  1.0000 0.1386015182
H   H37       1.0  0.48530  0.26770  0.26040  1.0000 0.1386015182
H   H38       1.0  0.47490  0.23530  0.71760  1.0000 0.1386015182
H   H39       1.0  0.51770  0.75730  0.28240  1.0000 0.1386015182
H   H40       1.0  0.00730  0.22490  0.73960  1.0000 0.1386015182
H   H41       1.0  0.72980  0.42640  0.27460  1.0000 0.1386015182
H   H42       1.0  0.70520  0.47980  0.80340  1.0000 0.1386015182
H   H43       1.0  0.67640  0.90180  0.19660  1.0000 0.1386015182
H   H44       1.0  0.15180  0.45520  0.72540  1.0000 0.1386015182
H   H45       1.0  0.52020  0.32360  0.22540  1.0000 0.1386015182
H   H46       1.0  0.54480  0.27020  0.69660  1.0000 0.1386015182
H   H47       1.0  0.57360  0.84820  0.30340  1.0000 0.1386015182
H   H48       1.0  0.09820  0.29480  0.77460  1.0000 0.1386015182
H   H49       1.0  0.86840  0.49640  0.24640  1.0000 0.1204910738
H   H50       1.0  0.87200  0.61840  0.87200  1.0000 0.1204910738
H   H51       1.0  0.74640  0.00000  0.12800  1.0000 0.1204910738
H   H52       1.0  0.25000  0.62200  0.75360  1.0000 0.1204910738
H   H53       1.0  0.38160  0.25360  0.25360  1.0000 0.1204910738
H   H54       1.0  0.37800  0.13160  0.62800  1.0000 0.1204910738
H   H55       1.0  0.50360  0.75000  0.37200  1.0000 0.1204910738
H   H56       1.0  0.00000  0.12800  0.74640  1.0000 0.1204910738
H   H57       1.0  0.89640  0.56310  0.28290  1.0000 0.1287825191
H   H58       1.0  0.86350  0.64640  0.83330  1.0000 0.1287825191
H   H59       1.0  0.81310  0.03020  0.16670  1.0000 0.1287825191
H   H60       1.0  0.28020  0.61350  0.71710  1.0000 0.1287825191
H   H61       1.0  0.35360  0.18690  0.21710  1.0000 0.1287825191
H   H62       1.0  0.38650  0.10360  0.66667  1.0000 0.1287825191
H   H63       1.0  0.43690  0.71980  0.33333  1.0000 0.1287825191
H   H64       1.0  0.96980  0.13650  0.78290  1.0000 0.1287825191
H   H65       1.0  0.85400  0.48570  0.29730  1.0000 0.1386015182
H   H66       1.0  0.80670  0.60400  0.86830  1.0000 0.1386015182
H   H67       1.0  0.73570  0.93840  0.13170  1.0000 0.1386015182
H   H68       1.0  0.18840  0.55670  0.70270  1.0000 0.1386015182
H   H69       1.0  0.39600  0.26430  0.20270  1.0000 0.1386015182
H   H70       1.0  0.44330  0.14600  0.63170  1.0000 0.1386015182
H   H71       1.0  0.51430  0.81160  0.36830  1.0000 0.1386015182
H   H72       1.0  0.06160  0.19330  0.79730  1.0000 0.1386015182
H   H73       1.0  0.69190  0.18750  0.16320  1.0000 0.1204910738
H   H74       1.0  0.77870  0.44190  0.00440  1.0000 0.1204910738
H   H75       1.0  0.43750  0.77430  0.99560  1.0000 0.1204910738
H   H76       1.0  0.02430  0.52870  0.83680  1.0000 0.1204910738
H   H77       1.0  0.55810  0.56250  0.33680  1.0000 0.1204910738
H   H78       1.0  0.47130  0.30810  0.49560  1.0000 0.1204910738
H   H79       1.0  0.81250  0.97570  0.50440  1.0000 0.1204910738
H   H80       1.0  0.22570  0.22130  0.66320  1.0000 0.1204910738
H   H81       1.0  0.81170  0.24640  0.17350  1.0000 0.1386015182
H   H82       1.0  0.88820  0.56170  0.06530  1.0000 0.1386015182
H   H83       1.0  0.49640  0.82290  0.93470  1.0000 0.1386015182
H   H84       1.0  0.07290  0.63820  0.82650  1.0000 0.1386015182
H   H85       1.0  0.43830  0.50360  0.32650  1.0000 0.1386015182
H   H86       1.0  0.36180  0.18830  0.43470  1.0000 0.1386015182
H   H87       1.0  0.75360  0.92710  0.56530  1.0000 0.1386015182
H   H88       1.0  0.17710  0.11180  0.67350  1.0000 0.1386015182
H   H89       1.0  0.93650  0.46700  0.18370  1.0000 0.1386015182
H   H90       1.0  0.00280  0.68650  0.96950  1.0000 0.1386015182
H   H91       1.0  0.71700  0.03330  0.03050  1.0000 0.1386015182
H   H92       1.0  0.28330  0.75280  0.81630  1.0000 0.1386015182
H   H93       1.0  0.31350  0.28300  0.31630  1.0000 0.1386015182
H   H94       1.0  0.24720  0.06350  0.53050  1.0000 0.1386015182
H   H95       1.0  0.53300  0.71670  0.46950  1.0000 0.1386015182
H   H96       1.0  0.96670  0.99720  0.68370  1.0000 0.1386015182
H   H97       1.0  0.81400  0.40210  0.17210  1.0000 0.1105092721
H   H98       1.0  0.89190  0.56400  0.91190  1.0000 0.1105092721
H   H99       1.0  0.65210  0.98000  0.08810  1.0000 0.1105092721
H   H100      1.0  0.23000  0.64190  0.82790  1.0000 0.1105092721
H   H101      1.0  0.43600  0.34790  0.32790  1.0000 0.1105092721
H   H102      1.0  0.35810  0.18600  0.58810  1.0000 0.1105092721
H   H103      1.0  0.59790  0.77000  0.41190  1.0000 0.1105092721
H   H104      1.0  0.02000  0.10810  0.67210  1.0000 0.1105092721
H   H105      1.0  0.95860  0.36640  0.19640  1.0000 0.1287825191
H   H106      1.0  0.01220  0.70860  0.09220  1.0000 0.1287825191
H   H107      1.0  0.61640  0.92000  0.90780  1.0000 0.1287825191
H   H108      1.0  0.17000  0.76220  0.80360  1.0000 0.1287825191
H   H109      1.0  0.29140  0.38360  0.30360  1.0000 0.1287825191
H   H110      1.0  0.23780  0.04140  0.40780  1.0000 0.1287825191
H   H111      1.0  0.63360  0.83000  0.59220  1.0000 0.1287825191
H   H112      1.0  0.08000  0.98780  0.69640  1.0000 0.1287825191
H   H113      1.0  0.01140  0.45540  0.21720  1.0000 0.1204910738
H   H114      1.0  0.04420  0.76140  0.05600  1.0000 0.1204910738
H   H115      1.0  0.70540  0.98820  0.94400  1.0000 0.1204910738
H   H116      1.0  0.23820  0.79420  0.78280  1.0000 0.1204910738
H   H117      1.0  0.23860  0.29460  0.28280  1.0000 0.1204910738
H   H118      1.0  0.20580  0.98860  0.44400  1.0000 0.1204910738
H   H119      1.0  0.54460  0.76180  0.55600  1.0000 0.1204910738
H   H120      1.0  0.01180  0.95580  0.71720  1.0000 0.1204910738
H   H121      1.0  0.96470  0.56550  0.13840  1.0000 0.1287825191
H   H122      1.0  0.07630  0.71470  0.89920  1.0000 0.1287825191
H   H123      1.0  0.81550  0.17710  0.10080  1.0000 0.1287825191
H   H124      1.0  0.42710  0.82630  0.86160  1.0000 0.1287825191
H   H125      1.0  0.28530  0.18450  0.36160  1.0000 0.1287825191
H   H126      1.0  0.17370  0.03530  0.60080  1.0000 0.1287825191
H   H127      1.0  0.43450  0.57290  0.39920  1.0000 0.1287825191
H   H128      1.0  0.82290  0.92370  0.63840  1.0000 0.1287825191
H   H129      1.0  0.10300  0.69680  0.17600  1.0000 0.1105092721
H   H130      1.0  0.17700  0.85300  0.90620  1.0000 0.1105092721
H   H131      1.0  0.94680  0.27080  0.09380  1.0000 0.1105092721
H   H132      1.0  0.52080  0.92700  0.82400  1.0000 0.1105092721
H   H133      1.0  0.14700  0.05320  0.32400  1.0000 0.1105092721
H   H134      1.0  0.07300  0.89700  0.59380  1.0000 0.1105092721
H   H135      1.0  0.30320  0.47920  0.40620  1.0000 0.1105092721
H   H136      1.0  0.72920  0.82300  0.67600  1.0000 0.1105092721
H   H137      1.0  0.14450  0.79660  0.22350  1.0000 0.1204910738
H   H138      1.0  0.17100  0.89450  0.84790  1.0000 0.1204910738
H   H139      1.0  0.04660  0.32310  0.15210  1.0000 0.1204910738
H   H140      1.0  0.57310  0.92100  0.77650  1.0000 0.1204910738
H   H141      1.0  0.10550  0.95340  0.27650  1.0000 0.1204910738
H   H142      1.0  0.07900  0.85550  0.65210  1.0000 0.1204910738
H   H143      1.0  0.20340  0.42690  0.34790  1.0000 0.1204910738
H   H144      1.0  0.67690  0.82900  0.72350  1.0000 0.1204910738
H   H145      1.0  0.04270  0.76370  0.23420  1.0000 0.1204910738
H   H146      1.0  0.05850  0.79270  0.77900  1.0000 0.1105092721
H   H147      1.0  0.01370  0.27950  0.22100  1.0000 0.1204910738
H   H148      1.0  0.52950  0.80850  0.76580  1.0000 0.1105092721
H   H149      1.0  0.20730  0.98630  0.26580  1.0000 0.1204910738
H   H150      1.0  0.19150  0.95730  0.72100  1.0000 0.1204910738
H   H151      1.0  0.23630  0.47050  0.27900  1.0000 0.1105092721
H   H152      1.0  0.72050  0.94150  0.73420  1.0000 0.1105092721
H   H153      1.0  0.60370  0.44800  0.20330  1.0000 0.1386015182
H   H154      1.0  0.65040  0.35370  0.65570  1.0000 0.1386015182
H   H155      1.0  0.69800  0.99470  0.34430  1.0000 0.1386015182
H   H156      1.0  0.24470  0.40040  0.79670  1.0000 0.1386015182
H   H157      1.0  0.64630  0.30200  0.29670  1.0000 0.1386015182
H   H158      1.0  0.59960  0.39630  0.84430  1.0000 0.1386015182
H   H159      1.0  0.55200  0.75530  0.15570  1.0000 0.1386015182
H   H160      1.0  0.00530  0.34960  0.70330  1.0000 0.1386015182
H   H161      1.0  0.63840  0.51340  0.17700  1.0000 0.1287825191
H   H162      1.0  0.71140  0.38840  0.62500  1.0000 0.1287825191
H   H163      1.0  0.76340  0.08640  0.37500  1.0000 0.1287825191
H   H164      1.0  0.33640  0.46140  0.82300  1.0000 0.1287825191
H   H165      1.0  0.61160  0.23660  0.32300  1.0000 0.1287825191
H   H166      1.0  0.53860  0.36160  0.87500  1.0000 0.1287825191
H   H167      1.0  0.48660  0.66360  0.12500  1.0000 0.1287825191
H   H168      1.0  0.91360  0.28860  0.67700  1.0000 0.1287825191
H   H169      1.0  0.51050  0.34310  0.13040  1.0000 0.1204910738
H   H170      1.0  0.63010  0.26050  0.66740  1.0000 0.1204910738
H   H171      1.0  0.59310  0.96270  0.33260  1.0000 0.1204910738
H   H172      1.0  0.21270  0.38010  0.86960  1.0000 0.1204910738
H   H173      1.0  0.73950  0.40690  0.36960  1.0000 0.1204910738
H   H174      1.0  0.61990  0.48950  0.83260  1.0000 0.1204910738
H   H175      1.0  0.65690  0.78730  0.16740  1.0000 0.1204910738
H   H176      1.0  0.03730  0.36990  0.63040  1.0000 0.1204910738
H   H177      1.0  0.49450  0.38150  0.14380  1.0000 0.1204910738
H   H178      1.0  0.60070  0.24450  0.61300  1.0000 0.1204910738
H   H179      1.0  0.63150  0.98770  0.38700  1.0000 0.1204910738
H   H180      1.0  0.23770  0.35070  0.85620  1.0000 0.1204910738
H   H181      1.0  0.75550  0.36850  0.35620  1.0000 0.1204910738
H   H182      1.0  0.64930  0.50550  0.88700  1.0000 0.1204910738
H   H183      1.0  0.61850  0.76230  0.11300  1.0000 0.1204910738
H   H184      1.0  0.01230  0.39930  0.64380  1.0000 0.1204910738
H   H185      1.0  0.54330  0.40900  0.10570  1.0000 0.1204910738
H   H186      1.0  0.68760  0.29330  0.63430  1.0000 0.1204910738
H   H187      1.0  0.65900  0.05330  0.36570  1.0000 0.1204910738
H   H188      1.0  0.30330  0.43760  0.89430  1.0000 0.1204910738
H   H189      1.0  0.70670  0.34100  0.39430  1.0000 0.1204910738
H   H190      1.0  0.56240  0.45670  0.86570  1.0000 0.1204910738
H   H191      1.0  0.59100  0.69670  0.13430  1.0000 0.1204910738
H   H192      1.0  0.94670  0.31240  0.60570  1.0000 0.1204910738
H   H193      1.0  0.41400  0.97260  0.32800  1.0000 0.1386015182
H   H194      1.0  0.33600  0.16400  0.94140  1.0000 0.1386015182
H   H195      1.0  0.22260  0.39460  0.05860  1.0000 0.1386015182
H   H196      1.0  0.64460  0.08600  0.67200  1.0000 0.1386015182
H   H197      1.0  0.83600  0.77740  0.17200  1.0000 0.1386015182
H   H198      1.0  0.91400  0.58600  0.55860  1.0000 0.1386015182
H   H199      1.0  0.02740  0.35540  0.44140  1.0000 0.1386015182
H   H200      1.0  0.60540  0.66400  0.82800  1.0000 0.1386015182
H   H201      1.0  0.47760  0.95680  0.32960  1.0000 0.1105092721
H   H202      1.0  0.39800  0.22760  0.02080  1.0000 0.1105092721
H   H203      1.0  0.20680  0.37720  0.97920  1.0000 0.1105092721
H   H204      1.0  0.62720  0.14800  0.67040  1.0000 0.1105092721
H   H205      1.0  0.77240  0.79320  0.17040  1.0000 0.1105092721
H   H206      1.0  0.85200  0.52240  0.47920  1.0000 0.1105092721
H   H207      1.0  0.04320  0.37280  0.52080  1.0000 0.1105092721
H   H208      1.0  0.62280  0.60200  0.82960  1.0000 0.1105092721
H   H209      1.0  0.57160  0.02010  0.28510  1.0000 0.1287825191
H   H210      1.0  0.53650  0.32160  0.05150  1.0000 0.1287825191
H   H211      1.0  0.27010  0.48500  0.94850  1.0000 0.1287825191
H   H212      1.0  0.73500  0.28650  0.71490  1.0000 0.1287825191
H   H213      1.0  0.67840  0.72990  0.21490  1.0000 0.1287825191
H   H214      1.0  0.71350  0.42840  0.44850  1.0000 0.1287825191
H   H215      1.0  0.97990  0.26500  0.55150  1.0000 0.1287825191
H   H216      1.0  0.51500  0.46350  0.78510  1.0000 0.1287825191
H   H217      1.0  0.59680  0.09540  0.23860  1.0000 0.1204910738
H   H218      1.0  0.60820  0.34680  0.00140  1.0000 0.1204910738
H   H219      1.0  0.34540  0.60680  0.99860  1.0000 0.1204910738
H   H220      1.0  0.85680  0.35820  0.76140  1.0000 0.1204910738
H   H221      1.0  0.65320  0.65460  0.26140  1.0000 0.1204910738
H   H222      1.0  0.64180  0.40320  0.49860  1.0000 0.1204910738
H   H223      1.0  0.90460  0.14320  0.50140  1.0000 0.1204910738
H   H224      1.0  0.39320  0.39180  0.73860  1.0000 0.1204910738
H   H225      1.0  0.51110  0.25930  0.15980  1.0000 0.1386015182
H   H226      1.0  0.60130  0.26110  0.75180  1.0000 0.1386015182
H   H227      1.0  0.50930  0.84950  0.24820  1.0000 0.1386015182
H   H228      1.0  0.09950  0.35130  0.84020  1.0000 0.1386015182
H   H229      1.0  0.73890  0.49070  0.34020  1.0000 0.1386015182
H   H230      1.0  0.64870  0.48890  0.74820  1.0000 0.1386015182
H   H231      1.0  0.74070  0.90050  0.25180  1.0000 0.1386015182
H   H232      1.0  0.15050  0.39870  0.65980  1.0000 0.1386015182
H   H233      1.0  0.49960  0.20800  0.12120  1.0000 0.1287825191
H   H234      1.0  0.62840  0.24960  0.79160  1.0000 0.1287825191
H   H235      1.0  0.45800  0.83680  0.20840  1.0000 0.1287825191
H   H236      1.0  0.08680  0.37840  0.87880  1.0000 0.1287825191
H   H237      1.0  0.75040  0.54200  0.37880  1.0000 0.1287825191
H   H238      1.0  0.62160  0.50040  0.70840  1.0000 0.1287825191
H   H239      1.0  0.79200  0.91320  0.29160  1.0000 0.1287825191
H   H240      1.0  0.16320  0.37160  0.62120  1.0000 0.1287825191
H   H241      1.0  0.35740  0.09960  0.09940  1.0000 0.1287825191
H   H242      1.0  0.50800  0.10740  0.75780  1.0000 0.1204910738
H   H243      1.0  0.34960  0.75020  0.24220  1.0000 0.1204910738
H   H244      1.0  0.00020  0.25800  0.90060  1.0000 0.1287825191
H   H245      1.0  0.89260  0.65040  0.40060  1.0000 0.1287825191
H   H246      1.0  0.74200  0.64260  0.74220  1.0000 0.1287825191
H   H247      1.0  0.90040  0.99980  0.25780  1.0000 0.1287825191
H   H248      1.0  0.24980  0.49200  0.59940  1.0000 0.1204910738
H   H249      1.0  0.40480  0.18400  0.09500  1.0000 0.1105092721
H   H250      1.0  0.55980  0.15480  0.72080  1.0000 0.1105092721
H   H251      1.0  0.43400  0.83900  0.27920  1.0000 0.1105092721
H   H252      1.0  0.08900  0.30980  0.90500  1.0000 0.1105092721
H   H253      1.0  0.84520  0.56600  0.40500  1.0000 0.1105092721
H   H254      1.0  0.69020  0.59520  0.77920  1.0000 0.1105092721
H   H255      1.0  0.81600  0.91100  0.22080  1.0000 0.1105092721
H   H256      1.0  0.16100  0.44020  0.59500  1.0000 0.1105092721
H   H257      1.0  0.36800  0.14980  0.13860  1.0000 0.1287825191
H   H258      1.0  0.47940  0.11800  0.71820  1.0000 0.1287825191
H   H259      1.0  0.39980  0.76120  0.28180  1.0000 0.1287825191
H   H260      1.0  0.01120  0.22940  0.86140  1.0000 0.1287825191
H   H261      1.0  0.88200  0.60020  0.36140  1.0000 0.1287825191
H   H262      1.0  0.77060  0.63200  0.78180  1.0000 0.1287825191
H   H263      1.0  0.85020  0.98880  0.21820  1.0000 0.1287825191
H   H264      1.0  0.23880  0.52060  0.63860  1.0000 0.1287825191
H   H265      1.0  0.18900  0.50800  0.10060  1.0000 0.1105092721
H   H266      1.0  0.33840  0.93900  0.18100  1.0000 0.1105092721
H   H267      1.0  0.75800  0.15740  0.81900  1.0000 0.1105092721
H   H268      1.0  0.40740  0.08840  0.89940  1.0000 0.1105092721
H   H269      1.0  0.06100  0.24200  0.39940  1.0000 0.1105092721
H   H270      1.0  0.91160  0.81100  0.31900  1.0000 0.1105092721
H   H271      1.0  0.49200  0.59260  0.68100  1.0000 0.1105092721
H   H272      1.0  0.84260  0.66160  0.60060  1.0000 0.1105092721
H   H273      1.0  0.07340  0.45320  0.09060  1.0000 0.1386015182
H   H274      1.0  0.23280  0.82340  0.12020  1.0000 0.1386015182
H   H275      1.0  0.70320  0.11260  0.87980  1.0000 0.1386015182
H   H276      1.0  0.36260  0.98280  0.90940  1.0000 0.1386015182
H   H277      1.0  0.17660  0.29680  0.40940  1.0000 0.1386015182
H   H278      1.0  0.01720  0.92660  0.37980  1.0000 0.1386015182
H   H279      1.0  0.54680  0.63740  0.62020  1.0000 0.1386015182
H   H280      1.0  0.88740  0.76720  0.59060  1.0000 0.1386015182
H   H281      1.0  0.12830  0.51480  0.23130  1.0000 0.1386015182
H   H282      1.0  0.14700  0.87830  0.11350  1.0000 0.1386015182
H   H283      1.0  0.76480  0.03350  0.88650  1.0000 0.1386015182
H   H284      1.0  0.28350  0.89700  0.76870  1.0000 0.1386015182
H   H285      1.0  0.12170  0.23520  0.26870  1.0000 0.1386015182
H   H286      1.0  0.10300  0.87170  0.38650  1.0000 0.1386015182
H   H287      1.0  0.48520  0.71650  0.61350  1.0000 0.1386015182
H   H288      1.0  0.96650  0.85300  0.73130  1.0000 0.1386015182
H   H289      1.0  0.23770  0.55600  0.23330  1.0000 0.1105092721
H   H290      1.0  0.25440  0.98770  0.18170  1.0000 0.1105092721
H   H291      1.0  0.80600  0.07270  0.81830  1.0000 0.1105092721
H   H292      1.0  0.32270  0.00440  0.76670  1.0000 0.1105092721
H   H293      1.0  0.01230  0.19400  0.26670  1.0000 0.1105092721
H   H294      1.0  0.99560  0.76230  0.31830  1.0000 0.1105092721
H   H295      1.0  0.44400  0.67730  0.68170  1.0000 0.1105092721
H   H296      1.0  0.92730  0.74560  0.73330  1.0000 0.1105092721
H   H297      1.0  0.01540  0.47240  0.14480  1.0000 0.1287825191
H   H298      1.0  0.12060  0.76540  0.04300  1.0000 0.1287825191
H   H299      1.0  0.72240  0.07760  0.95700  1.0000 0.1287825191
H   H300      1.0  0.32760  0.87060  0.85520  1.0000 0.1287825191
H   H301      1.0  0.23460  0.27760  0.35520  1.0000 0.1287825191
H   H302      1.0  0.12940  0.98460  0.45700  1.0000 0.1287825191
H   H303      1.0  0.52760  0.67240  0.54300  1.0000 0.1287825191
H   H304      1.0  0.92240  0.87940  0.64480  1.0000 0.1287825191
H   H305      1.0  0.95930  0.38190  0.12280  1.0000 0.1287825191
H   H306      1.0  0.08650  0.70930  0.07740  1.0000 0.1287825191
H   H307      1.0  0.63190  0.00910  0.92260  1.0000 0.1287825191
H   H308      1.0  0.25910  0.83650  0.87720  1.0000 0.1287825191
H   H309      1.0  0.29070  0.36810  0.37720  1.0000 0.1287825191
H   H310      1.0  0.16350  0.04070  0.42260  1.0000 0.1287825191
H   H311      1.0  0.61810  0.74090  0.57740  1.0000 0.1287825191
H   H312      1.0  0.99090  0.91350  0.62280  1.0000 0.1287825191
C   C1        1.0  0.57194  0.16850  0.06364  1.0000 0.3026484588
C   C2        1.0  0.75830  0.32194  0.90344  1.0000 0.3026484588
C   C3        1.0  0.41850  0.85486  0.09656  1.0000 0.3026484588
C   C4        1.0  0.10486  0.50830  0.93636  1.0000 0.3026484588
C   C5        1.0  0.67806  0.58150  0.43636  1.0000 0.3026484588
C   C6        1.0  0.49170  0.42806  0.59656  1.0000 0.3026484588
C   C7        1.0  0.83150  0.89514  0.40344  1.0000 0.3026484588
C   C8        1.0  0.14514  0.24170  0.56364  1.0000 0.3026484588
C   C9        1.0  0.53499  0.10721  0.02600  1.0000 -0.210684703
C   C10       1.0  0.75899  0.28499  0.92778  1.0000 -0.210684703
C   C11       1.0  0.35721  0.83121  0.07222  1.0000 -0.210684703
C   C12       1.0  0.08121  0.50899  0.97400  1.0000 -0.210684703
C   C13       1.0  0.71501  0.64279  0.47400  1.0000 -0.210684703
C   C14       1.0  0.49101  0.46501  0.57222  1.0000 -0.210684703
C   C15       1.0  0.89279  0.91879  0.42778  1.0000 -0.210684703
C   C16       1.0  0.16879  0.24101  0.52600  1.0000 -0.210684703
C   C17       1.0  0.53659  0.11408  0.98187  1.0000 -0.0805332542
C   C18       1.0  0.80472  0.28659  0.92251  1.0000 -0.0805332542
C   C19       1.0  0.36408  0.88221  0.07749  1.0000 -0.0805332542
C   C20       1.0  0.13221  0.55472  0.01813  1.0000 -0.0805332542
C   C21       1.0  0.71341  0.63592  0.51813  1.0000 -0.0805332542
C   C22       1.0  0.44528  0.46341  0.57749  1.0000 -0.0805332542
C   C23       1.0  0.88592  0.86779  0.42251  1.0000 -0.0805332542
C   C24       1.0  0.11779  0.19528  0.48187  1.0000 -0.0805332542
C   C25       1.0  0.57566  0.18450  0.97216  1.0000 -0.1284328082
C   C26       1.0  0.85350  0.32566  0.89116  1.0000 -0.1284328082
C   C27       1.0  0.43450  0.96234  0.10884  1.0000 -0.1284328082
C   C28       1.0  0.21234  0.60350  0.02784  1.0000 -0.1284328082
C   C29       1.0  0.67434  0.56550  0.52784  1.0000 -0.1284328082
C   C30       1.0  0.39650  0.42434  0.60884  1.0000 -0.1284328082
C   C31       1.0  0.81550  0.78766  0.39116  1.0000 -0.1284328082
C   C32       1.0  0.03766  0.14650  0.47216  1.0000 -0.1284328082
C   C33       1.0  0.61181  0.24424  0.00865  1.0000 -0.0805332542
C   C34       1.0  0.85316  0.36181  0.86757  1.0000 -0.0805332542
C   C35       1.0  0.49424  0.98559  0.13243  1.0000 -0.0805332542
C   C36       1.0  0.23559  0.60316  0.99135  1.0000 -0.0805332542
C   C37       1.0  0.63819  0.50576  0.49135  1.0000 -0.0805332542
C   C38       1.0  0.39684  0.38819  0.63243  1.0000 -0.0805332542
C   C39       1.0  0.75576  0.76441  0.36757  1.0000 -0.0805332542
C   C40       1.0  0.01441  0.14684  0.50865  1.0000 -0.0805332542
C   C41       1.0  0.61236  0.24067  0.05483  1.0000 -0.1512980955
C   C42       1.0  0.80753  0.36236  0.87169  1.0000 -0.1512980955
C   C43       1.0  0.49067  0.93584  0.12831  1.0000 -0.1512980955
C   C44       1.0  0.18584  0.55753  0.94517  1.0000 -0.1512980955
C   C45       1.0  0.63764  0.50933  0.44517  1.0000 -0.1512980955
C   C46       1.0  0.44247  0.38764  0.62831  1.0000 -0.1512980955
C   C47       1.0  0.75933  0.81416  0.37169  1.0000 -0.1512980955
C   C48       1.0  0.06416  0.19247  0.55483  1.0000 -0.1512980955
C   C49       1.0  0.65197  0.30803  0.09100  1.0000 0.4212245608
C   C50       1.0  0.81097  0.40197  0.84394  1.0000 0.4212245608
C   C51       1.0  0.55803  0.96703  0.15606  1.0000 0.4212245608
C   C52       1.0  0.21703  0.56097  0.90900  1.0000 0.4212245608
C   C53       1.0  0.59803  0.44197  0.40900  1.0000 0.4212245608
C   C54       1.0  0.43903  0.34803  0.65606  1.0000 0.4212245608
C   C55       1.0  0.69197  0.78297  0.34394  1.0000 0.4212245608
C   C56       1.0  0.03297  0.18903  0.59100  1.0000 0.4212245608
C   C57       1.0  0.71324  0.37837  0.21041  1.0000 0.4412721212
C   C58       1.0  0.75283  0.46324  0.83487  1.0000 0.4412721212
C   C59       1.0  0.62837  0.91796  0.16513  1.0000 0.4412721212
C   C60       1.0  0.16796  0.50283  0.78959  1.0000 0.4412721212
C   C61       1.0  0.53676  0.37163  0.28959  1.0000 0.4412721212
C   C62       1.0  0.49717  0.28676  0.66513  1.0000 0.4412721212
C   C63       1.0  0.62163  0.83204  0.33487  1.0000 0.4412721212
C   C64       1.0  0.08204  0.24717  0.71041  1.0000 0.4412721212
C   C65       1.0  0.75912  0.44760  0.25012  1.0000 -0.3116753807
C   C66       1.0  0.75900  0.50912  0.81152  1.0000 -0.3116753807
C   C67       1.0  0.69760  0.94748  0.18848  1.0000 -0.3116753807
C   C68       1.0  0.19748  0.50900  0.74988  1.0000 -0.3116753807
C   C69       1.0  0.49088  0.30240  0.24988  1.0000 -0.3116753807
C   C70       1.0  0.49100  0.24088  0.68848  1.0000 -0.3116753807
C   C71       1.0  0.55240  0.80252  0.31152  1.0000 -0.3116753807
C   C72       1.0  0.05252  0.24100  0.75012  1.0000 -0.3116753807
C   C73       1.0  0.85460  0.50420  0.27140  1.0000 -0.3666897339
C   C74       1.0  0.83320  0.60460  0.85040  1.0000 -0.3666897339
C   C75       1.0  0.75420  0.98280  0.14960  1.0000 -0.3666897339
C   C76       1.0  0.23280  0.58320  0.72860  1.0000 -0.3666897339
C   C77       1.0  0.39540  0.24580  0.22860  1.0000 -0.3666897339
C   C78       1.0  0.41680  0.14540  0.64960  1.0000 -0.3666897339
C   C79       1.0  0.49580  0.76720  0.35040  1.0000 -0.3666897339
C   C80       1.0  0.01720  0.16680  0.77140  1.0000 -0.3666897339
C   C81       1.0  0.74290  0.24559  0.16749  1.0000 0.1010771727
C   C82       1.0  0.82541  0.49290  0.99731  1.0000 0.1010771727
C   C83       1.0  0.49559  0.82810  0.00269  1.0000 0.1010771727
C   C84       1.0  0.07810  0.57541  0.83251  1.0000 0.1010771727
C   C85       1.0  0.50710  0.50441  0.33251  1.0000 0.1010771727
C   C86       1.0  0.42459  0.25710  0.50269  1.0000 0.1010771727
C   C87       1.0  0.75441  0.92190  0.49731  1.0000 0.1010771727
C   C88       1.0  0.17190  0.17459  0.66749  1.0000 0.1010771727
C   C89       1.0  0.81393  0.28019  0.17412  1.0000 -0.203315259
C   C90       1.0  0.88981  0.56393  0.03374  1.0000 -0.203315259
C   C91       1.0  0.53019  0.85607  0.96626  1.0000 -0.203315259
C   C92       1.0  0.10607  0.63981  0.82588  1.0000 -0.203315259
C   C93       1.0  0.43607  0.46981  0.32588  1.0000 -0.203315259
C   C94       1.0  0.36019  0.18607  0.46626  1.0000 -0.203315259
C   C95       1.0  0.71981  0.89393  0.53374  1.0000 -0.203315259
C   C96       1.0  0.14393  0.11019  0.67412  1.0000 -0.203315259
C   C97       1.0  0.89066  0.36684  0.18190  1.0000 0.1692404451
C   C98       1.0  0.95876  0.64066  0.02382  1.0000 0.1692404451
C   C99       1.0  0.61684  0.93494  0.97618  1.0000 0.1692404451
C   C100      1.0  0.18494  0.70876  0.81810  1.0000 0.1692404451
C   C101      1.0  0.35934  0.38316  0.31810  1.0000 0.1692404451
C   C102      1.0  0.29124  0.10934  0.47618  1.0000 0.1692404451
C   C103      1.0  0.63316  0.81506  0.52382  1.0000 0.1692404451
C   C104      1.0  0.06506  0.04124  0.68190  1.0000 0.1692404451
C   C105      1.0  0.88691  0.40904  0.17995  1.0000 -0.210684703
C   C106      1.0  0.95696  0.63691  0.97787  1.0000 -0.210684703
C   C107      1.0  0.65904  0.97909  0.02213  1.0000 -0.210684703
C   C108      1.0  0.22909  0.70696  0.82005  1.0000 -0.210684703
C   C109      1.0  0.36309  0.34096  0.32005  1.0000 -0.210684703
C   C110      1.0  0.29304  0.11309  0.52213  1.0000 -0.210684703
C   C111      1.0  0.59096  0.77091  0.47787  1.0000 -0.203315259
C   C112      1.0  0.02091  0.04304  0.67995  1.0000 -0.210684703
C   C113      1.0  0.81356  0.37003  0.17279  1.0000 0.086177435
C   C114      1.0  0.89077  0.56356  0.94353  1.0000 0.086177435
C   C115      1.0  0.62003  0.94724  0.05647  1.0000 0.086177435
C   C116      1.0  0.19724  0.64077  0.82721  1.0000 0.086177435
C   C117      1.0  0.43644  0.37997  0.32721  1.0000 0.086177435
C   C118      1.0  0.35923  0.18644  0.55647  1.0000 0.086177435
C   C119      1.0  0.62997  0.80276  0.44353  1.0000 0.086177435
C   C120      1.0  0.05276  0.10923  0.67279  1.0000 0.086177435
C   C121      1.0  0.96946  0.40620  0.18946  1.0000 -0.2403744485
C   C122      1.0  0.03000  0.71946  0.06326  1.0000 -0.2403744485
C   C123      1.0  0.65620  0.96674  0.93674  1.0000 -0.2403744485
C   C124      1.0  0.21674  0.78000  0.81054  1.0000 -0.2403744485
C   C125      1.0  0.28054  0.34380  0.31054  1.0000 -0.2403744485
C   C126      1.0  0.22000  0.03054  0.43674  1.0000 -0.2403744485
C   C127      1.0  0.59380  0.78326  0.56326  1.0000 -0.2403744485
C   C128      1.0  0.03326  0.97000  0.68946  1.0000 -0.2403744485
C   C129      1.0  0.92096  0.58977  0.15993  1.0000 0.2812351252
C   C130      1.0  0.01103  0.67096  0.83119  1.0000 0.2812351252
C   C131      1.0  0.83977  0.17984  0.16881  1.0000 0.2812351252
C   C132      1.0  0.42984  0.76103  0.84007  1.0000 0.2812351252
C   C133      1.0  0.32904  0.16023  0.34007  1.0000 0.2812351252
C   C134      1.0  0.23897  0.07904  0.66881  1.0000 0.2812351252
C   C135      1.0  0.41023  0.57016  0.33119  1.0000 0.2812351252
C   C136      1.0  0.82016  0.98897  0.65993  1.0000 0.2812351252
C   C137      1.0  0.98073  0.60676  0.15649  1.0000 -0.2293167894
C   C138      1.0  0.07424  0.73073  0.87397  1.0000 -0.2293167894
C   C139      1.0  0.85676  0.20027  0.12603  1.0000 -0.2293167894
C   C140      1.0  0.45027  0.82424  0.84351  1.0000 -0.2293167894
C   C141      1.0  0.26927  0.14324  0.34351  1.0000 -0.2293167894
C   C142      1.0  0.17576  0.01927  0.62603  1.0000 -0.2293167894
C   C143      1.0  0.39324  0.54973  0.37397  1.0000 -0.2293167894
C   C144      1.0  0.79973  0.92576  0.65649  1.0000 -0.2293167894
C   C145      1.0  0.06230  0.68410  0.17980  1.0000 -0.0690970549
C   C146      1.0  0.13250  0.81230  0.87820  1.0000 -0.0690970549
C   C147      1.0  0.93410  0.25430  0.12180  1.0000 -0.0690970549
C   C148      1.0  0.50430  0.88250  0.82020  1.0000 -0.0690970549
C   C149      1.0  0.18770  0.06590  0.32020  1.0000 -0.0690970549
C   C150      1.0  0.11750  0.93770  0.62180  1.0000 -0.0690970549
C   C151      1.0  0.31590  0.49570  0.37820  1.0000 -0.0690970549
C   C152      1.0  0.74570  0.86750  0.67980  1.0000 -0.0690970549
C   C153      1.0  0.08750  0.74340  0.20810  1.0000 -0.1512980955
C   C154      1.0  0.12940  0.83750  0.84410  1.0000 -0.1512980955
C   C155      1.0  0.99340  0.28530  0.15590  1.0000 -0.1512980955
C   C156      1.0  0.53530  0.87940  0.79190  1.0000 -0.1512980955
C   C157      1.0  0.16250  0.00660  0.29190  1.0000 -0.1512980955
C   C158      1.0  0.12060  0.91250  0.65590  1.0000 -0.1512980955
C   C159      1.0  0.25660  0.46470  0.34410  1.0000 -0.1512980955
C   C160      1.0  0.71470  0.87060  0.70810  1.0000 -0.1512980955
C   C161      1.0  0.02630  0.72341  0.21391  1.0000 -0.0894531838
C   C162      1.0  0.06239  0.77630  0.80289  1.0000 -0.0894531838
C   C163      1.0  0.97341  0.25950  0.19711  1.0000 -0.0894531838
C   C164      1.0  0.50950  0.81239  0.78609  1.0000 -0.0894531838
C   C165      1.0  0.22370  0.02659  0.28609  1.0000 -0.0894531838
C   C166      1.0  0.18761  0.97370  0.69711  1.0000 -0.0894531838
C   C167      1.0  0.27659  0.49050  0.30289  1.0000 -0.0894531838
C   C168      1.0  0.74050  0.93761  0.71391  1.0000 -0.0894531838
C   C169      1.0  0.94368  0.64736  0.19084  1.0000 -0.1512980955
C   C170      1.0  0.00284  0.69368  0.79632  1.0000 -0.1512980955
C   C171      1.0  0.89736  0.20652  0.20368  1.0000 -0.1512980955
C   C172      1.0  0.45652  0.75284  0.80916  1.0000 -0.1512980955
C   C173      1.0  0.30632  0.10264  0.30916  1.0000 -0.1512980955
C   C174      1.0  0.24716  0.05632  0.70368  1.0000 -0.1512980955
C   C175      1.0  0.35264  0.54348  0.29632  1.0000 -0.1512980955
C   C176      1.0  0.79348  0.99716  0.69084  1.0000 -0.1512980955
C   C177      1.0  0.88548  0.63281  0.19929  1.0000 0.4309426474
C   C178      1.0  0.93619  0.63548  0.75267  1.0000 0.4309426474
C   C179      1.0  0.88281  0.18352  0.24733  1.0000 0.4309426474
C   C180      1.0  0.43352  0.68619  0.80071  1.0000 0.4309426474
C   C181      1.0  0.36452  0.11719  0.30071  1.0000 0.4309426474
C   C182      1.0  0.31381  0.11452  0.74733  1.0000 0.4309426474
C   C183      1.0  0.36719  0.56648  0.25267  1.0000 0.4309426474
C   C184      1.0  0.81648  0.06381  0.69929  1.0000 0.4309426474
C   C185      1.0  0.67786  0.48243  0.16449  1.0000 0.4585405925
C   C186      1.0  0.76337  0.42786  0.69543  1.0000 0.4585405925
C   C187      1.0  0.73243  0.06794  0.30457  1.0000 0.4585405925
C   C188      1.0  0.31794  0.51337  0.83551  1.0000 0.4585405925
C   C189      1.0  0.57214  0.26757  0.33551  1.0000 0.4585405925
C   C190      1.0  0.48663  0.32214  0.80457  1.0000 0.4585405925
C   C191      1.0  0.51757  0.68206  0.19543  1.0000 0.4585405925
C   C192      1.0  0.93206  0.23663  0.66449  1.0000 0.4585405925
C   C193      1.0  0.61485  0.46295  0.17340  1.0000 -0.2540096452
C   C194      1.0  0.69145  0.36485  0.65190  1.0000 -0.2540096452
C   C195      1.0  0.71295  0.03955  0.34810  1.0000 -0.2540096452
C   C196      1.0  0.28955  0.44145  0.82660  1.0000 -0.2540096452
C   C197      1.0  0.63515  0.28705  0.32660  1.0000 -0.2540096452
C   C198      1.0  0.55855  0.38515  0.84810  1.0000 -0.2540096452
C   C199      1.0  0.53705  0.71045  0.15190  1.0000 -0.2540096452
C   C200      1.0  0.96045  0.30855  0.67340  1.0000 -0.2540096452
C   C201      1.0  0.53360  0.39290  0.13490  1.0000 -0.3311785168
C   C202      1.0  0.64870  0.28360  0.64070  1.0000 -0.3311785168
C   C203      1.0  0.64290  0.00800  0.35930  1.0000 -0.3311785168
C   C204      1.0  0.25800  0.39870  0.86510  1.0000 -0.3311785168
C   C205      1.0  0.71640  0.35710  0.36510  1.0000 -0.3311785168
C   C206      1.0  0.60130  0.46640  0.85930  1.0000 -0.3311785168
C   C207      1.0  0.60710  0.74200  0.14070  1.0000 -0.3311785168
C   C208      1.0  0.99200  0.35130  0.63490  1.0000 -0.3311785168
C   C209      1.0  0.46184  0.03962  0.28066  1.0000 0.3211159671
C   C210      1.0  0.43118  0.21184  0.92222  1.0000 0.3211159671
C   C211      1.0  0.28962  0.50896  0.07778  1.0000 0.3211159671
C   C212      1.0  0.75896  0.18118  0.71934  1.0000 0.3211159671
C   C213      1.0  0.78816  0.71038  0.21934  1.0000 0.3211159671
C   C214      1.0  0.81882  0.53816  0.57778  1.0000 0.3211159671
C   C215      1.0  0.96038  0.24104  0.42222  1.0000 0.3211159671
C   C216      1.0  0.49104  0.56882  0.78066  1.0000 0.3211159671
C   C217      1.0  0.45028  0.99668  0.30896  1.0000 -0.2205147229
C   C218      1.0  0.39132  0.20028  0.95360  1.0000 -0.2205147229
C   C219      1.0  0.24668  0.43772  0.04640  1.0000 -0.2205147229
C   C220      1.0  0.68772  0.14132  0.69104  1.0000 -0.2205147229
C   C221      1.0  0.79972  0.75332  0.19104  1.0000 -0.2205147229
C   C222      1.0  0.85868  0.54972  0.54640  1.0000 -0.2205147229
C   C223      1.0  0.00332  0.31228  0.45360  1.0000 -0.2205147229
C   C224      1.0  0.56228  0.60868  0.80896  1.0000 -0.2205147229
C   C225      1.0  0.48861  0.98783  0.31064  1.0000 -0.0599728276
C   C226      1.0  0.42797  0.23861  0.00078  1.0000 -0.0599728276
C   C227      1.0  0.23783  0.42719  0.99922  1.0000 -0.0599728276
C   C228      1.0  0.67719  0.17797  0.68936  1.0000 -0.0599728276
C   C229      1.0  0.76139  0.76217  0.18936  1.0000 -0.0599728276
C   C230      1.0  0.82203  0.51139  0.49922  1.0000 -0.0599728276
C   C231      1.0  0.01217  0.32281  0.50078  1.0000 -0.0599728276
C   C232      1.0  0.57281  0.57203  0.81064  1.0000 -0.0599728276
C   C233      1.0  0.54383  0.02502  0.28425  1.0000 -0.1284328082
C   C234      1.0  0.50958  0.29383  0.01881  1.0000 -0.1284328082
C   C235      1.0  0.27502  0.49077  0.98119  1.0000 -0.1284328082
C   C236      1.0  0.74077  0.25958  0.71575  1.0000 -0.1284328082
C   C237      1.0  0.70617  0.72498  0.21575  1.0000 -0.1284328082
C   C238      1.0  0.74042  0.45617  0.48119  1.0000 -0.1284328082
C   C239      1.0  0.97498  0.25923  0.51881  1.0000 -0.1284328082
C   C240      1.0  0.50923  0.49042  0.78425  1.0000 -0.1284328082
C   C241      1.0  0.55847  0.06979  0.25626  1.0000 -0.0690970549
C   C242      1.0  0.55221  0.30847  0.98868  1.0000 -0.0690970549
C   C243      1.0  0.31979  0.56353  0.01132  1.0000 -0.0690970549
C   C244      1.0  0.81353  0.30221  0.74374  1.0000 -0.0690970549
C   C245      1.0  0.69153  0.68021  0.24374  1.0000 -0.0690970549
C   C246      1.0  0.69779  0.44153  0.51132  1.0000 -0.0690970549
C   C247      1.0  0.93021  0.18647  0.48868  1.0000 -0.0690970549
C   C248      1.0  0.43647  0.44779  0.75626  1.0000 -0.0690970549
C   C249      1.0  0.51943  0.07785  0.25368  1.0000 -0.1622250487
C   C250      1.0  0.51575  0.26943  0.94158  1.0000 -0.1622250487
C   C251      1.0  0.32785  0.57417  0.05842  1.0000 -0.1622250487
C   C252      1.0  0.82417  0.26575  0.74632  1.0000 -0.1622250487
C   C253      1.0  0.73057  0.67215  0.24632  1.0000 -0.1622250487
C   C254      1.0  0.73425  0.48057  0.55842  1.0000 -0.1622250487
C   C255      1.0  0.92215  0.17583  0.44158  1.0000 -0.1622250487
C   C256      1.0  0.42583  0.48425  0.75368  1.0000 -0.1622250487
C   C257      1.0  0.53504  0.12199  0.22223  1.0000 0.4212245608
C   C258      1.0  0.56281  0.28504  0.91305  1.0000 0.4212245608
C   C259      1.0  0.37199  0.64976  0.08695  1.0000 0.4212245608
C   C260      1.0  0.89976  0.31281  0.77777  1.0000 0.4212245608
C   C261      1.0  0.71496  0.62801  0.27777  1.0000 0.4212245608
C   C262      1.0  0.68719  0.46496  0.58695  1.0000 0.4212245608
C   C263      1.0  0.87801  0.10024  0.41305  1.0000 0.4212245608
C   C264      1.0  0.35024  0.43719  0.72223  1.0000 0.4212245608
C   C265      1.0  0.47221  0.17020  0.18001  1.0000 0.4309426474
C   C266      1.0  0.54220  0.22221  0.80201  1.0000 0.4309426474
C   C267      1.0  0.42020  0.74019  0.19799  1.0000 0.4309426474
C   C268      1.0  0.99019  0.29220  0.81999  1.0000 0.4309426474
C   C269      1.0  0.77779  0.57980  0.31999  1.0000 0.4309426474
C   C270      1.0  0.70780  0.52779  0.69799  1.0000 0.4309426474
C   C271      1.0  0.82980  0.00981  0.30201  1.0000 0.4309426474
C   C272      1.0  0.25981  0.45780  0.68001  1.0000 0.4309426474
C   C273      1.0  0.47390  0.20267  0.14397  1.0000 -0.2403744485
C   C274      1.0  0.57993  0.22390  0.77123  1.0000 -0.2403744485
C   C275      1.0  0.45267  0.80870  0.22877  1.0000 -0.2403744485
C   C276      1.0  0.05870  0.32993  0.85603  1.0000 -0.2403744485
C   C277      1.0  0.77610  0.54733  0.35603  1.0000 -0.2403744485
C   C278      1.0  0.67007  0.52610  0.72877  1.0000 -0.2403744485
C   C279      1.0  0.79733  0.94130  0.27123  1.0000 -0.2403744485
C   C280      1.0  0.19130  0.42007  0.64397  1.0000 -0.2403744485
C   C281      1.0  0.39421  0.15490  0.11691  1.0000 -0.3206017239
C   C282      1.0  0.52730  0.14421  0.73931  1.0000 -0.3206017239
C   C283      1.0  0.40490  0.78799  0.26069  1.0000 -0.3206017239
C   C284      1.0  0.03799  0.27730  0.88309  1.0000 -0.3206017239
C   C285      1.0  0.85579  0.59510  0.38309  1.0000 -0.3206017239
C   C286      1.0  0.72270  0.60579  0.76069  1.0000 -0.3206017239
C   C287      1.0  0.84510  0.96201  0.23931  1.0000 -0.3206017239
C   C288      1.0  0.21201  0.47270  0.61691  1.0000 -0.3206017239
C   C289      1.0  0.17330  0.50430  0.12820  1.0000 0.0827293431
C   C290      1.0  0.29510  0.92330  0.16900  1.0000 0.0827293431
C   C291      1.0  0.75430  0.12610  0.83100  1.0000 0.0827293431
C   C292      1.0  0.37610  0.04510  0.87180  1.0000 0.0827293431
C   C293      1.0  0.07670  0.24570  0.37180  1.0000 0.0827293431
C   C294      1.0  0.95490  0.82670  0.33100  1.0000 0.0827293431
C   C295      1.0  0.49570  0.62390  0.66900  1.0000 0.0827293431
C   C296      1.0  0.87390  0.70490  0.62820  1.0000 0.0827293431
C   C297      1.0  0.10390  0.47200  0.12130  1.0000 -0.210684703
C   C298      1.0  0.23260  0.85390  0.13190  1.0000 -0.210684703
C   C299      1.0  0.72200  0.10070  0.86810  1.0000 -0.210684703
C   C300      1.0  0.35070  0.98260  0.87870  1.0000 -0.210684703
C   C301      1.0  0.14610  0.27800  0.37870  1.0000 -0.210684703
C   C302      1.0  0.01740  0.89610  0.36810  1.0000 -0.210684703
C   C303      1.0  0.52800  0.64930  0.63190  1.0000 -0.210684703
C   C304      1.0  0.89930  0.76740  0.62130  1.0000 -0.210684703
C   C305      1.0  0.08020  0.46720  0.15740  1.0000 0.1558158586
C   C306      1.0  0.17280  0.83020  0.11300  1.0000 0.1558158586
C   C307      1.0  0.71720  0.05980  0.88700  1.0000 0.1558158586
C   C308      1.0  0.30980  0.92280  0.84260  1.0000 0.1558158586
C   C309      1.0  0.16980  0.28280  0.34260  1.0000 0.1558158586
C   C310      1.0  0.07720  0.91980  0.38700  1.0000 0.1558158586
C   C311      1.0  0.53280  0.69020  0.61300  1.0000 0.1558158586
C   C312      1.0  0.94020  0.82720  0.65740  1.0000 0.1558158586
C   C313      1.0  0.13640  0.50720  0.20320  1.0000 -0.2205147229
C   C314      1.0  0.18320  0.88640  0.12920  1.0000 -0.2205147229
C   C315      1.0  0.75720  0.05400  0.87080  1.0000 -0.2205147229
C   C316      1.0  0.30400  0.93320  0.79680  1.0000 -0.2205147229
C   C317      1.0  0.11360  0.24280  0.29680  1.0000 -0.2205147229
C   C318      1.0  0.06680  0.86360  0.37080  1.0000 -0.2205147229
C   C319      1.0  0.49280  0.69600  0.62920  1.0000 -0.2205147229
C   C320      1.0  0.94600  0.81680  0.70320  1.0000 -0.2205147229
C   C321      1.0  0.20260  0.53380  0.20380  1.0000 0.0827293431
C   C322      1.0  0.24880  0.95260  0.16880  1.0000 0.0827293431
C   C323      1.0  0.78380  0.08000  0.83120  1.0000 0.0827293431
C   C324      1.0  0.33000  0.99880  0.79620  1.0000 0.0827293431
C   C325      1.0  0.04740  0.21620  0.29620  1.0000 0.0827293431
C   C326      1.0  0.00120  0.79740  0.33120  1.0000 0.0827293431
C   C327      1.0  0.46620  0.67000  0.66880  1.0000 0.0827293431
C   C328      1.0  0.92000  0.75120  0.70380  1.0000 0.0827293431
C   C329      1.0  0.00230  0.43070  0.15080  1.0000 -0.2293167894
C   C330      1.0  0.10150  0.75230  0.07160  1.0000 -0.2293167894
C   C331      1.0  0.68070  0.02990  0.92840  1.0000 -0.2293167894
C   C332      1.0  0.27990  0.85150  0.84920  1.0000 -0.2293167894
C   C333      1.0  0.24770  0.31930  0.34920  1.0000 -0.2293167894
C   C334      1.0  0.14850  0.99770  0.42840  1.0000 -0.2293167894
C   C335      1.0  0.56930  0.72010  0.57160  1.0000 -0.2293167894
C   C336      1.0  0.97010  0.89850  0.65080  1.0000 -0.2293167894
N   N1        1.0  0.65919  0.30869  0.13548  1.0000 -0.3311785168
N   N2        1.0  0.77371  0.40919  0.85050  1.0000 -0.3311785168
N   N3        1.0  0.55869  0.92321  0.14950  1.0000 -0.3311785168
N   N4        1.0  0.17321  0.52371  0.86452  1.0000 -0.3311785168
N   N5        1.0  0.59081  0.44131  0.36452  1.0000 -0.3311785168
N   N6        1.0  0.47629  0.34081  0.64950  1.0000 -0.3311785168
N   N7        1.0  0.69131  0.82679  0.35050  1.0000 -0.3311785168
N   N8        1.0  0.07679  0.22629  0.63548  1.0000 -0.3311785168
N   N9        1.0  0.70178  0.37930  0.16768  1.0000 -0.3206017239
N   N10       1.0  0.78410  0.45178  0.82248  1.0000 -0.3206017239
N   N11       1.0  0.62930  0.96162  0.17752  1.0000 -0.3206017239
N   N12       1.0  0.21162  0.53410  0.83232  1.0000 -0.3206017239
N   N13       1.0  0.54822  0.37070  0.33232  1.0000 -0.3206017239
N   N14       1.0  0.46590  0.29822  0.67752  1.0000 -0.3206017239
N   N15       1.0  0.62070  0.78838  0.32248  1.0000 -0.3206017239
N   N16       1.0  0.03838  0.21590  0.66768  1.0000 -0.3206017239
N   N17       1.0  0.74160  0.28917  0.16677  1.0000 -0.2205147229
N   N18       1.0  0.82483  0.49160  0.95243  1.0000 -0.2205147229
N   N19       1.0  0.53917  0.87240  0.04757  1.0000 -0.2205147229
N   N20       1.0  0.12240  0.57483  0.83323  1.0000 -0.2205147229
N   N21       1.0  0.50840  0.46083  0.33323  1.0000 -0.2205147229
N   N22       1.0  0.42517  0.25840  0.54757  1.0000 -0.2205147229
N   N23       1.0  0.71083  0.87760  0.45243  1.0000 -0.2205147229
N   N24       1.0  0.12760  0.17517  0.66677  1.0000 -0.2205147229
N   N25       1.0  0.80508  0.55982  0.17750  1.0000 -0.3392876273
N   N26       1.0  0.87758  0.55508  0.74526  1.0000 -0.3392876273
N   N27       1.0  0.80982  0.13232  0.25474  1.0000 -0.3392876273
N   N28       1.0  0.38232  0.62758  0.82250  1.0000 -0.3392876273
N   N29       1.0  0.44492  0.19018  0.32250  1.0000 -0.3392876273
N   N30       1.0  0.37242  0.19492  0.75474  1.0000 -0.3392876273
N   N31       1.0  0.44018  0.61768  0.24526  1.0000 -0.3392876273
N   N32       1.0  0.86768  0.12242  0.67750  1.0000 -0.3392876273
N   N33       1.0  0.75488  0.55305  0.18933  1.0000 -0.3311785168
N   N34       1.0  0.81555  0.50488  0.70183  1.0000 -0.3311785168
N   N35       1.0  0.80305  0.11372  0.29817  1.0000 -0.3311785168
N   N36       1.0  0.36372  0.56555  0.81067  1.0000 -0.3311785168
N   N37       1.0  0.49512  0.19695  0.31067  1.0000 -0.3311785168
N   N38       1.0  0.43445  0.24512  0.79817  1.0000 -0.3311785168
N   N39       1.0  0.44695  0.63628  0.20183  1.0000 -0.3311785168
N   N40       1.0  0.88628  0.18445  0.68933  1.0000 -0.3311785168
N   N41       1.0  0.49555  0.12690  0.21605  1.0000 -0.3311785168
N   N42       1.0  0.52950  0.24555  0.86865  1.0000 -0.3311785168
N   N43       1.0  0.37690  0.66085  0.13135  1.0000 -0.3311785168
N   N44       1.0  0.91085  0.27950  0.78395  1.0000 -0.3311785168
N   N45       1.0  0.75445  0.62310  0.28395  1.0000 -0.3311785168
N   N46       1.0  0.72050  0.50445  0.63135  1.0000 -0.3311785168
N   N47       1.0  0.87310  0.08915  0.36865  1.0000 -0.3311785168
N   N48       1.0  0.33915  0.47050  0.71605  1.0000 -0.3311785168
N   N49       1.0  0.51013  0.16457  0.18170  1.0000 -0.2989084681
N   N50       1.0  0.57843  0.26013  0.84556  1.0000 -0.2989084681
N   N51       1.0  0.41457  0.73287  0.15444  1.0000 -0.2989084681
N   N52       1.0  0.98287  0.32843  0.81830  1.0000 -0.2989084681
N   N53       1.0  0.73987  0.58543  0.31830  1.0000 -0.2989084681
N   N54       1.0  0.67157  0.48987  0.65444  1.0000 -0.2989084681
N   N55       1.0  0.83543  0.01713  0.34556  1.0000 -0.2989084681
N   N56       1.0  0.26713  0.42157  0.68170  1.0000 -0.2989084681
N   N57       1.0  0.21938  0.52981  0.16539  1.0000 -0.2205147229
N   N58       1.0  0.30399  0.96938  0.18957  1.0000 -0.2205147229
N   N59       1.0  0.77981  0.11442  0.81043  1.0000 -0.2205147229
N   N60       1.0  0.36442  0.05399  0.83461  1.0000 -0.2205147229
N   N61       1.0  0.03062  0.22019  0.33461  1.0000 -0.2205147229
N   N62       1.0  0.94601  0.78062  0.31043  1.0000 -0.2205147229
N   N63       1.0  0.47019  0.63558  0.68957  1.0000 -0.2205147229
N   N64       1.0  0.88558  0.69601  0.66539  1.0000 -0.2205147229
O   O1        1.0  0.56778  0.15645  0.10583  1.0000 -0.4720402879
O   O2        1.0  0.71195  0.31778  0.91133  1.0000 -0.4720402879
O   O3        1.0  0.40645  0.80062  0.08867  1.0000 -0.4720402879
O   O4        1.0  0.05062  0.46195  0.89417  1.0000 -0.4720402879
O   O5        1.0  0.68222  0.59355  0.39417  1.0000 -0.4720402879
O   O6        1.0  0.53805  0.43222  0.58867  1.0000 -0.4720402879
O   O7        1.0  0.84355  0.94938  0.41133  1.0000 -0.4720402879
O   O8        1.0  0.19938  0.28805  0.60583  1.0000 -0.4720402879
O   O9        1.0  0.68088  0.36813  0.07961  1.0000 -0.4720402879
O   O10       1.0  0.85127  0.43088  0.81275  1.0000 -0.4720402879
O   O11       1.0  0.61813  0.03852  0.18725  1.0000 -0.4720402879
O   O12       1.0  0.28852  0.60127  0.92039  1.0000 -0.4720402879
O   O13       1.0  0.56912  0.38187  0.42039  1.0000 -0.4720402879
O   O14       1.0  0.39873  0.31912  0.68725  1.0000 -0.4720402879
O   O15       1.0  0.63187  0.71148  0.31275  1.0000 -0.4720402879
O   O16       1.0  0.96148  0.14873  0.57961  1.0000 -0.4720402879
O   O17       1.0  0.68478  0.31685  0.21963  1.0000 -0.4720402879
O   O18       1.0  0.71515  0.43478  0.86793  1.0000 -0.4720402879
O   O19       1.0  0.56685  0.84722  0.13207  1.0000 -0.4720402879
O   O20       1.0  0.09722  0.46515  0.78037  1.0000 -0.4720402879
O   O21       1.0  0.56522  0.43315  0.28037  1.0000 -0.4720402879
O   O22       1.0  0.53485  0.31522  0.63207  1.0000 -0.4720402879
O   O23       1.0  0.68315  0.90278  0.36793  1.0000 -0.4720402879
O   O24       1.0  0.15278  0.28485  0.71963  1.0000 -0.4720402879
O   O25       1.0  0.84320  0.51617  0.13177  1.0000 -0.4994280597
O   O26       1.0  0.96143  0.59320  0.82703  1.0000 -0.506005313
O   O27       1.0  0.76617  0.13440  0.17297  1.0000 -0.4994280597
O   O28       1.0  0.38440  0.71143  0.86823  1.0000 -0.506005313
O   O29       1.0  0.40680  0.23383  0.36823  1.0000 -0.4994280597
O   O30       1.0  0.28857  0.15680  0.67297  1.0000 -0.4994280597
O   O31       1.0  0.48383  0.61560  0.32703  1.0000 -0.506005313
O   O32       1.0  0.86560  0.03857  0.63177  1.0000 -0.506005313
O   O33       1.0  0.91216  0.68979  0.22801  1.0000 -0.4720402879
O   O34       1.0  0.93415  0.66216  0.72237  1.0000 -0.4720402879
O   O35       1.0  0.93979  0.21178  0.27763  1.0000 -0.4720402879
O   O36       1.0  0.46178  0.68415  0.77199  1.0000 -0.4720402879
O   O37       1.0  0.33784  0.06021  0.27199  1.0000 -0.4720402879
O   O38       1.0  0.31585  0.08784  0.77763  1.0000 -0.4720402879
O   O39       1.0  0.31021  0.53822  0.22237  1.0000 -0.4720402879
O   O40       1.0  0.78822  0.06585  0.72801  1.0000 -0.4720402879
O   O41       1.0  0.65492  0.42980  0.13296  1.0000 -0.4994280597
O   O42       1.0  0.77196  0.40492  0.72512  1.0000 -0.4994280597
O   O43       1.0  0.67980  0.04684  0.27488  1.0000 -0.4994280597
O   O44       1.0  0.29684  0.52196  0.86704  1.0000 -0.4994280597
O   O45       1.0  0.59508  0.32020  0.36704  1.0000 -0.4994280597
O   O46       1.0  0.47804  0.34508  0.77488  1.0000 -0.4994280597
O   O47       1.0  0.57020  0.70316  0.22512  1.0000 -0.4994280597
O   O48       1.0  0.95316  0.22804  0.63296  1.0000 -0.4994280597
O   O49       1.0  0.42039  0.04246  0.28025  1.0000 -0.4598603972
O   O50       1.0  0.39014  0.17039  0.87793  1.0000 -0.4598603972
O   O51       1.0  0.29246  0.51221  0.12207  1.0000 -0.4598603972
O   O52       1.0  0.76221  0.14014  0.71975  1.0000 -0.4598603972
O   O53       1.0  0.82961  0.70754  0.21975  1.0000 -0.4598603972
O   O54       1.0  0.85986  0.57961  0.62207  1.0000 -0.4598603972
O   O55       1.0  0.95754  0.23779  0.37793  1.0000 -0.4598603972
O   O56       1.0  0.48779  0.60986  0.78025  1.0000 -0.4598603972
O   O57       1.0  0.58954  0.15662  0.20004  1.0000 -0.4598603972
O   O58       1.0  0.63950  0.33954  0.93292  1.0000 -0.4598603972
O   O59       1.0  0.40662  0.70658  0.06708  1.0000 -0.4598603972
O   O60       1.0  0.95658  0.38950  0.79996  1.0000 -0.4598603972
O   O61       1.0  0.66046  0.59338  0.29996  1.0000 -0.4598603972
O   O62       1.0  0.61050  0.41046  0.56708  1.0000 -0.4598603972
O   O63       1.0  0.84338  0.04342  0.43292  1.0000 -0.4598603972
O   O64       1.0  0.29342  0.36050  0.70004  1.0000 -0.4598603972
O   O65       1.0  0.42545  0.14298  0.20763  1.0000 -0.4829532204
O   O66       1.0  0.46782  0.17545  0.78247  1.0000 -0.4829532204
O   O67       1.0  0.39298  0.68535  0.21753  1.0000 -0.4829532204
O   O68       1.0  0.93535  0.21782  0.79237  1.0000 -0.4829532204
O   O69       1.0  0.82455  0.60702  0.29237  1.0000 -0.4829532204
O   O70       1.0  0.78218  0.57455  0.71753  1.0000 -0.4829532204
O   O71       1.0  0.85702  0.06465  0.28247  1.0000 -0.4829532204
O   O72       1.0  0.31465  0.53218  0.70763  1.0000 -0.4829532204
