# DDEC6 charges by PACMAN v1.1 (https://github.com/mtap-research/PACMAN-charge/)
data_2005[Mn][lvt]2[ASR]3
_chemical_formula_sum              "Mn24 H312 C336 N64 O72"
_cell_length_a       29.8707
_cell_length_b       29.8707
_cell_length_c       29.8707
_cell_angle_alpha    94.9603
_cell_angle_beta     94.9603
_cell_angle_gamma    145.799

_symmetry_space_group_name_H-M    "P 1"
_symmetry_Int_Tables_number       1

loop_
  _symmetry_equiv_pos_as_xyz
  'x, y, z'

loop_
  _atom_site_type_symbol
  _atom_site_label
  _atom_site_symmetry_multiplicity
  _atom_site_fract_x
  _atom_site_fract_y
  _atom_site_fract_z
  _atom_site_occupancy
  _atom_site_charge
Mn  Mn1       1.0  0.62345  0.28899  0.10608  1.0000 0.8818433432
Mn  Mn2       1.0  0.76737  0.37345  0.83446  1.0000 0.8818433432
Mn  Mn3       1.0  0.53899  0.93291  0.16554  1.0000 0.8818433432
Mn  Mn4       1.0  0.18291  0.51737  0.89392  1.0000 0.8818433432
Mn  Mn5       1.0  0.62655  0.46101  0.39392  1.0000 0.8818433432
Mn  Mn6       1.0  0.48263  0.37655  0.66554  1.0000 0.8818433432
Mn  Mn7       1.0  0.71101  0.81709  0.33446  1.0000 0.8818433432
Mn  Mn8       1.0  0.06709  0.23263  0.60608  1.0000 0.8818433432
Mn  Mn9       1.0  0.50276  0.13234  0.22104  1.0000 0.9206480084
Mn  Mn10      1.0  0.53172  0.25276  0.87042  1.0000 0.9206480084
Mn  Mn11      1.0  0.38234  0.66130  0.12958  1.0000 0.9206480084
Mn  Mn12      1.0  0.91130  0.28172  0.77896  1.0000 0.9206480084
Mn  Mn13      1.0  0.74724  0.61766  0.27896  1.0000 0.9206480084
Mn  Mn14      1.0  0.71828  0.49724  0.62958  1.0000 0.9206480084
Mn  Mn15      1.0  0.86766  0.08870  0.37042  1.0000 0.9206480084
Mn  Mn16      1.0  0.33870  0.46828  0.72104  1.0000 0.9206480084
Mn  Mn17      1.0  0.83100  0.57871  0.17073  1.0000 0.8979596196
Mn  Mn18      1.0  0.91027  0.58100  0.75229  1.0000 0.8979596196
Mn  Mn19      1.0  0.82871  0.15798  0.24771  1.0000 0.8979596196
Mn  Mn20      1.0  0.40798  0.66027  0.82927  1.0000 0.8979596196
Mn  Mn21      1.0  0.41900  0.17129  0.32927  1.0000 0.8979596196
Mn  Mn22      1.0  0.33973  0.16900  0.74771  1.0000 0.8979596196
Mn  Mn23      1.0  0.42129  0.59202  0.25229  1.0000 0.8979596196
Mn  Mn24      1.0  0.84202  0.08973  0.67073  1.0000 0.8979596196
H   H1        1.0  0.74020  0.27240  0.05040  1.0000 0.1306681918
H   H2        1.0  0.93980  0.49020  0.96780  1.0000 0.1306681918
H   H3        1.0  0.52240  0.97200  0.03220  1.0000 0.1306681918
H   H4        1.0  0.22200  0.68980  0.94960  1.0000 0.1306681918
H   H5        1.0  0.50980  0.47760  0.44960  1.0000 0.1306681918
H   H6        1.0  0.31020  0.25980  0.53220  1.0000 0.1306681918
H   H7        1.0  0.72760  0.77800  0.46780  1.0000 0.1306681918
H   H8        1.0  0.02800  0.06020  0.55040  1.0000 0.1306681918
H   H9        1.0  0.74020  0.19720  0.06260  1.0000 0.1027537098
H   H10       1.0  0.92760  0.49020  0.04300  1.0000 0.1027537098
H   H11       1.0  0.44720  0.88460  0.95700  1.0000 0.1027537098
H   H12       1.0  0.13460  0.67760  0.93740  1.0000 0.1027537098
H   H13       1.0  0.50980  0.55280  0.43740  1.0000 0.1027537098
H   H14       1.0  0.32240  0.25980  0.45700  1.0000 0.1027537098
H   H15       1.0  0.80280  0.86540  0.54300  1.0000 0.1027537098
H   H16       1.0  0.11540  0.07240  0.56260  1.0000 0.1027537098
H   H17       1.0  0.67160  0.11410  0.11330  1.0000 0.1195994112
H   H18       1.0  0.80830  0.42160  0.05750  1.0000 0.1306681918
H   H19       1.0  0.36410  0.75080  0.94250  1.0000 0.1306681918
H   H20       1.0  0.00080  0.55830  0.88670  1.0000 0.1306681918
H   H21       1.0  0.57840  0.63590  0.38670  1.0000 0.1306681918
H   H22       1.0  0.44170  0.32840  0.44250  1.0000 0.1306681918
H   H23       1.0  0.88590  0.99920  0.55750  1.0000 0.1306681918
H   H24       1.0  0.24920  0.19170  0.61330  1.0000 0.1195994112
H   H25       1.0  0.61410  0.11720  0.15710  1.0000 0.1195994112
H   H26       1.0  0.70700  0.36410  0.99690  1.0000 0.1195994112
H   H27       1.0  0.36720  0.71010  0.00310  1.0000 0.1195994112
H   H28       1.0  0.96010  0.45700  0.84290  1.0000 0.1195994112
H   H29       1.0  0.63590  0.63280  0.34290  1.0000 0.1195994112
H   H30       1.0  0.54300  0.38590  0.50310  1.0000 0.1195994112
H   H31       1.0  0.88280  0.03990  0.49690  1.0000 0.1195994112
H   H32       1.0  0.28990  0.29300  0.65710  1.0000 0.1195994112
H   H33       1.0  0.47970  0.22290  0.21660  1.0000 0.1378402368
H   H34       1.0  0.51310  0.22970  0.75680  1.0000 0.1378402368
H   H35       1.0  0.47290  0.75630  0.24320  1.0000 0.1378402368
H   H36       1.0  0.00630  0.26310  0.78340  1.0000 0.1378402368
H   H37       1.0  0.77030  0.52710  0.28340  1.0000 0.1378402368
H   H38       1.0  0.73690  0.52030  0.74320  1.0000 0.1378402368
H   H39       1.0  0.77710  0.99370  0.25680  1.0000 0.1378402368
H   H40       1.0  0.24370  0.48690  0.71660  1.0000 0.1378402368
H   H41       1.0  0.51570  0.29300  0.19530  1.0000 0.1378402368
H   H42       1.0  0.57040  0.26570  0.72270  1.0000 0.1378402368
H   H43       1.0  0.54300  0.84770  0.27730  1.0000 0.1378402368
H   H44       1.0  0.09770  0.32040  0.80470  1.0000 0.1378402368
H   H45       1.0  0.73430  0.45700  0.30470  1.0000 0.1378402368
H   H46       1.0  0.67960  0.48430  0.77730  1.0000 0.1378402368
H   H47       1.0  0.70700  0.90230  0.22270  1.0000 0.1378402368
H   H48       1.0  0.15230  0.42960  0.69530  1.0000 0.1378402368
H   H49       1.0  0.36240  0.11300  0.14140  1.0000 0.1195994112
H   H50       1.0  0.47100  0.11240  0.74940  1.0000 0.1195994112
H   H51       1.0  0.36300  0.72160  0.25060  1.0000 0.1195994112
H   H52       1.0  0.97160  0.22100  0.85860  1.0000 0.1195994112
H   H53       1.0  0.88760  0.63700  0.35860  1.0000 0.1195994112
H   H54       1.0  0.77900  0.63760  0.75060  1.0000 0.1195994112
H   H55       1.0  0.88700  0.02840  0.24940  1.0000 0.1195994112
H   H56       1.0  0.27840  0.52900  0.64140  1.0000 0.1195994112
H   H57       1.0  0.35890  0.16040  0.16410  1.0000 0.1378402368
H   H58       1.0  0.44480  0.10890  0.69850  1.0000 0.1378402368
H   H59       1.0  0.41040  0.74630  0.30150  1.0000 0.1378402368
H   H60       1.0  0.99630  0.19480  0.83590  1.0000 0.1378402368
H   H61       1.0  0.89110  0.58960  0.33590  1.0000 0.1378402368
H   H62       1.0  0.80520  0.64110  0.80150  1.0000 0.1378402368
H   H63       1.0  0.83960  0.00370  0.19850  1.0000 0.1378402368
H   H64       1.0  0.25370  0.55520  0.66410  1.0000 0.1378402368
H   H65       1.0  0.39770  0.18330  0.12100  1.0000 0.1306681918
H   H66       1.0  0.52670  0.14770  0.71440  1.0000 0.1306681918
H   H67       1.0  0.43330  0.81230  0.28560  1.0000 0.1306681918
H   H68       1.0  0.06230  0.27670  0.87900  1.0000 0.1306681918
H   H69       1.0  0.85230  0.56670  0.37900  1.0000 0.1306681918
H   H70       1.0  0.72330  0.60230  0.78560  1.0000 0.1306681918
H   H71       1.0  0.81670  0.93770  0.21440  1.0000 0.1306681918
H   H72       1.0  0.18770  0.47330  0.62100  1.0000 0.1306681918
H   H73       1.0  0.55790  0.21870  0.99640  1.0000 0.1195994112
H   H74       1.0  0.81150  0.30790  0.83920  1.0000 0.1195994112
H   H75       1.0  0.46870  0.97230  0.16080  1.0000 0.1195994112
H   H76       1.0  0.22230  0.56150  0.00360  1.0000 0.1195994112
H   H77       1.0  0.69210  0.53130  0.50360  1.0000 0.1195994112
H   H78       1.0  0.43850  0.44210  0.66080  1.0000 0.1195994112
H   H79       1.0  0.78130  0.77770  0.33920  1.0000 0.1195994112
H   H80       1.0  0.02770  0.18850  0.49640  1.0000 0.1195994112
H   H81       1.0  0.44150  0.10680  0.93430  1.0000 0.1378402368
H   H82       1.0  0.75720  0.19150  0.83470  1.0000 0.1378402368
H   H83       1.0  0.35680  0.92250  0.16530  1.0000 0.1378402368
H   H84       1.0  0.17250  0.50720  0.06570  1.0000 0.1378402368
H   H85       1.0  0.80850  0.64320  0.56570  1.0000 0.1378402368
H   H86       1.0  0.49280  0.55850  0.66530  1.0000 0.1378402368
H   H87       1.0  0.89320  0.82750  0.33470  1.0000 0.1378402368
H   H88       1.0  0.07750  0.24280  0.43430  1.0000 0.1378402368
H   H89       1.0  0.31060  0.00260  0.02800  1.0000 0.1378402368
H   H90       1.0  0.53260  0.06060  0.80800  1.0000 0.1378402368
H   H91       1.0  0.25260  0.72460  0.19200  1.0000 0.1378402368
H   H92       1.0  0.97460  0.28260  0.97200  1.0000 0.1378402368
H   H93       1.0  0.93940  0.74740  0.47200  1.0000 0.1378402368
H   H94       1.0  0.71740  0.68940  0.69200  1.0000 0.1378402368
H   H95       1.0  0.99740  0.02540  0.30800  1.0000 0.1378402368
H   H96       1.0  0.27540  0.46740  0.52800  1.0000 0.1378402368
H   H97       1.0  0.42920  0.10800  0.08580  1.0000 0.1125153628
H   H98       1.0  0.59340  0.17920  0.82120  1.0000 0.1125153628
H   H99       1.0  0.35800  0.77220  0.17880  1.0000 0.1125153628
H   H100      1.0  0.02220  0.34340  0.91420  1.0000 0.1125153628
H   H101      1.0  0.82080  0.64200  0.41420  1.0000 0.1125153628
H   H102      1.0  0.65660  0.57080  0.67880  1.0000 0.1125153628
H   H103      1.0  0.89200  0.97780  0.32120  1.0000 0.1125153628
H   H104      1.0  0.22780  0.40660  0.58580  1.0000 0.1125153628
H   H105      1.0  0.29200  0.99000  0.90600  1.0000 0.1306681918
H   H106      1.0  0.63600  0.04200  0.80200  1.0000 0.1306681918
H   H107      1.0  0.24000  0.83400  0.19800  1.0000 0.1306681918
H   H108      1.0  0.08400  0.38600  0.09400  1.0000 0.1306681918
H   H109      1.0  0.95800  0.76000  0.59400  1.0000 0.1306681918
H   H110      1.0  0.61400  0.70800  0.69800  1.0000 0.1306681918
H   H111      1.0  0.01000  0.91600  0.30200  1.0000 0.1306681918
H   H112      1.0  0.16600  0.36400  0.40600  1.0000 0.1306681918
H   H113      1.0  0.23820  0.95310  0.94250  1.0000 0.1195994112
H   H114      1.0  0.54570  0.98820  0.78510  1.0000 0.1195994112
H   H115      1.0  0.20310  0.76060  0.21490  1.0000 0.1195994112
H   H116      1.0  0.01060  0.29570  0.05750  1.0000 0.1195994112
H   H117      1.0  0.01180  0.79690  0.55750  1.0000 0.1195994112
H   H118      1.0  0.70430  0.76180  0.71490  1.0000 0.1195994112
H   H119      1.0  0.04690  0.98940  0.28510  1.0000 0.1195994112
H   H120      1.0  0.23940  0.45430  0.44250  1.0000 0.1195994112
H   H121      1.0  0.28330  0.92240  0.10350  1.0000 0.1306681918
H   H122      1.0  0.42980  0.03330  0.86090  1.0000 0.1306681918
H   H123      1.0  0.17240  0.56890  0.13910  1.0000 0.1306681918
H   H124      1.0  0.81890  0.17980  0.89650  1.0000 0.1306681918
H   H125      1.0  0.96670  0.82760  0.39650  1.0000 0.1306681918
H   H126      1.0  0.82020  0.71670  0.63910  1.0000 0.1306681918
H   H127      1.0  0.07760  0.18110  0.36090  1.0000 0.1306681918
H   H128      1.0  0.43110  0.57020  0.60350  1.0000 0.1306681918
H   H129      1.0  0.15740  0.85120  0.08800  1.0000 0.1125153628
H   H130      1.0  0.31940  0.90740  0.80620  1.0000 0.1125153628
H   H131      1.0  0.10120  0.51320  0.19380  1.0000 0.1125153628
H   H132      1.0  0.76320  0.06940  0.91200  1.0000 0.1125153628
H   H133      1.0  0.09260  0.89880  0.41200  1.0000 0.1125153628
H   H134      1.0  0.93060  0.84260  0.69380  1.0000 0.1125153628
H   H135      1.0  0.14880  0.23680  0.30620  1.0000 0.1125153628
H   H136      1.0  0.48680  0.68060  0.58800  1.0000 0.1125153628
H   H137      1.0  0.10790  0.82000  0.15750  1.0000 0.1195994112
H   H138      1.0  0.20040  0.85790  0.78790  1.0000 0.1195994112
H   H139      1.0  0.07000  0.41250  0.21210  1.0000 0.1195994112
H   H140      1.0  0.66250  0.95040  0.84250  1.0000 0.1195994112
H   H141      1.0  0.14210  0.93000  0.34250  1.0000 0.1195994112
H   H142      1.0  0.04960  0.89210  0.71210  1.0000 0.1195994112
H   H143      1.0  0.18000  0.33750  0.28790  1.0000 0.1195994112
H   H144      1.0  0.58750  0.79960  0.65750  1.0000 0.1195994112
H   H145      1.0  0.21050  0.95690  0.21540  1.0000 0.1195994112
H   H146      1.0  0.24510  0.96050  0.75360  1.0000 0.1195994112
H   H147      1.0  0.20690  0.49150  0.24640  1.0000 0.1195994112
H   H148      1.0  0.74150  0.99510  0.78460  1.0000 0.1195994112
H   H149      1.0  0.03950  0.79310  0.28460  1.0000 0.1195994112
H   H150      1.0  0.00490  0.78950  0.74640  1.0000 0.1195994112
H   H151      1.0  0.04310  0.25850  0.25360  1.0000 0.1195994112
H   H152      1.0  0.50850  0.75490  0.71540  1.0000 0.1195994112
H   H153      1.0  0.64380  0.34730  0.34630  1.0000 0.1378402368
H   H154      1.0  0.54750  0.39380  0.79650  1.0000 0.1378402368
H   H155      1.0  0.59730  0.75100  0.20350  1.0000 0.1378402368
H   H156      1.0  0.00100  0.29750  0.65370  1.0000 0.1378402368
H   H157      1.0  0.60620  0.40270  0.15370  1.0000 0.1378402368
H   H158      1.0  0.70250  0.35620  0.70350  1.0000 0.1378402368
H   H159      1.0  0.65270  0.99900  0.29650  1.0000 0.1378402368
H   H160      1.0  0.24900  0.45250  0.84630  1.0000 0.1378402368
H   H161      1.0  0.61450  0.28770  0.37600  1.0000 0.1306681918
H   H162      1.0  0.48850  0.36450  0.82680  1.0000 0.1306681918
H   H163      1.0  0.53770  0.66170  0.17320  1.0000 0.1306681918
H   H164      1.0  0.91170  0.23850  0.62400  1.0000 0.1306681918
H   H165      1.0  0.63550  0.46230  0.12400  1.0000 0.1306681918
H   H166      1.0  0.76150  0.38550  0.67320  1.0000 0.1306681918
H   H167      1.0  0.71230  0.08830  0.32680  1.0000 0.1306681918
H   H168      1.0  0.33830  0.51150  0.87600  1.0000 0.1306681918
H   H169      1.0  0.74300  0.37760  0.33100  1.0000 0.1195994112
H   H170      1.0  0.66200  0.49300  0.86540  1.0000 0.1195994112
H   H171      1.0  0.62760  0.79660  0.13460  1.0000 0.1195994112
H   H172      1.0  0.04660  0.41200  0.66900  1.0000 0.1195994112
H   H173      1.0  0.50700  0.37240  0.16900  1.0000 0.1195994112
H   H174      1.0  0.58800  0.25700  0.63460  1.0000 0.1195994112
H   H175      1.0  0.62240  0.95340  0.36540  1.0000 0.1195994112
H   H176      1.0  0.20340  0.33800  0.83100  1.0000 0.1195994112
H   H177      1.0  0.75890  0.40230  0.38620  1.0000 0.1306681918
H   H178      1.0  0.62270  0.50890  0.85660  1.0000 0.1195994112
H   H179      1.0  0.65230  0.76610  0.14340  1.0000 0.1306681918
H   H180      1.0  0.01610  0.37270  0.61380  1.0000 0.1195994112
H   H181      1.0  0.49110  0.34770  0.11380  1.0000 0.1306681918
H   H182      1.0  0.62730  0.24110  0.64340  1.0000 0.1195994112
H   H183      1.0  0.59770  0.98390  0.35660  1.0000 0.1306681918
H   H184      1.0  0.23390  0.37730  0.88620  1.0000 0.1195994112
H   H185      1.0  0.71400  0.31860  0.36140  1.0000 0.1195994112
H   H186      1.0  0.60260  0.46400  0.89540  1.0000 0.1195994112
H   H187      1.0  0.56860  0.70720  0.10460  1.0000 0.1195994112
H   H188      1.0  0.95720  0.35260  0.63860  1.0000 0.1195994112
H   H189      1.0  0.53600  0.43140  0.13860  1.0000 0.1195994112
H   H190      1.0  0.64740  0.28600  0.60460  1.0000 0.1195994112
H   H191      1.0  0.68140  0.04280  0.39540  1.0000 0.1195994112
H   H192      1.0  0.29280  0.39740  0.86140  1.0000 0.1195994112
H   H193      1.0  0.82840  0.65970  0.05750  1.0000 0.1306681918
H   H194      1.0  0.02090  0.57840  0.66870  1.0000 0.1306681918
H   H195      1.0  0.90970  0.35220  0.33130  1.0000 0.1306681918
H   H196      1.0  0.60220  0.77090  0.94250  1.0000 0.1306681918
H   H197      1.0  0.42160  0.09030  0.44250  1.0000 0.1306681918
H   H198      1.0  0.22910  0.17160  0.83130  1.0000 0.1306681918
H   H199      1.0  0.34030  0.39780  0.16870  1.0000 0.1306681918
H   H200      1.0  0.64780  0.97910  0.55750  1.0000 0.1306681918
H   H201      1.0  0.75590  0.59150  0.97860  1.0000 0.1125153628
H   H202      1.0  0.02730  0.50590  0.66440  1.0000 0.1125153628
H   H203      1.0  0.84150  0.36290  0.33560  1.0000 0.1125153628
H   H204      1.0  0.61290  0.77730  0.02140  1.0000 0.1125153628
H   H205      1.0  0.49410  0.15850  0.52140  1.0000 0.1125153628
H   H206      1.0  0.22270  0.24410  0.83560  1.0000 0.1125153628
H   H207      1.0  0.40850  0.38710  0.16440  1.0000 0.1125153628
H   H208      1.0  0.63710  0.97270  0.47860  1.0000 0.1125153628
H   H209      1.0  0.67080  0.45900  0.94800  1.0000 0.1306681918
H   H210      1.0  0.97280  0.42080  0.71180  1.0000 0.1306681918
H   H211      1.0  0.70900  0.26100  0.28820  1.0000 0.1306681918
H   H212      1.0  0.51100  0.72280  0.05200  1.0000 0.1306681918
H   H213      1.0  0.57920  0.29100  0.55200  1.0000 0.1306681918
H   H214      1.0  0.27720  0.32920  0.78820  1.0000 0.1306681918
H   H215      1.0  0.54100  0.48900  0.21180  1.0000 0.1306681918
H   H216      1.0  0.73900  0.02720  0.44800  1.0000 0.1306681918
H   H217      1.0  0.64660  0.38830  0.99730  1.0000 0.1195994112
H   H218      1.0  0.89930  0.39660  0.75830  1.0000 0.1195994112
H   H219      1.0  0.63830  0.14100  0.24170  1.0000 0.1195994112
H   H220      1.0  0.39100  0.64930  0.00270  1.0000 0.1195994112
H   H221      1.0  0.60340  0.36170  0.50270  1.0000 0.1195994112
H   H222      1.0  0.35070  0.35340  0.74170  1.0000 0.1195994112
H   H223      1.0  0.61170  0.60900  0.25830  1.0000 0.1195994112
H   H224      1.0  0.85900  0.10070  0.49730  1.0000 0.1195994112
H   H225      1.0  0.74550  0.40490  0.25080  1.0000 0.1378402368
H   H226      1.0  0.74470  0.49550  0.84060  1.0000 0.1306681918
H   H227      1.0  0.65490  0.90410  0.15940  1.0000 0.1378402368
H   H228      1.0  0.15410  0.49470  0.74920  1.0000 0.1378402368
H   H229      1.0  0.50450  0.34510  0.24920  1.0000 0.1378402368
H   H230      1.0  0.50530  0.25450  0.65940  1.0000 0.1378402368
H   H231      1.0  0.59510  0.84590  0.34060  1.0000 0.1306681918
H   H232      1.0  0.09590  0.25530  0.75080  1.0000 0.1378402368
H   H233      1.0  0.74140  0.36520  0.20760  1.0000 0.1306681918
H   H234      1.0  0.78380  0.49140  0.87620  1.0000 0.1306681918
H   H235      1.0  0.61520  0.90760  0.12380  1.0000 0.1306681918
H   H236      1.0  0.15760  0.53380  0.79240  1.0000 0.1306681918
H   H237      1.0  0.50860  0.38480  0.29240  1.0000 0.1306681918
H   H238      1.0  0.46620  0.25860  0.62380  1.0000 0.1306681918
H   H239      1.0  0.63480  0.84240  0.37620  1.0000 0.1306681918
H   H240      1.0  0.09240  0.21620  0.70760  1.0000 0.1306681918
H   H241      1.0  0.88630  0.48340  0.22850  1.0000 0.1195994112
H   H242      1.0  0.90780  0.63630  0.90290  1.0000 0.1195994112
H   H243      1.0  0.73340  0.00490  0.09710  1.0000 0.1195994112
H   H244      1.0  0.25490  0.65780  0.77150  1.0000 0.1195994112
H   H245      1.0  0.36370  0.26660  0.27150  1.0000 0.1195994112
H   H246      1.0  0.34220  0.11370  0.59710  1.0000 0.1195994112
H   H247      1.0  0.51660  0.74510  0.40290  1.0000 0.1195994112
H   H248      1.0  0.99510  0.09220  0.72850  1.0000 0.1195994112
H   H249      1.0  0.85420  0.44560  0.27200  1.0000 0.1195994112
H   H250      1.0  0.83220  0.60420  0.90860  1.0000 0.1195994112
H   H251      1.0  0.69560  0.92360  0.09140  1.0000 0.1195994112
H   H252      1.0  0.17360  0.58220  0.72800  1.0000 0.1195994112
H   H253      1.0  0.39580  0.30440  0.22800  1.0000 0.1195994112
H   H254      1.0  0.41780  0.14580  0.59140  1.0000 0.1195994112
H   H255      1.0  0.55440  0.82640  0.40860  1.0000 0.1195994112
H   H256      1.0  0.07640  0.16780  0.77200  1.0000 0.1195994112
H   H257      1.0  0.89190  0.52580  0.27090  1.0000 0.1195994112
H   H258      1.0  0.87100  0.64190  0.86610  1.0000 0.1195994112
H   H259      1.0  0.77580  0.00490  0.13390  1.0000 0.1195994112
H   H260      1.0  0.25490  0.62100  0.72910  1.0000 0.1195994112
H   H261      1.0  0.35810  0.22420  0.22910  1.0000 0.1306681918
H   H262      1.0  0.37900  0.10810  0.63390  1.0000 0.1195994112
H   H263      1.0  0.47420  0.74510  0.36610  1.0000 0.1195994112
H   H264      1.0  0.99510  0.12900  0.77090  1.0000 0.1195994112
H   H265      1.0  0.01780  0.75060  0.81640  1.0000 0.1195994112
H   H266      1.0  0.45140  0.76780  0.76720  1.0000 0.1195994112
H   H267      1.0  0.00060  0.68420  0.23280  1.0000 0.1195994112
H   H268      1.0  0.93420  0.20140  0.18360  1.0000 0.1195994112
H   H269      1.0  0.23220  0.99940  0.68360  1.0000 0.1195994112
H   H270      1.0  0.79860  0.98220  0.73280  1.0000 0.1195994112
H   H271      1.0  0.24940  0.06580  0.26720  1.0000 0.1195994112
H   H272      1.0  0.31580  0.54860  0.31640  1.0000 0.1195994112
H   H273      1.0  0.11900  0.84650  0.89090  1.0000 0.1306681918
H   H274      1.0  0.47810  0.86900  0.77250  1.0000 0.1306681918
H   H275      1.0  0.09650  0.70560  0.22750  1.0000 0.1306681918
H   H276      1.0  0.95560  0.22810  0.10910  1.0000 0.1306681918
H   H277      1.0  0.13100  0.90350  0.60910  1.0000 0.1306681918
H   H278      1.0  0.77190  0.88100  0.72750  1.0000 0.1306681918
H   H279      1.0  0.15350  0.04440  0.27250  1.0000 0.1306681918
H   H280      1.0  0.29440  0.52190  0.39090  1.0000 0.1306681918
H   H281      1.0  0.17230  0.76230  0.88160  1.0000 0.1378402368
H   H282      1.0  0.54070  0.92230  0.91000  1.0000 0.1378402368
H   H283      1.0  0.01230  0.63070  0.09000  1.0000 0.1378402368
H   H284      1.0  0.88070  0.29070  0.11840  1.0000 0.1378402368
H   H285      1.0  0.07770  0.98770  0.61840  1.0000 0.1378402368
H   H286      1.0  0.70930  0.82770  0.59000  1.0000 0.1378402368
H   H287      1.0  0.23770  0.11930  0.41000  1.0000 0.1378402368
H   H288      1.0  0.36930  0.45930  0.38160  1.0000 0.1378402368
H   H289      1.0  0.04930  0.65310  0.82720  1.0000 0.1195994112
H   H290      1.0  0.47210  0.79930  0.89620  1.0000 0.1195994112
H   H291      1.0  0.90310  0.57590  0.10380  1.0000 0.1195994112
H   H292      1.0  0.82590  0.22210  0.17280  1.0000 0.1195994112
H   H293      1.0  0.20070  0.09690  0.67280  1.0000 0.1195994112
H   H294      1.0  0.77790  0.95070  0.60380  1.0000 0.1195994112
H   H295      1.0  0.34690  0.17410  0.39620  1.0000 0.1195994112
H   H296      1.0  0.42410  0.52790  0.32720  1.0000 0.1195994112
H   H297      1.0  0.24400  0.88210  0.95290  1.0000 0.1195994112
H   H298      1.0  0.54110  0.99400  0.86190  1.0000 0.1195994112
H   H299      1.0  0.13210  0.67920  0.13810  1.0000 0.1195994112
H   H300      1.0  0.92920  0.29110  0.04710  1.0000 0.1195994112
H   H301      1.0  0.00600  0.86790  0.54710  1.0000 0.1195994112
H   H302      1.0  0.70890  0.75600  0.63810  1.0000 0.1195994112
H   H303      1.0  0.11790  0.07080  0.36190  1.0000 0.1195994112
H   H304      1.0  0.32080  0.45890  0.45290  1.0000 0.1195994112
H   H305      1.0  0.29710  0.91850  0.91620  1.0000 0.1195994112
H   H306      1.0  0.63090  0.04710  0.87860  1.0000 0.1195994112
H   H307      1.0  0.16850  0.75230  0.12140  1.0000 0.1195994112
H   H308      1.0  0.00230  0.38090  0.08380  1.0000 0.1195994112
H   H309      1.0  0.95290  0.83150  0.58380  1.0000 0.1195994112
H   H310      1.0  0.61910  0.70290  0.62140  1.0000 0.1195994112
H   H311      1.0  0.08150  0.99770  0.37860  1.0000 0.1195994112
H   H312      1.0  0.24770  0.36910  0.41620  1.0000 0.1195994112
C   C1        1.0  0.67550  0.24024  0.09654  1.0000 0.2978357671
C   C2        1.0  0.82896  0.42550  0.93526  1.0000 0.2978357671
C   C3        1.0  0.49024  0.89370  0.06474  1.0000 0.2978357671
C   C4        1.0  0.14370  0.57896  0.90346  1.0000 0.2978357671
C   C5        1.0  0.57450  0.50976  0.40346  1.0000 0.2978357671
C   C6        1.0  0.42104  0.32450  0.56474  1.0000 0.2978357671
C   C7        1.0  0.75976  0.85630  0.43526  1.0000 0.2978357671
C   C8        1.0  0.10630  0.17104  0.59654  1.0000 0.2978357671
C   C9        1.0  0.71364  0.24053  0.07217  1.0000 -0.2108186675
C   C10       1.0  0.89147  0.46364  0.97311  1.0000 -0.2108186675
C   C11       1.0  0.49053  0.91836  0.02689  1.0000 -0.2108186675
C   C12       1.0  0.16836  0.64147  0.92783  1.0000 -0.2108186675
C   C13       1.0  0.53636  0.50947  0.42783  1.0000 -0.2108186675
C   C14       1.0  0.35853  0.28636  0.52689  1.0000 -0.2108186675
C   C15       1.0  0.75947  0.83164  0.47311  1.0000 -0.2108186675
C   C16       1.0  0.08164  0.10853  0.57217  1.0000 -0.2108186675
C   C17       1.0  0.71318  0.19538  0.07916  1.0000 -0.0802770448
C   C18       1.0  0.88402  0.46318  0.01780  1.0000 -0.0802770448
C   C19       1.0  0.44538  0.86622  0.98220  1.0000 -0.0802770448
C   C20       1.0  0.11622  0.63402  0.92084  1.0000 -0.0802770448
C   C21       1.0  0.53682  0.55462  0.42084  1.0000 -0.0802770448
C   C22       1.0  0.36598  0.28682  0.48220  1.0000 -0.0802770448
C   C23       1.0  0.80462  0.88378  0.51780  1.0000 -0.0802770448
C   C24       1.0  0.13378  0.11598  0.57916  1.0000 -0.0802770448
C   C25       1.0  0.67394  0.14722  0.10976  1.0000 -0.134044774
C   C26       1.0  0.81418  0.42394  0.02672  1.0000 -0.134044774
C   C27       1.0  0.39722  0.78746  0.97328  1.0000 -0.134044774
C   C28       1.0  0.03746  0.56418  0.89024  1.0000 -0.134044774
C   C29       1.0  0.57606  0.60278  0.39024  1.0000 -0.134044774
C   C30       1.0  0.43582  0.32606  0.47328  1.0000 -0.134044774
C   C31       1.0  0.85278  0.96254  0.52672  1.0000 -0.134044774
C   C32       1.0  0.21254  0.18582  0.60976  1.0000 -0.134044774
C   C33       1.0  0.63857  0.14809  0.13486  1.0000 -0.0802770448
C   C34       1.0  0.75371  0.38857  0.99048  1.0000 -0.0802770448
C   C35       1.0  0.39809  0.76323  0.00952  1.0000 -0.0802770448
C   C36       1.0  0.01323  0.50371  0.86514  1.0000 -0.0802770448
C   C37       1.0  0.61143  0.60191  0.36514  1.0000 -0.0802770448
C   C38       1.0  0.49629  0.36143  0.50952  1.0000 -0.0802770448
C   C39       1.0  0.85191  0.98677  0.49048  1.0000 -0.0802770448
C   C40       1.0  0.23677  0.24629  0.63486  1.0000 -0.0802770448
C   C41       1.0  0.63681  0.19283  0.12904  1.0000 -0.1496385161
C   C42       1.0  0.75777  0.38681  0.94398  1.0000 -0.1496385161
C   C43       1.0  0.44283  0.81379  0.05602  1.0000 -0.1496385161
C   C44       1.0  0.06379  0.50777  0.87096  1.0000 -0.1496385161
C   C45       1.0  0.61319  0.55717  0.37096  1.0000 -0.1496385161
C   C46       1.0  0.49223  0.36319  0.55602  1.0000 -0.1496385161
C   C47       1.0  0.80717  0.93621  0.44398  1.0000 -0.1496385161
C   C48       1.0  0.18621  0.24223  0.62904  1.0000 -0.1496385161
C   C49       1.0  0.59550  0.18827  0.15677  1.0000 0.4378793611
C   C50       1.0  0.68873  0.34550  0.90723  1.0000 0.4378793611
C   C51       1.0  0.43827  0.78150  0.09277  1.0000 0.4378793611
C   C52       1.0  0.03150  0.43873  0.84323  1.0000 0.4378793611
C   C53       1.0  0.65450  0.56173  0.34323  1.0000 0.4378793611
C   C54       1.0  0.56127  0.40450  0.59277  1.0000 0.4378793611
C   C55       1.0  0.81173  0.96850  0.40723  1.0000 0.4378793611
C   C56       1.0  0.21850  0.31127  0.65677  1.0000 0.4378793611
C   C57       1.0  0.53338  0.24501  0.16439  1.0000 0.4587411823
C   C58       1.0  0.61899  0.28338  0.78837  1.0000 0.4587411823
C   C59       1.0  0.49501  0.83062  0.21163  1.0000 0.4587411823
C   C60       1.0  0.08062  0.36899  0.83561  1.0000 0.4587411823
C   C61       1.0  0.71662  0.50499  0.33561  1.0000 0.4587411823
C   C62       1.0  0.63101  0.46662  0.71163  1.0000 0.4587411823
C   C63       1.0  0.75499  0.91938  0.28837  1.0000 0.4587411823
C   C64       1.0  0.16938  0.38101  0.66439  1.0000 0.4587411823
C   C65       1.0  0.48562  0.23871  0.18733  1.0000 -0.2884747723
C   C66       1.0  0.54829  0.23562  0.74691  1.0000 -0.2884747723
C   C67       1.0  0.48871  0.80138  0.25309  1.0000 -0.2884747723
C   C68       1.0  0.05138  0.29829  0.81267  1.0000 -0.2884747723
C   C69       1.0  0.76438  0.51129  0.31267  1.0000 -0.2884747723
C   C70       1.0  0.70171  0.51438  0.75309  1.0000 -0.2884747723
C   C71       1.0  0.76129  0.94862  0.24691  1.0000 -0.2884747723
C   C72       1.0  0.19862  0.45171  0.68733  1.0000 -0.2884747723
C   C73       1.0  0.39130  0.16630  0.14960  1.0000 -0.3564384879
C   C74       1.0  0.49170  0.14130  0.72500  1.0000 -0.3564384879
C   C75       1.0  0.41630  0.76670  0.27500  1.0000 -0.3564384879
C   C76       1.0  0.01670  0.24170  0.85040  1.0000 -0.3564384879
C   C77       1.0  0.85870  0.58370  0.35040  1.0000 -0.3564384879
C   C78       1.0  0.75830  0.60870  0.77500  1.0000 -0.3564384879
C   C79       1.0  0.83370  0.98330  0.22500  1.0000 -0.3564384879
C   C80       1.0  0.23330  0.50830  0.64960  1.0000 -0.3564384879
C   C81       1.0  0.50607  0.17234  0.00281  1.0000 0.1027537098
C   C82       1.0  0.75326  0.25607  0.83373  1.0000 0.1027537098
C   C83       1.0  0.42234  0.91953  0.16627  1.0000 0.1027537098
C   C84       1.0  0.16953  0.50326  0.99719  1.0000 0.1027537098
C   C85       1.0  0.74393  0.57766  0.49719  1.0000 0.1027537098
C   C86       1.0  0.49674  0.49393  0.66627  1.0000 0.1027537098
C   C87       1.0  0.82766  0.83047  0.33373  1.0000 0.1027537098
C   C88       1.0  0.08047  0.24674  0.50281  1.0000 0.1027537098
C   C89       1.0  0.43703  0.10729  0.96532  1.0000 -0.2011852694
C   C90       1.0  0.72171  0.18703  0.82974  1.0000 -0.2011852694
C   C91       1.0  0.35729  0.89197  0.17026  1.0000 -0.2011852694
C   C92       1.0  0.14197  0.47171  0.03468  1.0000 -0.2011852694
C   C93       1.0  0.81297  0.64271  0.53468  1.0000 -0.2011852694
C   C94       1.0  0.52829  0.56297  0.67026  1.0000 -0.2011852694
C   C95       1.0  0.89271  0.85803  0.32974  1.0000 -0.2011852694
C   C96       1.0  0.10803  0.27829  0.46532  1.0000 -0.2011852694
C   C97       1.0  0.36064  0.04239  0.97423  1.0000 0.1642499881
C   C98       1.0  0.63641  0.11064  0.81825  1.0000 0.1642499881
C   C99       1.0  0.29239  0.81816  0.18175  1.0000 0.1642499881
C   C100      1.0  0.06816  0.38641  0.02577  1.0000 0.1642499881
C   C101      1.0  0.88936  0.70761  0.52577  1.0000 0.1642499881
C   C102      1.0  0.61359  0.63936  0.68175  1.0000 0.1642499881
C   C103      1.0  0.95761  0.93184  0.31825  1.0000 0.1642499881
C   C104      1.0  0.18184  0.36359  0.47423  1.0000 0.1642499881
C   C105      1.0  0.36159  0.04633  0.02032  1.0000 -0.2011852694
C   C106      1.0  0.59127  0.11159  0.81526  1.0000 -0.2011852694
C   C107      1.0  0.29633  0.77601  0.18474  1.0000 -0.2011852694
C   C108      1.0  0.02601  0.34127  0.97968  1.0000 -0.2011852694
C   C109      1.0  0.88841  0.70367  0.47968  1.0000 -0.2011852694
C   C110      1.0  0.65873  0.63841  0.68474  1.0000 -0.2011852694
C   C111      1.0  0.95367  0.97399  0.31526  1.0000 -0.2011852694
C   C112      1.0  0.22399  0.40873  0.52032  1.0000 -0.2011852694
C   C113      1.0  0.43171  0.10951  0.05442  1.0000 0.0626366956
C   C114      1.0  0.62729  0.18171  0.82220  1.0000 0.0626366956
C   C115      1.0  0.35951  0.80509  0.17780  1.0000 0.0626366956
C   C116      1.0  0.05509  0.37729  0.94558  1.0000 0.0626366956
C   C117      1.0  0.81829  0.64049  0.44558  1.0000 0.0626366956
C   C118      1.0  0.62271  0.56829  0.67780  1.0000 0.0626366956
C   C119      1.0  0.89049  0.94491  0.32220  1.0000 0.0626366956
C   C120      1.0  0.19491  0.37271  0.55442  1.0000 0.0626366956
C   C121      1.0  0.28211  0.97100  0.93451  1.0000 -0.2338677535
C   C122      1.0  0.59760  0.03211  0.81111  1.0000 -0.2338677535
C   C123      1.0  0.22100  0.78649  0.18889  1.0000 -0.2338677535
C   C124      1.0  0.03649  0.34760  0.06549  1.0000 -0.2338677535
C   C125      1.0  0.96789  0.77900  0.56549  1.0000 -0.2338677535
C   C126      1.0  0.65240  0.71789  0.68889  1.0000 -0.2338677535
C   C127      1.0  0.02900  0.96351  0.31111  1.0000 -0.2338677535
C   C128      1.0  0.21351  0.40240  0.43451  1.0000 -0.2338677535
C   C129      1.0  0.32927  0.99194  0.16981  1.0000 0.2792630343
C   C130      1.0  0.40946  0.07927  0.83733  1.0000 0.2792630343
C   C131      1.0  0.24194  0.57213  0.16267  1.0000 0.2792630343
C   C132      1.0  0.82213  0.15946  0.83019  1.0000 0.2792630343
C   C133      1.0  0.92073  0.75806  0.33019  1.0000 0.2792630343
C   C134      1.0  0.84054  0.67073  0.66267  1.0000 0.2792630343
C   C135      1.0  0.00806  0.17787  0.33733  1.0000 0.2792630343
C   C136      1.0  0.42787  0.59054  0.66981  1.0000 0.2792630343
C   C137      1.0  0.26850  0.92900  0.12690  1.0000 -0.2108186675
C   C138      1.0  0.39160  0.01850  0.83950  1.0000 -0.2108186675
C   C139      1.0  0.17900  0.55210  0.16050  1.0000 -0.2108186675
C   C140      1.0  0.80210  0.14160  0.87310  1.0000 -0.2108186675
C   C141      1.0  0.98150  0.82100  0.37310  1.0000 -0.2108186675
C   C142      1.0  0.85840  0.73150  0.66050  1.0000 -0.2108186675
C   C143      1.0  0.07100  0.19790  0.33950  1.0000 -0.2108186675
C   C144      1.0  0.44790  0.60840  0.62690  1.0000 -0.2108186675
C   C145      1.0  0.19240  0.88010  0.11910  1.0000 -0.0614059905
C   C146      1.0  0.32330  0.94240  0.81230  1.0000 -0.0614059905
C   C147      1.0  0.13010  0.51100  0.18770  1.0000 -0.0614059905
C   C148      1.0  0.76100  0.07330  0.88090  1.0000 -0.0614059905
C   C149      1.0  0.05760  0.86990  0.38090  1.0000 -0.0614059905
C   C150      1.0  0.92670  0.80760  0.68770  1.0000 -0.0614059905
C   C151      1.0  0.11990  0.23900  0.31230  1.0000 -0.0614059905
C   C152      1.0  0.48900  0.67670  0.61910  1.0000 -0.0614059905
C   C153      1.0  0.16360  0.87110  0.15710  1.0000 -0.1496385161
C   C154      1.0  0.25650  0.91360  0.79250  1.0000 -0.1496385161
C   C155      1.0  0.12110  0.46400  0.20750  1.0000 -0.1496385161
C   C156      1.0  0.71400  0.00650  0.84290  1.0000 -0.1496385161
C   C157      1.0  0.08640  0.87890  0.34290  1.0000 -0.1496385161
C   C158      1.0  0.99350  0.83640  0.70750  1.0000 -0.1496385161
C   C159      1.0  0.12890  0.28600  0.29250  1.0000 -0.1496385161
C   C160      1.0  0.53600  0.74350  0.65710  1.0000 -0.1496385161
C   C161      1.0  0.22520  0.94550  0.19590  1.0000 -0.0884261878
C   C162      1.0  0.27930  0.97520  0.77970  1.0000 -0.0884261878
C   C163      1.0  0.19550  0.49960  0.22030  1.0000 -0.0884261878
C   C164      1.0  0.74960  0.02930  0.80410  1.0000 -0.0884261878
C   C165      1.0  0.02480  0.80450  0.30410  1.0000 -0.0884261878
C   C166      1.0  0.97070  0.77480  0.72030  1.0000 -0.0884261878
C   C167      1.0  0.05450  0.25040  0.27970  1.0000 -0.0884261878
C   C168      1.0  0.50040  0.72070  0.69590  1.0000 -0.0884261878
C   C169      1.0  0.30649  0.99947  0.20356  1.0000 -0.1417238919
C   C170      1.0  0.35293  0.05649  0.80702  1.0000 -0.1417238919
C   C171      1.0  0.24947  0.54591  0.19298  1.0000 -0.1417238919
C   C172      1.0  0.79591  0.10293  0.79644  1.0000 -0.1417238919
C   C173      1.0  0.94351  0.75053  0.29644  1.0000 -0.1417238919
C   C174      1.0  0.89707  0.69351  0.69298  1.0000 -0.1417238919
C   C175      1.0  0.00053  0.20409  0.30702  1.0000 -0.1417238919
C   C176      1.0  0.45409  0.64707  0.70356  1.0000 -0.1417238919
C   C177      1.0  0.36608  0.06577  0.24905  1.0000 0.4378793611
C   C178      1.0  0.36703  0.11608  0.80031  1.0000 0.4378793611
C   C179      1.0  0.31577  0.56672  0.19969  1.0000 0.4378793611
C   C180      1.0  0.81672  0.11703  0.75095  1.0000 0.4378793611
C   C181      1.0  0.88392  0.68423  0.25095  1.0000 0.4378793611
C   C182      1.0  0.88297  0.63392  0.69969  1.0000 0.4378793611
C   C183      1.0  0.93423  0.18328  0.30031  1.0000 0.4378793611
C   C184      1.0  0.43328  0.63297  0.74905  1.0000 0.4378793611
C   C185      1.0  0.57173  0.23588  0.30501  1.0000 0.4587411823
C   C186      1.0  0.51672  0.32173  0.83585  1.0000 0.4587411823
C   C187      1.0  0.48588  0.68087  0.16415  1.0000 0.4587411823
C   C188      1.0  0.93087  0.26672  0.69499  1.0000 0.4587411823
C   C189      1.0  0.67827  0.51412  0.19499  1.0000 0.4587411823
C   C190      1.0  0.73328  0.42827  0.66415  1.0000 0.4587411823
C   C191      1.0  0.76412  0.06913  0.33585  1.0000 0.4587411823
C   C192      1.0  0.31913  0.48328  0.80501  1.0000 0.4587411823
C   C193      1.0  0.63595  0.30836  0.34871  1.0000 -0.2453917192
C   C194      1.0  0.53724  0.38595  0.82759  1.0000 -0.2453917192
C   C195      1.0  0.55836  0.70965  0.17241  1.0000 -0.2453917192
C   C196      1.0  0.95965  0.28724  0.65129  1.0000 -0.2453917192
C   C197      1.0  0.61405  0.44164  0.15129  1.0000 -0.2453917192
C   C198      1.0  0.71276  0.36405  0.67241  1.0000 -0.2453917192
C   C199      1.0  0.69164  0.04035  0.32759  1.0000 -0.2453917192
C   C200      1.0  0.29035  0.46276  0.84871  1.0000 -0.2453917192
C   C201      1.0  0.72060  0.35600  0.35760  1.0000 -0.33068007
C   C202      1.0  0.61300  0.47060  0.86460  1.0000 -0.33068007
C   C203      1.0  0.60600  0.74840  0.13540  1.0000 -0.33068007
C   C204      1.0  0.99840  0.36300  0.64240  1.0000 -0.33068007
C   C205      1.0  0.52940  0.39400  0.14240  1.0000 -0.33068007
C   C206      1.0  0.63700  0.27940  0.63540  1.0000 -0.33068007
C   C207      1.0  0.64400  0.00160  0.36460  1.0000 -0.33068007
C   C208      1.0  0.25160  0.38700  0.85760  1.0000 -0.33068007
C   C209      1.0  0.78323  0.56556  0.07619  1.0000 0.3055938257
C   C210      1.0  0.95704  0.53323  0.71767  1.0000 0.3055938257
C   C211      1.0  0.81556  0.23937  0.28233  1.0000 0.3055938257
C   C212      1.0  0.48937  0.70704  0.92381  1.0000 0.3055938257
C   C213      1.0  0.46677  0.18444  0.42381  1.0000 0.3055938257
C   C214      1.0  0.29296  0.21677  0.78233  1.0000 0.3055938257
C   C215      1.0  0.43444  0.51063  0.21767  1.0000 0.3055938257
C   C216      1.0  0.76063  0.04296  0.57619  1.0000 0.3055938257
C   C217      1.0  0.79208  0.60429  0.04557  1.0000 -0.2108186675
C   C218      1.0  0.99651  0.54208  0.68779  1.0000 -0.2108186675
C   C219      1.0  0.85429  0.30872  0.31221  1.0000 -0.2108186675
C   C220      1.0  0.55872  0.74651  0.95443  1.0000 -0.2108186675
C   C221      1.0  0.45792  0.14571  0.45443  1.0000 -0.2108186675
C   C222      1.0  0.25349  0.20792  0.81221  1.0000 -0.2108186675
C   C223      1.0  0.39571  0.44128  0.18779  1.0000 -0.2108186675
C   C224      1.0  0.69128  0.00349  0.54557  1.0000 -0.2108186675
C   C225      1.0  0.74920  0.56390  0.99850  1.0000 -0.0614059905
C   C226      1.0  0.00070  0.49920  0.68530  1.0000 -0.0651295559
C   C227      1.0  0.81390  0.31540  0.31470  1.0000 -0.0614059905
C   C228      1.0  0.56540  0.75070  0.00150  1.0000 -0.0651295559
C   C229      1.0  0.50080  0.18610  0.50150  1.0000 -0.0651295559
C   C230      1.0  0.24930  0.25080  0.81470  1.0000 -0.0651295559
C   C231      1.0  0.43610  0.43460  0.18530  1.0000 -0.0651295559
C   C232      1.0  0.68460  0.99930  0.49850  1.0000 -0.0651295559
C   C233      1.0  0.69791  0.48552  0.98063  1.0000 -0.1417238919
C   C234      1.0  0.96728  0.44791  0.71239  1.0000 -0.1417238919
C   C235      1.0  0.73552  0.25489  0.28761  1.0000 -0.1417238919
C   C236      1.0  0.50489  0.71728  0.01937  1.0000 -0.1417238919
C   C237      1.0  0.55209  0.26448  0.51937  1.0000 -0.1417238919
C   C238      1.0  0.28272  0.30209  0.78761  1.0000 -0.1417238919
C   C239      1.0  0.51448  0.49511  0.21239  1.0000 -0.1417238919
C   C240      1.0  0.74511  0.03272  0.48063  1.0000 -0.1417238919
C   C241      1.0  0.68514  0.44444  0.00998  1.0000 -0.0802770448
C   C242      1.0  0.92516  0.43514  0.74070  1.0000 -0.0802770448
C   C243      1.0  0.69444  0.18446  0.25930  1.0000 -0.0802770448
C   C244      1.0  0.43446  0.67516  0.99002  1.0000 -0.0802770448
C   C245      1.0  0.56486  0.30556  0.49002  1.0000 -0.0802770448
C   C246      1.0  0.32484  0.31486  0.75930  1.0000 -0.0802770448
C   C247      1.0  0.55556  0.56554  0.24070  1.0000 -0.0802770448
C   C248      1.0  0.81554  0.07484  0.50998  1.0000 -0.0802770448
C   C249      1.0  0.72714  0.48265  0.05779  1.0000 -0.1680645944
C   C250      1.0  0.91935  0.47714  0.74449  1.0000 -0.1680645944
C   C251      1.0  0.73265  0.17486  0.25551  1.0000 -0.1680645944
C   C252      1.0  0.42486  0.66935  0.94221  1.0000 -0.1680645944
C   C253      1.0  0.52286  0.26735  0.44221  1.0000 -0.1680645944
C   C254      1.0  0.33065  0.27286  0.75551  1.0000 -0.1680645944
C   C255      1.0  0.51735  0.57514  0.24449  1.0000 -0.1680645944
C   C256      1.0  0.82514  0.08065  0.55779  1.0000 -0.1680645944
C   C257      1.0  0.71014  0.43391  0.08545  1.0000 0.4341213851
C   C258      1.0  0.87469  0.46014  0.77623  1.0000 0.4341213851
C   C259      1.0  0.68391  0.09846  0.22377  1.0000 0.4341213851
C   C260      1.0  0.34846  0.62469  0.91455  1.0000 0.4341213851
C   C261      1.0  0.53986  0.31609  0.41455  1.0000 0.4341213851
C   C262      1.0  0.37531  0.28986  0.72377  1.0000 0.4341213851
C   C263      1.0  0.56609  0.65154  0.27623  1.0000 0.4341213851
C   C264      1.0  0.90154  0.12531  0.58545  1.0000 0.4341213851
C   C265      1.0  0.77681  0.45744  0.19685  1.0000 0.4488621055
C   C266      1.0  0.82996  0.52681  0.81937  1.0000 0.4488621055
C   C267      1.0  0.70744  0.01059  0.18063  1.0000 0.4488621055
C   C268      1.0  0.26059  0.57996  0.80315  1.0000 0.4488621055
C   C269      1.0  0.47319  0.29256  0.30315  1.0000 0.4488621055
C   C270      1.0  0.42004  0.22319  0.68063  1.0000 0.4488621055
C   C271      1.0  0.54256  0.73941  0.31937  1.0000 0.4488621055
C   C272      1.0  0.98941  0.17004  0.69685  1.0000 0.4488621055
C   C273      1.0  0.77405  0.41798  0.22723  1.0000 -0.2415646838
C   C274      1.0  0.79682  0.52405  0.85607  1.0000 -0.2415646838
C   C275      1.0  0.66798  0.94075  0.14393  1.0000 -0.2415646838
C   C276      1.0  0.19075  0.54682  0.77277  1.0000 -0.2415646838
C   C277      1.0  0.47595  0.33202  0.27277  1.0000 -0.2415646838
C   C278      1.0  0.45318  0.22595  0.64393  1.0000 -0.2415646838
C   C279      1.0  0.58202  0.80925  0.35607  1.0000 -0.2415646838
C   C280      1.0  0.05925  0.20318  0.72723  1.0000 -0.2415646838
C   C281      1.0  0.85898  0.47300  0.25178  1.0000 -0.33068007
C   C282      1.0  0.85720  0.60898  0.88598  1.0000 -0.33068007
C   C283      1.0  0.72300  0.97122  0.11402  1.0000 -0.33068007
C   C284      1.0  0.22122  0.60720  0.74822  1.0000 -0.33068007
C   C285      1.0  0.39102  0.27700  0.24822  1.0000 -0.33068007
C   C286      1.0  0.39280  0.14102  0.61402  1.0000 -0.33068007
C   C287      1.0  0.52700  0.77878  0.38598  1.0000 -0.33068007
C   C288      1.0  0.02878  0.14280  0.75178  1.0000 -0.33068007
C   C289      1.0  0.04902  0.75229  0.83071  1.0000 0.0227585552
C   C290      1.0  0.46831  0.79902  0.79673  1.0000 0.0227585552
C   C291      1.0  0.00229  0.67158  0.20327  1.0000 0.0227585552
C   C292      1.0  0.92158  0.21831  0.16929  1.0000 0.0227585552
C   C293      1.0  0.20098  0.99771  0.66929  1.0000 0.0227585552
C   C294      1.0  0.78169  0.95098  0.70327  1.0000 0.0227585552
C   C295      1.0  0.24771  0.07842  0.29673  1.0000 0.0227585552
C   C296      1.0  0.32842  0.53169  0.33071  1.0000 0.0227585552
C   C297      1.0  0.11360  0.81440  0.87200  1.0000 -0.2108186675
C   C298      1.0  0.49160  0.86360  0.79920  1.0000 -0.2108186675
C   C299      1.0  0.06440  0.69240  0.20080  1.0000 -0.2108186675
C   C300      1.0  0.94240  0.24160  0.12800  1.0000 -0.2108186675
C   C301      1.0  0.13640  0.93560  0.62800  1.0000 -0.2108186675
C   C302      1.0  0.75840  0.88640  0.70080  1.0000 -0.2108186675
C   C303      1.0  0.18560  0.05760  0.29920  1.0000 -0.2108186675
C   C304      1.0  0.30760  0.50840  0.37200  1.0000 -0.2108186675
C   C305      1.0  0.17360  0.82720  0.88460  1.0000 0.1378402368
C   C306      1.0  0.53900  0.92360  0.84640  1.0000 0.1378402368
C   C307      1.0  0.07720  0.69260  0.15360  1.0000 0.1378402368
C   C308      1.0  0.94260  0.28900  0.11540  1.0000 0.1378402368
C   C309      1.0  0.07640  0.92280  0.61540  1.0000 0.1378402368
C   C310      1.0  0.71100  0.82640  0.65360  1.0000 0.1378402368
C   C311      1.0  0.17280  0.05740  0.34640  1.0000 0.1378402368
C   C312      1.0  0.30740  0.46100  0.38460  1.0000 0.1378402368
C   C313      1.0  0.14480  0.76550  0.86930  1.0000 -0.2108186675
C   C314      1.0  0.52550  0.89480  0.87930  1.0000 -0.2108186675
C   C315      1.0  0.01550  0.64620  0.12070  1.0000 -0.2108186675
C   C316      1.0  0.89620  0.27550  0.13070  1.0000 -0.2108186675
C   C317      1.0  0.10520  0.98450  0.63070  1.0000 -0.2108186675
C   C318      1.0  0.72450  0.85520  0.62070  1.0000 -0.2108186675
C   C319      1.0  0.23450  0.10380  0.37930  1.0000 -0.2108186675
C   C320      1.0  0.35380  0.47450  0.36930  1.0000 -0.2108186675
C   C321      1.0  0.07150  0.70130  0.83400  1.0000 0.0886097027
C   C322      1.0  0.48750  0.82150  0.87020  1.0000 0.0886097027
C   C323      1.0  0.95130  0.61730  0.12980  1.0000 0.0886097027
C   C324      1.0  0.86730  0.23750  0.16600  1.0000 0.0886097027
C   C325      1.0  0.17850  0.04870  0.66600  1.0000 0.0886097027
C   C326      1.0  0.76250  0.92850  0.62980  1.0000 0.0886097027
C   C327      1.0  0.29870  0.13270  0.37020  1.0000 0.0886097027
C   C328      1.0  0.38270  0.51250  0.33400  1.0000 0.0886097027
C   C329      1.0  0.25310  0.90040  0.92430  1.0000 -0.2188388614
C   C330      1.0  0.57880  0.00310  0.85270  1.0000 -0.2188388614
C   C331      1.0  0.15040  0.72610  0.14730  1.0000 -0.2188388614
C   C332      1.0  0.97610  0.32880  0.07570  1.0000 -0.2188388614
C   C333      1.0  0.99690  0.84960  0.57570  1.0000 -0.2188388614
C   C334      1.0  0.67120  0.74690  0.64730  1.0000 -0.2188388614
C   C335      1.0  0.09960  0.02390  0.35270  1.0000 -0.2188388614
C   C336      1.0  0.27390  0.42120  0.42430  1.0000 -0.2188388614
N   N1        1.0  0.58842  0.22533  0.14915  1.0000 -0.3385110462
N   N2        1.0  0.68927  0.33842  0.86309  1.0000 -0.3385110462
N   N3        1.0  0.47533  0.82618  0.13691  1.0000 -0.3385110462
N   N4        1.0  0.07618  0.43927  0.85085  1.0000 -0.3385110462
N   N5        1.0  0.66158  0.52467  0.35085  1.0000 -0.3385110462
N   N6        1.0  0.56073  0.41158  0.63691  1.0000 -0.3385110462
N   N7        1.0  0.77467  0.92382  0.36309  1.0000 -0.3385110462
N   N8        1.0  0.17382  0.31073  0.64915  1.0000 -0.3385110462
N   N9        1.0  0.54364  0.21299  0.17723  1.0000 -0.33068007
N   N10       1.0  0.61641  0.29364  0.83065  1.0000 -0.33068007
N   N11       1.0  0.46299  0.78576  0.16935  1.0000 -0.33068007
N   N12       1.0  0.03576  0.36641  0.82277  1.0000 -0.33068007
N   N13       1.0  0.70636  0.53701  0.32277  1.0000 -0.33068007
N   N14       1.0  0.63359  0.45636  0.66935  1.0000 -0.33068007
N   N15       1.0  0.78701  0.96424  0.33065  1.0000 -0.33068007
N   N16       1.0  0.21424  0.38359  0.67723  1.0000 -0.33068007
N   N17       1.0  0.50604  0.17553  0.04677  1.0000 -0.2188388614
N   N18       1.0  0.70927  0.25604  0.83051  1.0000 -0.2188388614
N   N19       1.0  0.42553  0.87876  0.16949  1.0000 -0.2188388614
N   N20       1.0  0.12876  0.45927  0.95323  1.0000 -0.2188388614
N   N21       1.0  0.74396  0.57447  0.45323  1.0000 -0.2188388614
N   N22       1.0  0.54073  0.49396  0.66949  1.0000 -0.2188388614
N   N23       1.0  0.82447  0.87124  0.33051  1.0000 -0.2188388614
N   N24       1.0  0.12124  0.29073  0.54677  1.0000 -0.2188388614
N   N25       1.0  0.44431  0.12210  0.25601  1.0000 -0.3385110462
N   N26       1.0  0.43830  0.19431  0.82221  1.0000 -0.3385110462
N   N27       1.0  0.37210  0.61609  0.17779  1.0000 -0.3385110462
N   N28       1.0  0.86609  0.18830  0.74399  1.0000 -0.3385110462
N   N29       1.0  0.80569  0.62790  0.24399  1.0000 -0.3385110462
N   N30       1.0  0.81170  0.55569  0.67779  1.0000 -0.3385110462
N   N31       1.0  0.87790  0.13391  0.32221  1.0000 -0.3385110462
N   N32       1.0  0.38391  0.56170  0.75601  1.0000 -0.3385110462
N   N33       1.0  0.49579  0.18520  0.29955  1.0000 -0.3385110462
N   N34       1.0  0.44624  0.24579  0.81059  1.0000 -0.3385110462
N   N35       1.0  0.43520  0.63565  0.18941  1.0000 -0.3385110462
N   N36       1.0  0.88565  0.19624  0.70045  1.0000 -0.3385110462
N   N37       1.0  0.75421  0.56480  0.20045  1.0000 -0.3385110462
N   N38       1.0  0.80376  0.50421  0.68941  1.0000 -0.3385110462
N   N39       1.0  0.81480  0.11435  0.31059  1.0000 -0.3385110462
N   N40       1.0  0.36435  0.55376  0.79955  1.0000 -0.3385110462
N   N41       1.0  0.75303  0.47019  0.13058  1.0000 -0.3472588176
N   N42       1.0  0.87245  0.50303  0.78284  1.0000 -0.3472588176
N   N43       1.0  0.72019  0.08961  0.21716  1.0000 -0.3472588176
N   N44       1.0  0.33961  0.62245  0.86942  1.0000 -0.3472588176
N   N45       1.0  0.49697  0.27981  0.36942  1.0000 -0.3472588176
N   N46       1.0  0.37755  0.24697  0.71716  1.0000 -0.3472588176
N   N47       1.0  0.52981  0.66039  0.28284  1.0000 -0.3472588176
N   N48       1.0  0.91039  0.12755  0.63058  1.0000 -0.3472588176
N   N49       1.0  0.73712  0.41977  0.15309  1.0000 -0.3069253491
N   N50       1.0  0.83403  0.48712  0.81735  1.0000 -0.3069253491
N   N51       1.0  0.66977  0.01668  0.18265  1.0000 -0.3069253491
N   N52       1.0  0.26668  0.58403  0.84691  1.0000 -0.3069253491
N   N53       1.0  0.51288  0.33023  0.34691  1.0000 -0.3069253491
N   N54       1.0  0.41597  0.26288  0.68265  1.0000 -0.3069253491
N   N55       1.0  0.58023  0.73332  0.31735  1.0000 -0.3069253491
N   N56       1.0  0.98332  0.16597  0.65309  1.0000 -0.3069253491
N   N57       1.0  0.03048  0.69291  0.81059  1.0000 -0.2011852694
N   N58       1.0  0.46989  0.78048  0.83757  1.0000 -0.2011852694
N   N59       1.0  0.94291  0.63232  0.16243  1.0000 -0.2011852694
N   N60       1.0  0.88232  0.21989  0.18941  1.0000 -0.2011852694
N   N61       1.0  0.21952  0.05709  0.68941  1.0000 -0.2011852694
N   N62       1.0  0.78011  0.96952  0.66243  1.0000 -0.2011852694
N   N63       1.0  0.30709  0.11768  0.33757  1.0000 -0.2011852694
N   N64       1.0  0.36768  0.53011  0.31059  1.0000 -0.2011852694
O   O1        1.0  0.67837  0.28602  0.08829  1.0000 -0.4723963272
O   O2        1.0  0.84008  0.42837  0.89235  1.0000 -0.4723963272
O   O3        1.0  0.53602  0.94773  0.10765  1.0000 -0.479379079
O   O4        1.0  0.19773  0.59008  0.91171  1.0000 -0.4723963272
O   O5        1.0  0.57163  0.46398  0.41171  1.0000 -0.4723963272
O   O6        1.0  0.40992  0.32163  0.60765  1.0000 -0.4723963272
O   O7        1.0  0.71398  0.80227  0.39235  1.0000 -0.4723963272
O   O8        1.0  0.05227  0.15992  0.58829  1.0000 -0.4723963272
O   O9        1.0  0.56692  0.14800  0.18708  1.0000 -0.4623080456
O   O10       1.0  0.62984  0.31692  0.91892  1.0000 -0.4623080456
O   O11       1.0  0.39800  0.71092  0.08108  1.0000 -0.4623080456
O   O12       1.0  0.96092  0.37984  0.81292  1.0000 -0.4623080456
O   O13       1.0  0.68308  0.60200  0.31292  1.0000 -0.4623080456
O   O14       1.0  0.62016  0.43308  0.58108  1.0000 -0.4623080456
O   O15       1.0  0.85200  0.03908  0.41892  1.0000 -0.4623080456
O   O16       1.0  0.28908  0.37016  0.68708  1.0000 -0.4623080456
O   O17       1.0  0.56146  0.28253  0.13197  1.0000 -0.4723963272
O   O18       1.0  0.67949  0.31146  0.77893  1.0000 -0.4723963272
O   O19       1.0  0.53253  0.90056  0.22107  1.0000 -0.4723963272
O   O20       1.0  0.15056  0.42949  0.86803  1.0000 -0.4723963272
O   O21       1.0  0.68854  0.46747  0.36803  1.0000 -0.4723963272
O   O22       1.0  0.57051  0.43854  0.72107  1.0000 -0.4723963272
O   O23       1.0  0.71747  0.84944  0.27893  1.0000 -0.4723963272
O   O24       1.0  0.09944  0.32051  0.63197  1.0000 -0.4723963272
O   O25       1.0  0.40368  0.03709  0.17397  1.0000 -0.479379079
O   O26       1.0  0.47971  0.15368  0.86659  1.0000 -0.479379079
O   O27       1.0  0.28709  0.61312  0.13341  1.0000 -0.479379079
O   O28       1.0  0.86312  0.22971  0.82603  1.0000 -0.479379079
O   O29       1.0  0.84632  0.71291  0.32603  1.0000 -0.479379079
O   O30       1.0  0.77029  0.59632  0.63341  1.0000 -0.479379079
O   O31       1.0  0.96291  0.13688  0.36659  1.0000 -0.479379079
O   O32       1.0  0.38688  0.52029  0.67397  1.0000 -0.479379079
O   O33       1.0  0.33852  0.06691  0.27977  1.0000 -0.479379079
O   O34       1.0  0.30875  0.08852  0.77161  1.0000 -0.479379079
O   O35       1.0  0.31691  0.53714  0.22839  1.0000 -0.479379079
O   O36       1.0  0.78714  0.05875  0.72023  1.0000 -0.479379079
O   O37       1.0  0.91148  0.68309  0.22023  1.0000 -0.479379079
O   O38       1.0  0.94125  0.66148  0.72839  1.0000 -0.479379079
O   O39       1.0  0.93309  0.21286  0.27161  1.0000 -0.479379079
O   O40       1.0  0.46286  0.69125  0.77977  1.0000 -0.479379079
O   O41       1.0  0.59475  0.22838  0.27499  1.0000 -0.4937149884
O   O42       1.0  0.56976  0.34475  0.86637  1.0000 -0.4937149884
O   O43       1.0  0.47838  0.70339  0.13363  1.0000 -0.4937149884
O   O44       1.0  0.95339  0.31976  0.72501  1.0000 -0.4937149884
O   O45       1.0  0.65525  0.52162  0.22501  1.0000 -0.4937149884
O   O46       1.0  0.68024  0.40525  0.63363  1.0000 -0.4937149884
O   O47       1.0  0.77162  0.04661  0.36637  1.0000 -0.4937149884
O   O48       1.0  0.29661  0.43024  0.77499  1.0000 -0.4937149884
O   O49       1.0  0.82708  0.60905  0.12067  1.0000 -0.4623080456
O   O50       1.0  0.95641  0.57708  0.71803  1.0000 -0.4623080456
O   O51       1.0  0.85905  0.23838  0.28197  1.0000 -0.4623080456
O   O52       1.0  0.48838  0.70641  0.87933  1.0000 -0.4623080456
O   O53       1.0  0.42292  0.14095  0.37933  1.0000 -0.4623080456
O   O54       1.0  0.29359  0.17292  0.78197  1.0000 -0.4623080456
O   O55       1.0  0.39095  0.51162  0.21803  1.0000 -0.4623080456
O   O56       1.0  0.76162  0.04359  0.62067  1.0000 -0.4623080456
O   O57       1.0  0.65635  0.35787  0.06610  1.0000 -0.4623080456
O   O58       1.0  0.84025  0.40635  0.79848  1.0000 -0.4623080456
O   O59       1.0  0.60787  0.04177  0.20152  1.0000 -0.4623080456
O   O60       1.0  0.29177  0.59025  0.93390  1.0000 -0.4623080456
O   O61       1.0  0.59365  0.39213  0.43390  1.0000 -0.4623080456
O   O62       1.0  0.40975  0.34365  0.70152  1.0000 -0.4623080456
O   O63       1.0  0.64213  0.70823  0.29848  1.0000 -0.4623080456
O   O64       1.0  0.95823  0.15975  0.56610  1.0000 -0.4623080456
O   O65       1.0  0.82414  0.53132  0.21564  1.0000 -0.479379079
O   O66       1.0  0.85850  0.57414  0.79282  1.0000 -0.479379079
O   O67       1.0  0.78132  0.06568  0.20718  1.0000 -0.4723963272
O   O68       1.0  0.31568  0.60850  0.78436  1.0000 -0.479379079
O   O69       1.0  0.42586  0.21868  0.28436  1.0000 -0.4723963272
O   O70       1.0  0.39150  0.17586  0.70718  1.0000 -0.4723963272
O   O71       1.0  0.46868  0.68432  0.29282  1.0000 -0.479379079
O   O72       1.0  0.93432  0.14150  0.71564  1.0000 -0.4723963272
