# DDEC6 charges by PACMAN v1.1 (https://github.com/mtap-research/PACMAN-charge/)
data_2005[Gd][dia]3[ASR]1
_chemical_formula_sum              "Gd2 C8 O16"
_cell_length_a       8.533
_cell_length_b       9.37
_cell_length_c       10.003
_cell_angle_alpha    63.283
_cell_angle_beta     75.905
_cell_angle_gamma    74.276

_symmetry_space_group_name_H-M    "P 1"
_symmetry_Int_Tables_number       1

loop_
  _symmetry_equiv_pos_as_xyz
  'x, y, z'

loop_
  _atom_site_type_symbol
  _atom_site_label
  _atom_site_symmetry_multiplicity
  _atom_site_fract_x
  _atom_site_fract_y
  _atom_site_fract_z
  _atom_site_occupancy
  _atom_site_charge
Gd  Gd1       1.0  0.33250  0.36823  0.84050  1.0000 1.8886247139
Gd  Gd2       1.0  0.66750  0.63177  0.15950  1.0000 1.8886247139
C   C1        1.0  0.98470  0.41310  0.04840  1.0000 0.5571085673
C   C2        1.0  0.01530  0.58690  0.95160  1.0000 0.5571085673
C   C3        1.0  0.42870  0.97340  0.98810  1.0000 0.5455977481
C   C4        1.0  0.57130  0.02660  0.01190  1.0000 0.5455977481
C   C5        1.0  0.55480  0.41500  0.51570  1.0000 0.5735378426
C   C6        1.0  0.44520  0.58500  0.48430  1.0000 0.5735378426
C   C7        1.0  0.55630  0.53900  0.92410  1.0000 0.5441394907
C   C8        1.0  0.44370  0.46100  0.07590  1.0000 0.5441394907
O   O1        1.0  0.08320  0.30230  0.01700  1.0000 -0.5190411447
O   O2        1.0  0.91680  0.69770  0.98300  1.0000 -0.5190411447
O   O3        1.0  0.32040  0.08660  0.91900  1.0000 -0.5190411447
O   O4        1.0  0.67960  0.91340  0.08100  1.0000 -0.5190411447
O   O5        1.0  0.52990  0.30700  0.64650  1.0000 -0.5497954029
O   O6        1.0  0.47010  0.69300  0.35350  1.0000 -0.5497954029
O   O7        1.0  0.53310  0.52330  0.81330  1.0000 -0.5028830308
O   O8        1.0  0.46690  0.47670  0.18670  1.0000 -0.5028830308
O   O9        1.0  0.43140  0.82450  0.03940  1.0000 -0.5056505043
O   O10       1.0  0.56860  0.17550  0.96060  1.0000 -0.5056505043
O   O11       1.0  0.86290  0.39480  0.14980  1.0000 -0.5190411447
O   O12       1.0  0.13710  0.60520  0.85020  1.0000 -0.5190411447
O   O13       1.0  0.65810  0.60840  0.92550  1.0000 -0.4879054863
O   O14       1.0  0.34190  0.39160  0.07450  1.0000 -0.4879054863
O   O15       1.0  0.65730  0.39990  0.40820  1.0000 -0.5056505043
O   O16       1.0  0.34270  0.60010  0.59180  1.0000 -0.5056505043
