# DDEC6 charges by PACMAN v1.1 (https://github.com/mtap-research/PACMAN-charge/)
data_2005[Y][nan]3[ASR]1
_chemical_formula_sum              "Y4 H48 C84 O24"
_cell_length_a       15.2265
_cell_length_b       15.2265
_cell_length_c       18.5799
_cell_angle_alpha    76.1765
_cell_angle_beta     76.1765
_cell_angle_gamma    68.3777

_symmetry_space_group_name_H-M    "P 1"
_symmetry_Int_Tables_number       1

loop_
  _symmetry_equiv_pos_as_xyz
  'x, y, z'

loop_
  _atom_site_type_symbol
  _atom_site_label
  _atom_site_symmetry_multiplicity
  _atom_site_fract_x
  _atom_site_fract_y
  _atom_site_fract_z
  _atom_site_occupancy
  _atom_site_charge
Y   Y1        1.0  0.46193  0.54357  0.10460  1.0000 1.8229978243
Y   Y2        1.0  0.45643  0.53807  0.39540  1.0000 1.8229978243
Y   Y3        1.0  0.53807  0.45643  0.89540  1.0000 1.8229978243
Y   Y4        1.0  0.54357  0.46193  0.60460  1.0000 1.8229978243
H   H1        1.0  0.47886  0.94753  0.74584  1.0000 0.0794371615
H   H2        1.0  0.55448  0.04565  0.72872  1.0000 0.0895912713
H   H3        1.0  0.55041  0.21782  0.69434  1.0000 0.0986323711
H   H4        1.0  0.38789  0.27219  0.91546  1.0000 0.0895912713
H   H5        1.0  0.37964  0.10607  0.94676  1.0000 0.0895912713
H   H6        1.0  0.88424  0.54688  0.10772  1.0000 0.0794371615
H   H7        1.0  0.72751  0.53031  0.10590  1.0000 0.0986323711
H   H8        1.0  0.84840  0.41020  0.90031  1.0000 0.0895912713
H   H9        1.0  0.00258  0.43414  0.89807  1.0000 0.0700329537
H   H10       1.0  0.46118  0.95801  0.98123  1.0000 0.0794371615
H   H11       1.0  0.46572  0.78839  0.01656  1.0000 0.0895912713
H   H12       1.0  0.48700  0.77522  0.77961  1.0000 0.1065118285
H   H13       1.0  0.05247  0.52114  0.75416  1.0000 0.0794371615
H   H14       1.0  0.95435  0.44552  0.77128  1.0000 0.0895912713
H   H15       1.0  0.78218  0.44959  0.80566  1.0000 0.0986323711
H   H16       1.0  0.72781  0.61211  0.58454  1.0000 0.0895912713
H   H17       1.0  0.89174  0.62092  0.55280  1.0000 0.0895912713
H   H18       1.0  0.45312  0.11576  0.39228  1.0000 0.0794371615
H   H19       1.0  0.46969  0.27249  0.39410  1.0000 0.0986323711
H   H20       1.0  0.58980  0.15160  0.59969  1.0000 0.0895912713
H   H21       1.0  0.56586  0.99742  0.60193  1.0000 0.0700329537
H   H22       1.0  0.04199  0.53882  0.51877  1.0000 0.0794371615
H   H23       1.0  0.21161  0.53428  0.48344  1.0000 0.0895912713
H   H24       1.0  0.22403  0.51303  0.72088  1.0000 0.1065118285
H   H25       1.0  0.52114  0.05247  0.25416  1.0000 0.0794371615
H   H26       1.0  0.44552  0.95435  0.27128  1.0000 0.0895912713
H   H27       1.0  0.44959  0.78218  0.30566  1.0000 0.0986323711
H   H28       1.0  0.61211  0.72781  0.08454  1.0000 0.0895912713
H   H29       1.0  0.62036  0.89393  0.05324  1.0000 0.0895912713
H   H30       1.0  0.11576  0.45312  0.89228  1.0000 0.0700329537
H   H31       1.0  0.27249  0.46969  0.89410  1.0000 0.0986323711
H   H32       1.0  0.15160  0.58980  0.09969  1.0000 0.0895912713
H   H33       1.0  0.99969  0.56700  0.10315  1.0000 0.0700329537
H   H34       1.0  0.53882  0.04199  0.01877  1.0000 0.0794371615
H   H35       1.0  0.53428  0.21161  0.98344  1.0000 0.0895912713
H   H36       1.0  0.51303  0.22403  0.22088  1.0000 0.1065118285
H   H37       1.0  0.94753  0.47886  0.24584  1.0000 0.0794371615
H   H38       1.0  0.04565  0.55448  0.22872  1.0000 0.0895912713
H   H39       1.0  0.21782  0.55041  0.19434  1.0000 0.0986323711
H   H40       1.0  0.27219  0.38789  0.41546  1.0000 0.0895912713
H   H41       1.0  0.10826  0.37908  0.44720  1.0000 0.0895912713
H   H42       1.0  0.54688  0.88424  0.60772  1.0000 0.0700329537
H   H43       1.0  0.53031  0.72751  0.60590  1.0000 0.0986323711
H   H44       1.0  0.41020  0.84840  0.40031  1.0000 0.0895912713
H   H45       1.0  0.43300  0.00031  0.39685  1.0000 0.0700329537
H   H46       1.0  0.95801  0.46118  0.48123  1.0000 0.0794371615
H   H47       1.0  0.78839  0.46572  0.51656  1.0000 0.0895912713
H   H48       1.0  0.77597  0.48697  0.27912  1.0000 0.1065118285
C   C1        1.0  0.47660  0.91220  0.80740  1.0000 -0.121042114
C   C2        1.0  0.46890  0.96390  0.86110  1.0000 0.0601469856
C   C3        1.0  0.46500  0.06620  0.84170  1.0000 0.0700329537
C   C4        1.0  0.51520  0.09760  0.77020  1.0000 -0.1098988568
C   C5        1.0  0.51530  0.19050  0.75250  1.0000 -0.0699665077
C   C6        1.0  0.47360  0.25320  0.80360  1.0000 -0.0607972373
C   C7        1.0  0.42500  0.22180  0.87260  1.0000 -0.0806321089
C   C8        1.0  0.42080  0.13020  0.89030  1.0000 -0.121042114
C   C9        1.0  0.48251  0.35111  0.78500  1.0000 0.6409444371
C   C10       1.0  0.95430  0.49550  0.00030  1.0000 0.0601469856
C   C11       1.0  0.87680  0.51900  0.05850  1.0000 -0.1031831623
C   C12       1.0  0.78990  0.50930  0.05820  1.0000 -0.0806321089
C   C13       1.0  0.77580  0.47500  0.00210  1.0000 -0.041004478
C   C14       1.0  0.85470  0.44490  0.94600  1.0000 -0.0806321089
C   C15       1.0  0.93980  0.45660  0.94520  1.0000 -0.1098988568
C   C16       1.0  0.68050  0.46870  0.00020  1.0000 0.6409444371
C   C17       1.0  0.46660  0.91780  0.93500  1.0000 -0.121042114
C   C18       1.0  0.47070  0.82350  0.95490  1.0000 -0.0699665077
C   C19       1.0  0.48090  0.76970  0.90070  1.0000 -0.0699665077
C   C20       1.0  0.48190  0.81610  0.82530  1.0000 -0.0607972373
C   C21       1.0  0.50890  0.33230  0.07960  1.0000 0.6266947249
C   C22       1.0  0.08780  0.52340  0.69260  1.0000 -0.121042114
C   C23       1.0  0.03610  0.53110  0.63890  1.0000 0.0601469856
C   C24       1.0  0.93380  0.53500  0.65830  1.0000 0.0700329537
C   C25       1.0  0.90240  0.48480  0.72980  1.0000 -0.1098988568
C   C26       1.0  0.80950  0.48470  0.74750  1.0000 -0.0699665077
C   C27       1.0  0.74680  0.52640  0.69640  1.0000 -0.0607972373
C   C28       1.0  0.77820  0.57500  0.62740  1.0000 -0.0806321089
C   C29       1.0  0.86980  0.57920  0.60970  1.0000 -0.121042114
C   C30       1.0  0.64889  0.51749  0.71500  1.0000 0.6409444371
C   C31       1.0  0.50450  0.04570  0.49970  1.0000 0.0601469856
C   C32       1.0  0.48100  0.12320  0.44150  1.0000 -0.1031831623
C   C33       1.0  0.49070  0.21010  0.44180  1.0000 -0.0806321089
C   C34       1.0  0.52500  0.22420  0.49790  1.0000 -0.041004478
C   C35       1.0  0.55510  0.14530  0.55400  1.0000 -0.0806321089
C   C36       1.0  0.54340  0.06020  0.55480  1.0000 -0.1098988568
C   C37       1.0  0.53130  0.31950  0.49980  1.0000 0.6409444371
C   C38       1.0  0.08220  0.53340  0.56500  1.0000 -0.121042114
C   C39       1.0  0.17650  0.52930  0.54510  1.0000 -0.0699665077
C   C40       1.0  0.23030  0.51910  0.59930  1.0000 -0.0699665077
C   C41       1.0  0.18390  0.51810  0.67470  1.0000 -0.0607972373
C   C42       1.0  0.66770  0.49110  0.42040  1.0000 0.6266947249
C   C43       1.0  0.52340  0.08780  0.19260  1.0000 -0.121042114
C   C44       1.0  0.53110  0.03610  0.13890  1.0000 0.0601469856
C   C45       1.0  0.53500  0.93380  0.15830  1.0000 0.0700329537
C   C46       1.0  0.48480  0.90240  0.22980  1.0000 -0.1098988568
C   C47       1.0  0.48470  0.80950  0.24750  1.0000 -0.0699665077
C   C48       1.0  0.52640  0.74680  0.19640  1.0000 -0.0607972373
C   C49       1.0  0.57500  0.77820  0.12740  1.0000 -0.0806321089
C   C50       1.0  0.57920  0.86980  0.10970  1.0000 -0.121042114
C   C51       1.0  0.51749  0.64889  0.21500  1.0000 0.6409444371
C   C52       1.0  0.04570  0.50450  0.99970  1.0000 0.0601469856
C   C53       1.0  0.12320  0.48100  0.94150  1.0000 -0.1031831623
C   C54       1.0  0.21010  0.49070  0.94180  1.0000 -0.0806321089
C   C55       1.0  0.22420  0.52500  0.99790  1.0000 -0.041004478
C   C56       1.0  0.14530  0.55510  0.05400  1.0000 -0.0806321089
C   C57       1.0  0.06020  0.54340  0.05480  1.0000 -0.1098988568
C   C58       1.0  0.31950  0.53130  0.99980  1.0000 0.6409444371
C   C59       1.0  0.53340  0.08220  0.06500  1.0000 -0.121042114
C   C60       1.0  0.52930  0.17650  0.04510  1.0000 -0.0699665077
C   C61       1.0  0.51910  0.23030  0.09930  1.0000 -0.0699665077
C   C62       1.0  0.51810  0.18390  0.17470  1.0000 -0.0607972373
C   C63       1.0  0.49110  0.66770  0.92040  1.0000 0.6266947249
C   C64       1.0  0.91220  0.47660  0.30740  1.0000 -0.121042114
C   C65       1.0  0.96390  0.46890  0.36110  1.0000 0.0601469856
C   C66       1.0  0.06620  0.46500  0.34170  1.0000 0.0700329537
C   C67       1.0  0.09760  0.51520  0.27020  1.0000 -0.1098988568
C   C68       1.0  0.19050  0.51530  0.25250  1.0000 -0.0699665077
C   C69       1.0  0.25320  0.47360  0.30360  1.0000 -0.0607972373
C   C70       1.0  0.22180  0.42500  0.37260  1.0000 -0.0806321089
C   C71       1.0  0.13020  0.42080  0.39030  1.0000 -0.121042114
C   C72       1.0  0.35111  0.48251  0.28500  1.0000 0.6409444371
C   C73       1.0  0.49550  0.95430  0.50030  1.0000 0.0601469856
C   C74       1.0  0.51900  0.87680  0.55850  1.0000 -0.1031831623
C   C75       1.0  0.50930  0.78990  0.55820  1.0000 -0.0806321089
C   C76       1.0  0.47500  0.77580  0.50210  1.0000 -0.041004478
C   C77       1.0  0.44490  0.85470  0.44600  1.0000 -0.0806321089
C   C78       1.0  0.45660  0.93980  0.44520  1.0000 -0.1098988568
C   C79       1.0  0.46870  0.68050  0.50020  1.0000 0.6409444371
C   C80       1.0  0.91780  0.46660  0.43500  1.0000 -0.121042114
C   C81       1.0  0.82350  0.47070  0.45490  1.0000 -0.0699665077
C   C82       1.0  0.76970  0.48090  0.40070  1.0000 -0.0699665077
C   C83       1.0  0.81610  0.48190  0.32530  1.0000 -0.0607972373
C   C84       1.0  0.33230  0.50890  0.57960  1.0000 0.6266947249
O   O1        1.0  0.49107  0.37927  0.13070  1.0000 -0.5759631237
O   O2        1.0  0.51761  0.37761  0.71930  1.0000 -0.6130088409
O   O3        1.0  0.62145  0.47645  0.05880  1.0000 -0.5883930763
O   O4        1.0  0.46034  0.39754  0.83760  1.0000 -0.6160199484
O   O5        1.0  0.48455  0.63015  0.98870  1.0000 -0.6500584622
O   O6        1.0  0.66828  0.45568  0.93910  1.0000 -0.6333381375
O   O7        1.0  0.62073  0.50893  0.36930  1.0000 -0.5759631237
O   O8        1.0  0.62239  0.48239  0.78070  1.0000 -0.6130088409
O   O9        1.0  0.52355  0.37855  0.44120  1.0000 -0.5883930763
O   O10       1.0  0.60246  0.53966  0.66240  1.0000 -0.6160199484
O   O11       1.0  0.36985  0.51545  0.51130  1.0000 -0.6500584622
O   O12       1.0  0.54432  0.33172  0.56090  1.0000 -0.6333381375
O   O13       1.0  0.50893  0.62073  0.86930  1.0000 -0.5759631237
O   O14       1.0  0.48239  0.62239  0.28070  1.0000 -0.6130088409
O   O15       1.0  0.37855  0.52355  0.94120  1.0000 -0.5883930763
O   O16       1.0  0.53966  0.60246  0.16240  1.0000 -0.6160199484
O   O17       1.0  0.51545  0.36985  0.01130  1.0000 -0.6500584622
O   O18       1.0  0.33172  0.54432  0.06090  1.0000 -0.6333381375
O   O19       1.0  0.37927  0.49107  0.63070  1.0000 -0.5759631237
O   O20       1.0  0.37761  0.51761  0.21930  1.0000 -0.6130088409
O   O21       1.0  0.47645  0.62145  0.55880  1.0000 -0.5883930763
O   O22       1.0  0.39754  0.46034  0.33760  1.0000 -0.6160199484
O   O23       1.0  0.63015  0.48455  0.48870  1.0000 -0.6500584622
O   O24       1.0  0.45568  0.66828  0.43910  1.0000 -0.6333381375
