# DDEC6 charges by PACMAN v1.1 (https://github.com/mtap-research/PACMAN-charge/)
data_2005[Zn][srs]3[ASR]2
_chemical_formula_sum              "Zn24 H192 C288 I48 N96"
_cell_length_a       13.8524
_cell_length_b       28.253
_cell_length_c       44.966
_cell_angle_alpha    90
_cell_angle_beta     90
_cell_angle_gamma    90

_symmetry_space_group_name_H-M    "P 1"
_symmetry_Int_Tables_number       1

loop_
  _symmetry_equiv_pos_as_xyz
  'x, y, z'

loop_
  _atom_site_type_symbol
  _atom_site_label
  _atom_site_symmetry_multiplicity
  _atom_site_fract_x
  _atom_site_fract_y
  _atom_site_fract_z
  _atom_site_occupancy
  _atom_site_charge
Zn  Zn1       1.0  0.85602  0.05230  0.41700  1.0000 0.450277152
Zn  Zn2       1.0  0.14398  0.44770  0.91700  1.0000 0.450277152
Zn  Zn3       1.0  0.35602  0.94770  0.08300  1.0000 0.450277152
Zn  Zn4       1.0  0.64398  0.55230  0.58300  1.0000 0.450277152
Zn  Zn5       1.0  0.82865  0.23722  0.68247  1.0000 0.4719089777
Zn  Zn6       1.0  0.17135  0.26278  0.18247  1.0000 0.4719089777
Zn  Zn7       1.0  0.32865  0.76278  0.81753  1.0000 0.4719089777
Zn  Zn8       1.0  0.67135  0.73722  0.31753  1.0000 0.4719089777
Zn  Zn9       1.0  0.62340  0.02115  0.58645  1.0000 0.4610637375
Zn  Zn10      1.0  0.37660  0.47885  0.08645  1.0000 0.4610637375
Zn  Zn11      1.0  0.12340  0.97885  0.91355  1.0000 0.4610637375
Zn  Zn12      1.0  0.87660  0.52115  0.41355  1.0000 0.4610637375
Zn  Zn13      1.0  0.14398  0.94770  0.58300  1.0000 0.450277152
Zn  Zn14      1.0  0.85602  0.55230  0.08300  1.0000 0.450277152
Zn  Zn15      1.0  0.64398  0.05230  0.91700  1.0000 0.450277152
Zn  Zn16      1.0  0.35602  0.44770  0.41700  1.0000 0.450277152
Zn  Zn17      1.0  0.17135  0.76278  0.31753  1.0000 0.4719089777
Zn  Zn18      1.0  0.82865  0.73722  0.81753  1.0000 0.4719089777
Zn  Zn19      1.0  0.67135  0.23722  0.18247  1.0000 0.4719089777
Zn  Zn20      1.0  0.32865  0.26278  0.68247  1.0000 0.4719089777
Zn  Zn21      1.0  0.37660  0.97885  0.41355  1.0000 0.4610637375
Zn  Zn22      1.0  0.62340  0.52115  0.91355  1.0000 0.4610637375
Zn  Zn23      1.0  0.87660  0.02115  0.08645  1.0000 0.4610637375
Zn  Zn24      1.0  0.12340  0.47885  0.58645  1.0000 0.4610637375
H   H1        1.0  0.04360  0.03250  0.44620  1.0000 0.1103805955
H   H2        1.0  0.95640  0.46750  0.94620  1.0000 0.1103805955
H   H3        1.0  0.54360  0.96750  0.05380  1.0000 0.1103805955
H   H4        1.0  0.45640  0.53250  0.55380  1.0000 0.1103805955
H   H5        1.0  0.12560  0.05020  0.49010  1.0000 0.1305385713
H   H6        1.0  0.87440  0.44980  0.99010  1.0000 0.1305385713
H   H7        1.0  0.62560  0.94980  0.00990  1.0000 0.1305385713
H   H8        1.0  0.37440  0.55020  0.50990  1.0000 0.1305385713
H   H9        1.0  0.87830  0.10130  0.52400  1.0000 0.1374930274
H   H10       1.0  0.12170  0.39870  0.02400  1.0000 0.1374930274
H   H11       1.0  0.37830  0.89870  0.97600  1.0000 0.1374930274
H   H12       1.0  0.62170  0.60130  0.47600  1.0000 0.1374930274
H   H13       1.0  0.80120  0.07980  0.47960  1.0000 0.1103805955
H   H14       1.0  0.19880  0.42020  0.97960  1.0000 0.1103805955
H   H15       1.0  0.30120  0.92020  0.02040  1.0000 0.1103805955
H   H16       1.0  0.69880  0.57980  0.52040  1.0000 0.1103805955
H   H17       1.0  0.31830  0.05120  0.52950  1.0000 0.1305385713
H   H18       1.0  0.68170  0.44880  0.02950  1.0000 0.1305385713
H   H19       1.0  0.81830  0.94880  0.97050  1.0000 0.1305385713
H   H20       1.0  0.18170  0.55120  0.47050  1.0000 0.1305385713
H   H21       1.0  0.47420  0.02530  0.53740  1.0000 0.1103805955
H   H22       1.0  0.52580  0.47470  0.03740  1.0000 0.1103805955
H   H23       1.0  0.97420  0.97470  0.96260  1.0000 0.1103805955
H   H24       1.0  0.02580  0.52530  0.46260  1.0000 0.1103805955
H   H25       1.0  0.47780  0.08420  0.61690  1.0000 0.1103805955
H   H26       1.0  0.52220  0.41580  0.11690  1.0000 0.1103805955
H   H27       1.0  0.97780  0.91580  0.88310  1.0000 0.1103805955
H   H28       1.0  0.02220  0.58420  0.38310  1.0000 0.1103805955
H   H29       1.0  0.31970  0.10810  0.61190  1.0000 0.1374930274
H   H30       1.0  0.68030  0.39190  0.11190  1.0000 0.1374930274
H   H31       1.0  0.81970  0.89190  0.88810  1.0000 0.1374930274
H   H32       1.0  0.18030  0.60810  0.38810  1.0000 0.1374930274
H   H33       1.0  0.12700  0.18440  0.62920  1.0000 0.1374930274
H   H34       1.0  0.87300  0.31560  0.12920  1.0000 0.1374930274
H   H35       1.0  0.62700  0.81560  0.87080  1.0000 0.1374930274
H   H36       1.0  0.37300  0.68440  0.37080  1.0000 0.1374930274
H   H37       1.0  0.03770  0.22140  0.66490  1.0000 0.1103805955
H   H38       1.0  0.96230  0.27860  0.16490  1.0000 0.1103805955
H   H39       1.0  0.53770  0.77860  0.83510  1.0000 0.1103805955
H   H40       1.0  0.46230  0.72140  0.33510  1.0000 0.1103805955
H   H41       1.0  0.79580  0.17400  0.63100  1.0000 0.1103805955
H   H42       1.0  0.20420  0.32600  0.13100  1.0000 0.1103805955
H   H43       1.0  0.29580  0.82600  0.86900  1.0000 0.1103805955
H   H44       1.0  0.70420  0.67400  0.36900  1.0000 0.1103805955
H   H45       1.0  0.87770  0.13610  0.59350  1.0000 0.1305385713
H   H46       1.0  0.12230  0.36390  0.09350  1.0000 0.1305385713
H   H47       1.0  0.37770  0.86390  0.90650  1.0000 0.1305385713
H   H48       1.0  0.62230  0.63610  0.40650  1.0000 0.1305385713
H   H49       1.0  0.09890  0.33930  0.22260  1.0000 0.1103805955
H   H50       1.0  0.90110  0.16070  0.72260  1.0000 0.1103805955
H   H51       1.0  0.59890  0.66070  0.27740  1.0000 0.1103805955
H   H52       1.0  0.40110  0.83930  0.77740  1.0000 0.1103805955
H   H53       1.0  0.04390  0.34840  0.27090  1.0000 0.1374930274
H   H54       1.0  0.95610  0.15160  0.77090  1.0000 0.1374930274
H   H55       1.0  0.54390  0.65160  0.22910  1.0000 0.1374930274
H   H56       1.0  0.45610  0.84840  0.72910  1.0000 0.1374930274
H   H57       1.0  0.01360  0.20750  0.27600  1.0000 0.1305385713
H   H58       1.0  0.98640  0.29250  0.77600  1.0000 0.1305385713
H   H59       1.0  0.51360  0.79250  0.22400  1.0000 0.1305385713
H   H60       1.0  0.48640  0.70750  0.72400  1.0000 0.1305385713
H   H61       1.0  0.07220  0.20070  0.22780  1.0000 0.1103805955
H   H62       1.0  0.92780  0.29930  0.72780  1.0000 0.1103805955
H   H63       1.0  0.57220  0.79930  0.27220  1.0000 0.1103805955
H   H64       1.0  0.42780  0.70070  0.77220  1.0000 0.1103805955
H   H65       1.0  0.97690  0.41240  0.33130  1.0000 0.1305385713
H   H66       1.0  0.02310  0.08760  0.83130  1.0000 0.1305385713
H   H67       1.0  0.47690  0.58760  0.16870  1.0000 0.1305385713
H   H68       1.0  0.52310  0.91240  0.66870  1.0000 0.1305385713
H   H69       1.0  0.94650  0.48430  0.35570  1.0000 0.1017379916
H   H70       1.0  0.05350  0.01570  0.85570  1.0000 0.1017379916
H   H71       1.0  0.44650  0.51570  0.14430  1.0000 0.1017379916
H   H72       1.0  0.55350  0.98430  0.64430  1.0000 0.1017379916
H   H73       1.0  0.88830  0.41740  0.42990  1.0000 0.1103805955
H   H74       1.0  0.11170  0.08260  0.92990  1.0000 0.1103805955
H   H75       1.0  0.38830  0.58260  0.07010  1.0000 0.1103805955
H   H76       1.0  0.61170  0.91740  0.57010  1.0000 0.1103805955
H   H77       1.0  0.91260  0.34410  0.40740  1.0000 0.1305385713
H   H78       1.0  0.08740  0.15590  0.90740  1.0000 0.1305385713
H   H79       1.0  0.41260  0.65590  0.09260  1.0000 0.1305385713
H   H80       1.0  0.58740  0.84410  0.59260  1.0000 0.1305385713
H   H81       1.0  0.90110  0.22840  0.40950  1.0000 0.1374930274
H   H82       1.0  0.09890  0.27160  0.90950  1.0000 0.1374930274
H   H83       1.0  0.40110  0.77160  0.09050  1.0000 0.1374930274
H   H84       1.0  0.59890  0.72840  0.59050  1.0000 0.1374930274
H   H85       1.0  0.86970  0.15620  0.43250  1.0000 0.1017379916
H   H86       1.0  0.13030  0.34380  0.93250  1.0000 0.1017379916
H   H87       1.0  0.36970  0.84380  0.06750  1.0000 0.1017379916
H   H88       1.0  0.63030  0.65620  0.56750  1.0000 0.1017379916
H   H89       1.0  0.94920  0.08660  0.36070  1.0000 0.1017379916
H   H90       1.0  0.05080  0.41340  0.86070  1.0000 0.1017379916
H   H91       1.0  0.44920  0.91340  0.13930  1.0000 0.1017379916
H   H92       1.0  0.55080  0.58660  0.63930  1.0000 0.1017379916
H   H93       1.0  0.97990  0.15550  0.33600  1.0000 0.1305385713
H   H94       1.0  0.02010  0.34450  0.83600  1.0000 0.1305385713
H   H95       1.0  0.47990  0.84450  0.16400  1.0000 0.1305385713
H   H96       1.0  0.52010  0.65550  0.66400  1.0000 0.1305385713
H   H97       1.0  0.95640  0.96750  0.55380  1.0000 0.1103805955
H   H98       1.0  0.04360  0.53250  0.05380  1.0000 0.1103805955
H   H99       1.0  0.45640  0.03250  0.94620  1.0000 0.1103805955
H   H100      1.0  0.54360  0.46750  0.44620  1.0000 0.1103805955
H   H101      1.0  0.87440  0.94980  0.50990  1.0000 0.1305385713
H   H102      1.0  0.12560  0.55020  0.00990  1.0000 0.1305385713
H   H103      1.0  0.37440  0.05020  0.99010  1.0000 0.1305385713
H   H104      1.0  0.62560  0.44980  0.49010  1.0000 0.1305385713
H   H105      1.0  0.12170  0.89870  0.47600  1.0000 0.1374930274
H   H106      1.0  0.87830  0.60130  0.97600  1.0000 0.1374930274
H   H107      1.0  0.62170  0.10130  0.02400  1.0000 0.1374930274
H   H108      1.0  0.37830  0.39870  0.52400  1.0000 0.1374930274
H   H109      1.0  0.19880  0.92020  0.52040  1.0000 0.1103805955
H   H110      1.0  0.80120  0.57980  0.02040  1.0000 0.1103805955
H   H111      1.0  0.69880  0.07980  0.97960  1.0000 0.1103805955
H   H112      1.0  0.30120  0.42020  0.47960  1.0000 0.1103805955
H   H113      1.0  0.68170  0.94880  0.47050  1.0000 0.1305385713
H   H114      1.0  0.31830  0.55120  0.97050  1.0000 0.1305385713
H   H115      1.0  0.18170  0.05120  0.02950  1.0000 0.1305385713
H   H116      1.0  0.81830  0.44880  0.52950  1.0000 0.1305385713
H   H117      1.0  0.52580  0.97470  0.46260  1.0000 0.1103805955
H   H118      1.0  0.47420  0.52530  0.96260  1.0000 0.1103805955
H   H119      1.0  0.02580  0.02530  0.03740  1.0000 0.1103805955
H   H120      1.0  0.97420  0.47470  0.53740  1.0000 0.1103805955
H   H121      1.0  0.52220  0.91580  0.38310  1.0000 0.1103805955
H   H122      1.0  0.47780  0.58420  0.88310  1.0000 0.1103805955
H   H123      1.0  0.02220  0.08420  0.11690  1.0000 0.1103805955
H   H124      1.0  0.97780  0.41580  0.61690  1.0000 0.1103805955
H   H125      1.0  0.68030  0.89190  0.38810  1.0000 0.1374930274
H   H126      1.0  0.31970  0.60810  0.88810  1.0000 0.1374930274
H   H127      1.0  0.18030  0.10810  0.11190  1.0000 0.1374930274
H   H128      1.0  0.81970  0.39190  0.61190  1.0000 0.1374930274
H   H129      1.0  0.87300  0.81560  0.37080  1.0000 0.1374930274
H   H130      1.0  0.12700  0.68440  0.87080  1.0000 0.1374930274
H   H131      1.0  0.37300  0.18440  0.12920  1.0000 0.1374930274
H   H132      1.0  0.62700  0.31560  0.62920  1.0000 0.1374930274
H   H133      1.0  0.96230  0.77860  0.33510  1.0000 0.1103805955
H   H134      1.0  0.03770  0.72140  0.83510  1.0000 0.1103805955
H   H135      1.0  0.46230  0.22140  0.16490  1.0000 0.1103805955
H   H136      1.0  0.53770  0.27860  0.66490  1.0000 0.1103805955
H   H137      1.0  0.20420  0.82600  0.36900  1.0000 0.1103805955
H   H138      1.0  0.79580  0.67400  0.86900  1.0000 0.1103805955
H   H139      1.0  0.70420  0.17400  0.13100  1.0000 0.1103805955
H   H140      1.0  0.29580  0.32600  0.63100  1.0000 0.1103805955
H   H141      1.0  0.12230  0.86390  0.40650  1.0000 0.1305385713
H   H142      1.0  0.87770  0.63610  0.90650  1.0000 0.1305385713
H   H143      1.0  0.62230  0.13610  0.09350  1.0000 0.1305385713
H   H144      1.0  0.37770  0.36390  0.59350  1.0000 0.1305385713
H   H145      1.0  0.90110  0.66070  0.77740  1.0000 0.1103805955
H   H146      1.0  0.09890  0.83930  0.27740  1.0000 0.1103805955
H   H147      1.0  0.40110  0.33930  0.72260  1.0000 0.1103805955
H   H148      1.0  0.59890  0.16070  0.22260  1.0000 0.1103805955
H   H149      1.0  0.95610  0.65160  0.72910  1.0000 0.1374930274
H   H150      1.0  0.04390  0.84840  0.22910  1.0000 0.1374930274
H   H151      1.0  0.45610  0.34840  0.77090  1.0000 0.1374930274
H   H152      1.0  0.54390  0.15160  0.27090  1.0000 0.1374930274
H   H153      1.0  0.98640  0.79250  0.72400  1.0000 0.1305385713
H   H154      1.0  0.01360  0.70750  0.22400  1.0000 0.1305385713
H   H155      1.0  0.48640  0.20750  0.77600  1.0000 0.1305385713
H   H156      1.0  0.51360  0.29250  0.27600  1.0000 0.1305385713
H   H157      1.0  0.92780  0.79930  0.77220  1.0000 0.1103805955
H   H158      1.0  0.07220  0.70070  0.27220  1.0000 0.1103805955
H   H159      1.0  0.42780  0.20070  0.72780  1.0000 0.1103805955
H   H160      1.0  0.57220  0.29930  0.22780  1.0000 0.1103805955
H   H161      1.0  0.02310  0.58760  0.66870  1.0000 0.1305385713
H   H162      1.0  0.97690  0.91240  0.16870  1.0000 0.1305385713
H   H163      1.0  0.52310  0.41240  0.83130  1.0000 0.1305385713
H   H164      1.0  0.47690  0.08760  0.33130  1.0000 0.1305385713
H   H165      1.0  0.05350  0.51570  0.64430  1.0000 0.1017379916
H   H166      1.0  0.94650  0.98430  0.14430  1.0000 0.1017379916
H   H167      1.0  0.55350  0.48430  0.85570  1.0000 0.1017379916
H   H168      1.0  0.44650  0.01570  0.35570  1.0000 0.1017379916
H   H169      1.0  0.11170  0.58260  0.57010  1.0000 0.1103805955
H   H170      1.0  0.88830  0.91740  0.07010  1.0000 0.1103805955
H   H171      1.0  0.61170  0.41740  0.92990  1.0000 0.1103805955
H   H172      1.0  0.38830  0.08260  0.42990  1.0000 0.1103805955
H   H173      1.0  0.08740  0.65590  0.59260  1.0000 0.1305385713
H   H174      1.0  0.91260  0.84410  0.09260  1.0000 0.1305385713
H   H175      1.0  0.58740  0.34410  0.90740  1.0000 0.1305385713
H   H176      1.0  0.41260  0.15590  0.40740  1.0000 0.1305385713
H   H177      1.0  0.09890  0.77160  0.59050  1.0000 0.1374930274
H   H178      1.0  0.90110  0.72840  0.09050  1.0000 0.1374930274
H   H179      1.0  0.59890  0.22840  0.90950  1.0000 0.1374930274
H   H180      1.0  0.40110  0.27160  0.40950  1.0000 0.1374930274
H   H181      1.0  0.13030  0.84380  0.56750  1.0000 0.1017379916
H   H182      1.0  0.86970  0.65620  0.06750  1.0000 0.1017379916
H   H183      1.0  0.63030  0.15620  0.93250  1.0000 0.1017379916
H   H184      1.0  0.36970  0.34380  0.43250  1.0000 0.1017379916
H   H185      1.0  0.05080  0.91340  0.63930  1.0000 0.1017379916
H   H186      1.0  0.94920  0.58660  0.13930  1.0000 0.1017379916
H   H187      1.0  0.55080  0.08660  0.86070  1.0000 0.1017379916
H   H188      1.0  0.44920  0.41340  0.36070  1.0000 0.1017379916
H   H189      1.0  0.02010  0.84450  0.66400  1.0000 0.1305385713
H   H190      1.0  0.97990  0.65550  0.16400  1.0000 0.1305385713
H   H191      1.0  0.52010  0.15550  0.83600  1.0000 0.1305385713
H   H192      1.0  0.47990  0.34450  0.33600  1.0000 0.1305385713
C   C1        1.0  0.00960  0.04710  0.46210  1.0000 0.0791046732
C   C2        1.0  0.99040  0.45290  0.96210  1.0000 0.0791046732
C   C3        1.0  0.50960  0.95290  0.03790  1.0000 0.0791046732
C   C4        1.0  0.49040  0.54710  0.53790  1.0000 0.0791046732
C   C5        1.0  0.05910  0.05780  0.48820  1.0000 -0.1413812754
C   C6        1.0  0.94090  0.44220  0.98820  1.0000 -0.1413812754
C   C7        1.0  0.55910  0.94220  0.01180  1.0000 -0.1413812754
C   C8        1.0  0.44090  0.55780  0.51180  1.0000 -0.1413812754
C   C9        1.0  0.01130  0.07940  0.51110  1.0000 0.0459389318
C   C10       1.0  0.98870  0.42060  0.01110  1.0000 0.0459389318
C   C11       1.0  0.51130  0.92060  0.98890  1.0000 0.0459389318
C   C12       1.0  0.48870  0.57940  0.48890  1.0000 0.0459389318
C   C13       1.0  0.91420  0.08750  0.50820  1.0000 -0.1413812754
C   C14       1.0  0.08580  0.41250  0.00820  1.0000 -0.1413812754
C   C15       1.0  0.41420  0.91250  0.99180  1.0000 -0.1413812754
C   C16       1.0  0.58580  0.58750  0.49180  1.0000 -0.1413812754
C   C17       1.0  0.86880  0.07490  0.48140  1.0000 0.0791046732
C   C18       1.0  0.13120  0.42510  0.98140  1.0000 0.0791046732
C   C19       1.0  0.36880  0.92510  0.01860  1.0000 0.0791046732
C   C20       1.0  0.63120  0.57490  0.51860  1.0000 0.0791046732
C   C21       1.0  0.06380  0.09420  0.53810  1.0000 0.3801965321
C   C22       1.0  0.93620  0.40580  0.03810  1.0000 0.3801965321
C   C23       1.0  0.56380  0.90580  0.96190  1.0000 0.3801965321
C   C24       1.0  0.43620  0.59420  0.46190  1.0000 0.3801965321
C   C25       1.0  0.20080  0.09830  0.56500  1.0000 0.3801965321
C   C26       1.0  0.79920  0.40170  0.06500  1.0000 0.3801965321
C   C27       1.0  0.70080  0.90170  0.93500  1.0000 0.3801965321
C   C28       1.0  0.29920  0.59830  0.43500  1.0000 0.3801965321
C   C29       1.0  0.06600  0.13280  0.58250  1.0000 0.3801965321
C   C30       1.0  0.93400  0.36720  0.08250  1.0000 0.3801965321
C   C31       1.0  0.56600  0.86720  0.91750  1.0000 0.3801965321
C   C32       1.0  0.43400  0.63280  0.41750  1.0000 0.3801965321
C   C33       1.0  0.30290  0.08350  0.56990  1.0000 0.0612856698
C   C34       1.0  0.69710  0.41650  0.06990  1.0000 0.0612856698
C   C35       1.0  0.80290  0.91650  0.93010  1.0000 0.0612856698
C   C36       1.0  0.19710  0.58350  0.43010  1.0000 0.0612856698
C   C37       1.0  0.34990  0.05790  0.54780  1.0000 -0.1289058764
C   C38       1.0  0.65010  0.44210  0.04780  1.0000 -0.1289058764
C   C39       1.0  0.84990  0.94210  0.95220  1.0000 -0.1289058764
C   C40       1.0  0.15010  0.55790  0.45220  1.0000 -0.1289058764
C   C41       1.0  0.44230  0.04260  0.55270  1.0000 0.0714867855
C   C42       1.0  0.55770  0.45740  0.05270  1.0000 0.0714867855
C   C43       1.0  0.94230  0.95740  0.94730  1.0000 0.0714867855
C   C44       1.0  0.05770  0.54260  0.44730  1.0000 0.0714867855
C   C45       1.0  0.44410  0.07640  0.59920  1.0000 0.089848623
C   C46       1.0  0.55590  0.42360  0.09920  1.0000 0.089848623
C   C47       1.0  0.94410  0.92360  0.90080  1.0000 0.089848623
C   C48       1.0  0.05590  0.57640  0.40080  1.0000 0.089848623
C   C49       1.0  0.35090  0.09180  0.59610  1.0000 -0.1289058764
C   C50       1.0  0.64910  0.40820  0.09610  1.0000 -0.1289058764
C   C51       1.0  0.85090  0.90820  0.90390  1.0000 -0.1289058764
C   C52       1.0  0.14910  0.59180  0.40390  1.0000 -0.1289058764
C   C53       1.0  0.01390  0.15750  0.60650  1.0000 0.0612856698
C   C54       1.0  0.98610  0.34250  0.10650  1.0000 0.0612856698
C   C55       1.0  0.51390  0.84250  0.89350  1.0000 0.0612856698
C   C56       1.0  0.48610  0.65750  0.39350  1.0000 0.0612856698
C   C57       1.0  0.05860  0.18220  0.62880  1.0000 -0.1289058764
C   C58       1.0  0.94140  0.31780  0.12880  1.0000 -0.1289058764
C   C59       1.0  0.55860  0.81780  0.87120  1.0000 -0.1289058764
C   C60       1.0  0.44140  0.68220  0.37120  1.0000 -0.1289058764
C   C61       1.0  0.00540  0.20330  0.65010  1.0000 0.0714867855
C   C62       1.0  0.99460  0.29670  0.15010  1.0000 0.0714867855
C   C63       1.0  0.50540  0.79670  0.84990  1.0000 0.0714867855
C   C64       1.0  0.49460  0.70330  0.34990  1.0000 0.0714867855
C   C65       1.0  0.86420  0.17600  0.63050  1.0000 0.089848623
C   C66       1.0  0.13580  0.32400  0.13050  1.0000 0.089848623
C   C67       1.0  0.36420  0.82400  0.86950  1.0000 0.089848623
C   C68       1.0  0.63580  0.67600  0.36950  1.0000 0.089848623
C   C69       1.0  0.91210  0.15380  0.60800  1.0000 -0.1289058764
C   C70       1.0  0.08790  0.34620  0.10800  1.0000 -0.1289058764
C   C71       1.0  0.41210  0.84620  0.89200  1.0000 -0.1289058764
C   C72       1.0  0.58790  0.65380  0.39200  1.0000 -0.1289058764
C   C73       1.0  0.08320  0.31180  0.23380  1.0000 0.089848623
C   C74       1.0  0.91680  0.18820  0.73380  1.0000 0.089848623
C   C75       1.0  0.58320  0.68820  0.26620  1.0000 0.089848623
C   C76       1.0  0.41680  0.81180  0.76620  1.0000 0.089848623
C   C77       1.0  0.05000  0.31770  0.26260  1.0000 -0.1635753146
C   C78       1.0  0.95000  0.18230  0.76260  1.0000 -0.1709657359
C   C79       1.0  0.55000  0.68230  0.23740  1.0000 -0.1635753146
C   C80       1.0  0.45000  0.81770  0.73740  1.0000 -0.1635753146
C   C81       1.0  0.02610  0.27890  0.27890  1.0000 0.0612856698
C   C82       1.0  0.97390  0.22110  0.77890  1.0000 0.0612856698
C   C83       1.0  0.52610  0.72110  0.22110  1.0000 0.0612856698
C   C84       1.0  0.47390  0.77890  0.72110  1.0000 0.0612856698
C   C85       1.0  0.03280  0.23500  0.26540  1.0000 -0.1461537067
C   C86       1.0  0.96720  0.26500  0.76540  1.0000 -0.1461537067
C   C87       1.0  0.53280  0.76500  0.23460  1.0000 -0.1461537067
C   C88       1.0  0.46720  0.73500  0.73460  1.0000 -0.1461537067
C   C89       1.0  0.06730  0.23110  0.23670  1.0000 0.089848623
C   C90       1.0  0.93270  0.26890  0.73670  1.0000 0.089848623
C   C91       1.0  0.56730  0.76890  0.26330  1.0000 0.089848623
C   C92       1.0  0.43270  0.73110  0.76330  1.0000 0.089848623
C   C93       1.0  0.99560  0.28230  0.31070  1.0000 0.3801965321
C   C94       1.0  0.00440  0.21770  0.81070  1.0000 0.3801965321
C   C95       1.0  0.49560  0.71770  0.18930  1.0000 0.3801965321
C   C96       1.0  0.50440  0.78230  0.68930  1.0000 0.3801965321
C   C97       1.0  0.95950  0.32440  0.35160  1.0000 0.3737149738
C   C98       1.0  0.04050  0.17560  0.85160  1.0000 0.3737149738
C   C99       1.0  0.45950  0.67560  0.14840  1.0000 0.3737149738
C   C100      1.0  0.54050  0.82440  0.64840  1.0000 0.3737149738
C   C101      1.0  0.95910  0.24550  0.35350  1.0000 0.3737149738
C   C102      1.0  0.04090  0.25450  0.85350  1.0000 0.3801965321
C   C103      1.0  0.45910  0.75450  0.14650  1.0000 0.3801965321
C   C104      1.0  0.54090  0.74550  0.64650  1.0000 0.3801965321
C   C105      1.0  0.94620  0.37030  0.36680  1.0000 0.0612856698
C   C106      1.0  0.05380  0.12970  0.86680  1.0000 0.0612856698
C   C107      1.0  0.44620  0.62970  0.13320  1.0000 0.0612856698
C   C108      1.0  0.55380  0.87030  0.63320  1.0000 0.0612856698
C   C109      1.0  0.95720  0.41250  0.35160  1.0000 -0.1413812754
C   C110      1.0  0.04280  0.08750  0.85160  1.0000 -0.1413812754
C   C111      1.0  0.45720  0.58750  0.14840  1.0000 -0.1413812754
C   C112      1.0  0.54280  0.91250  0.64840  1.0000 -0.1413812754
C   C113      1.0  0.93900  0.45540  0.36620  1.0000 0.089848623
C   C114      1.0  0.06100  0.04460  0.86620  1.0000 0.089848623
C   C115      1.0  0.43900  0.54460  0.13380  1.0000 0.089848623
C   C116      1.0  0.56100  0.95540  0.63380  1.0000 0.089848623
C   C117      1.0  0.90450  0.41640  0.40940  1.0000 0.1017379916
C   C118      1.0  0.09550  0.08360  0.90940  1.0000 0.1017379916
C   C119      1.0  0.40450  0.58360  0.09060  1.0000 0.1017379916
C   C120      1.0  0.59550  0.91640  0.59060  1.0000 0.1017379916
C   C121      1.0  0.92010  0.37230  0.39620  1.0000 -0.1413812754
C   C122      1.0  0.07990  0.12770  0.89620  1.0000 -0.1413812754
C   C123      1.0  0.42010  0.62770  0.10380  1.0000 -0.1413812754
C   C124      1.0  0.57990  0.87230  0.60380  1.0000 -0.1413812754
C   C125      1.0  0.94270  0.19960  0.36980  1.0000 0.0714867855
C   C126      1.0  0.05730  0.30040  0.86980  1.0000 0.0714867855
C   C127      1.0  0.44270  0.80040  0.13020  1.0000 0.0714867855
C   C128      1.0  0.55730  0.69960  0.63020  1.0000 0.0714867855
C   C129      1.0  0.91040  0.19960  0.39900  1.0000 -0.1709657359
C   C130      1.0  0.08960  0.30040  0.89900  1.0000 -0.1709657359
C   C131      1.0  0.41040  0.80040  0.10100  1.0000 -0.1709657359
C   C132      1.0  0.58960  0.69960  0.60100  1.0000 -0.1709657359
C   C133      1.0  0.89220  0.15630  0.41250  1.0000 0.089848623
C   C134      1.0  0.10780  0.34370  0.91250  1.0000 0.089848623
C   C135      1.0  0.39220  0.84370  0.08750  1.0000 0.089848623
C   C136      1.0  0.60780  0.65630  0.58750  1.0000 0.089848623
C   C137      1.0  0.93830  0.11590  0.37050  1.0000 0.0791046732
C   C138      1.0  0.06170  0.38410  0.87050  1.0000 0.0791046732
C   C139      1.0  0.43830  0.88410  0.12950  1.0000 0.0791046732
C   C140      1.0  0.56170  0.61590  0.62950  1.0000 0.0791046732
C   C141      1.0  0.95690  0.15650  0.35590  1.0000 -0.1635753146
C   C142      1.0  0.04310  0.34350  0.85590  1.0000 -0.1635753146
C   C143      1.0  0.45690  0.84350  0.14410  1.0000 -0.1709657359
C   C144      1.0  0.54310  0.65650  0.64410  1.0000 -0.1635753146
C   C145      1.0  0.99040  0.95290  0.53790  1.0000 0.0791046732
C   C146      1.0  0.00960  0.54710  0.03790  1.0000 0.0791046732
C   C147      1.0  0.49040  0.04710  0.96210  1.0000 0.0791046732
C   C148      1.0  0.50960  0.45290  0.46210  1.0000 0.0791046732
C   C149      1.0  0.94090  0.94220  0.51180  1.0000 -0.1413812754
C   C150      1.0  0.05910  0.55780  0.01180  1.0000 -0.1413812754
C   C151      1.0  0.44090  0.05780  0.98820  1.0000 -0.1413812754
C   C152      1.0  0.55910  0.44220  0.48820  1.0000 -0.1413812754
C   C153      1.0  0.98870  0.92060  0.48890  1.0000 0.0459389318
C   C154      1.0  0.01130  0.57940  0.98890  1.0000 0.0459389318
C   C155      1.0  0.48870  0.07940  0.01110  1.0000 0.0459389318
C   C156      1.0  0.51130  0.42060  0.51110  1.0000 0.0459389318
C   C157      1.0  0.08580  0.91250  0.49180  1.0000 -0.1413812754
C   C158      1.0  0.91420  0.58750  0.99180  1.0000 -0.1413812754
C   C159      1.0  0.58580  0.08750  0.00820  1.0000 -0.1413812754
C   C160      1.0  0.41420  0.41250  0.50820  1.0000 -0.1413812754
C   C161      1.0  0.13120  0.92510  0.51860  1.0000 0.0791046732
C   C162      1.0  0.86880  0.57490  0.01860  1.0000 0.0791046732
C   C163      1.0  0.63120  0.07490  0.98140  1.0000 0.0791046732
C   C164      1.0  0.36880  0.42510  0.48140  1.0000 0.0791046732
C   C165      1.0  0.93620  0.90580  0.46190  1.0000 0.3801965321
C   C166      1.0  0.06380  0.59420  0.96190  1.0000 0.3801965321
C   C167      1.0  0.43620  0.09420  0.03810  1.0000 0.3801965321
C   C168      1.0  0.56380  0.40580  0.53810  1.0000 0.3801965321
C   C169      1.0  0.79920  0.90170  0.43500  1.0000 0.3801965321
C   C170      1.0  0.20080  0.59830  0.93500  1.0000 0.3801965321
C   C171      1.0  0.29920  0.09830  0.06500  1.0000 0.3801965321
C   C172      1.0  0.70080  0.40170  0.56500  1.0000 0.3801965321
C   C173      1.0  0.93400  0.86720  0.41750  1.0000 0.3801965321
C   C174      1.0  0.06600  0.63280  0.91750  1.0000 0.3801965321
C   C175      1.0  0.43400  0.13280  0.08250  1.0000 0.3801965321
C   C176      1.0  0.56600  0.36720  0.58250  1.0000 0.3801965321
C   C177      1.0  0.69710  0.91650  0.43010  1.0000 0.0612856698
C   C178      1.0  0.30290  0.58350  0.93010  1.0000 0.0612856698
C   C179      1.0  0.19710  0.08350  0.06990  1.0000 0.0612856698
C   C180      1.0  0.80290  0.41650  0.56990  1.0000 0.0612856698
C   C181      1.0  0.65010  0.94210  0.45220  1.0000 -0.1289058764
C   C182      1.0  0.34990  0.55790  0.95220  1.0000 -0.1289058764
C   C183      1.0  0.15010  0.05790  0.04780  1.0000 -0.1289058764
C   C184      1.0  0.84990  0.44210  0.54780  1.0000 -0.1289058764
C   C185      1.0  0.55770  0.95740  0.44730  1.0000 0.0714867855
C   C186      1.0  0.44230  0.54260  0.94730  1.0000 0.0714867855
C   C187      1.0  0.05770  0.04260  0.05270  1.0000 0.0714867855
C   C188      1.0  0.94230  0.45740  0.55270  1.0000 0.0714867855
C   C189      1.0  0.55590  0.92360  0.40080  1.0000 0.089848623
C   C190      1.0  0.44410  0.57640  0.90080  1.0000 0.089848623
C   C191      1.0  0.05590  0.07640  0.09920  1.0000 0.089848623
C   C192      1.0  0.94410  0.42360  0.59920  1.0000 0.089848623
C   C193      1.0  0.64910  0.90820  0.40390  1.0000 -0.1289058764
C   C194      1.0  0.35090  0.59180  0.90390  1.0000 -0.1289058764
C   C195      1.0  0.14910  0.09180  0.09610  1.0000 -0.1289058764
C   C196      1.0  0.85090  0.40820  0.59610  1.0000 -0.1289058764
C   C197      1.0  0.98610  0.84250  0.39350  1.0000 0.0612856698
C   C198      1.0  0.01390  0.65750  0.89350  1.0000 0.0612856698
C   C199      1.0  0.48610  0.15750  0.10650  1.0000 0.0612856698
C   C200      1.0  0.51390  0.34250  0.60650  1.0000 0.0612856698
C   C201      1.0  0.94140  0.81780  0.37120  1.0000 -0.1289058764
C   C202      1.0  0.05860  0.68220  0.87120  1.0000 -0.1289058764
C   C203      1.0  0.44140  0.18220  0.12880  1.0000 -0.1289058764
C   C204      1.0  0.55860  0.31780  0.62880  1.0000 -0.1289058764
C   C205      1.0  0.99460  0.79670  0.34990  1.0000 0.0714867855
C   C206      1.0  0.00540  0.70330  0.84990  1.0000 0.0714867855
C   C207      1.0  0.49460  0.20330  0.15010  1.0000 0.0714867855
C   C208      1.0  0.50540  0.29670  0.65010  1.0000 0.0714867855
C   C209      1.0  0.13580  0.82400  0.36950  1.0000 0.089848623
C   C210      1.0  0.86420  0.67600  0.86950  1.0000 0.089848623
C   C211      1.0  0.63580  0.17600  0.13050  1.0000 0.089848623
C   C212      1.0  0.36420  0.32400  0.63050  1.0000 0.089848623
C   C213      1.0  0.08790  0.84620  0.39200  1.0000 -0.1289058764
C   C214      1.0  0.91210  0.65380  0.89200  1.0000 -0.1289058764
C   C215      1.0  0.58790  0.15380  0.10800  1.0000 -0.1289058764
C   C216      1.0  0.41210  0.34620  0.60800  1.0000 -0.1289058764
C   C217      1.0  0.91680  0.68820  0.76620  1.0000 0.089848623
C   C218      1.0  0.08320  0.81180  0.26620  1.0000 0.089848623
C   C219      1.0  0.41680  0.31180  0.73380  1.0000 0.089848623
C   C220      1.0  0.58320  0.18820  0.23380  1.0000 0.089848623
C   C221      1.0  0.95000  0.68230  0.73740  1.0000 -0.1709657359
C   C222      1.0  0.05000  0.81770  0.23740  1.0000 -0.1635753146
C   C223      1.0  0.45000  0.31770  0.76260  1.0000 -0.1635753146
C   C224      1.0  0.55000  0.18230  0.26260  1.0000 -0.1635753146
C   C225      1.0  0.97390  0.72110  0.72110  1.0000 0.0612856698
C   C226      1.0  0.02610  0.77890  0.22110  1.0000 0.0612856698
C   C227      1.0  0.47390  0.27890  0.77890  1.0000 0.0612856698
C   C228      1.0  0.52610  0.22110  0.27890  1.0000 0.0612856698
C   C229      1.0  0.96720  0.76500  0.73460  1.0000 -0.1461537067
C   C230      1.0  0.03280  0.73500  0.23460  1.0000 -0.1461537067
C   C231      1.0  0.46720  0.23500  0.76540  1.0000 -0.1461537067
C   C232      1.0  0.53280  0.26500  0.26540  1.0000 -0.1461537067
C   C233      1.0  0.93270  0.76890  0.76330  1.0000 0.089848623
C   C234      1.0  0.06730  0.73110  0.26330  1.0000 0.089848623
C   C235      1.0  0.43270  0.23110  0.73670  1.0000 0.089848623
C   C236      1.0  0.56730  0.26890  0.23670  1.0000 0.089848623
C   C237      1.0  0.00440  0.71770  0.68930  1.0000 0.3801965321
C   C238      1.0  0.99560  0.78230  0.18930  1.0000 0.3801965321
C   C239      1.0  0.50440  0.28230  0.81070  1.0000 0.3801965321
C   C240      1.0  0.49560  0.21770  0.31070  1.0000 0.3801965321
C   C241      1.0  0.04050  0.67560  0.64840  1.0000 0.3737149738
C   C242      1.0  0.95950  0.82440  0.14840  1.0000 0.3737149738
C   C243      1.0  0.54050  0.32440  0.85160  1.0000 0.3737149738
C   C244      1.0  0.45950  0.17560  0.35160  1.0000 0.3737149738
C   C245      1.0  0.04090  0.75450  0.64650  1.0000 0.3801965321
C   C246      1.0  0.95910  0.74550  0.14650  1.0000 0.3801965321
C   C247      1.0  0.54090  0.24550  0.85350  1.0000 0.3737149738
C   C248      1.0  0.45910  0.25450  0.35350  1.0000 0.3801965321
C   C249      1.0  0.05380  0.62970  0.63320  1.0000 0.0612856698
C   C250      1.0  0.94620  0.87030  0.13320  1.0000 0.0612856698
C   C251      1.0  0.55380  0.37030  0.86680  1.0000 0.0612856698
C   C252      1.0  0.44620  0.12970  0.36680  1.0000 0.0612856698
C   C253      1.0  0.04280  0.58750  0.64840  1.0000 -0.1413812754
C   C254      1.0  0.95720  0.91250  0.14840  1.0000 -0.1413812754
C   C255      1.0  0.54280  0.41250  0.85160  1.0000 -0.1413812754
C   C256      1.0  0.45720  0.08750  0.35160  1.0000 -0.1413812754
C   C257      1.0  0.06100  0.54460  0.63380  1.0000 0.089848623
C   C258      1.0  0.93900  0.95540  0.13380  1.0000 0.089848623
C   C259      1.0  0.56100  0.45540  0.86620  1.0000 0.089848623
C   C260      1.0  0.43900  0.04460  0.36620  1.0000 0.089848623
C   C261      1.0  0.09550  0.58360  0.59060  1.0000 0.1017379916
C   C262      1.0  0.90450  0.91640  0.09060  1.0000 0.1017379916
C   C263      1.0  0.59550  0.41640  0.90940  1.0000 0.1017379916
C   C264      1.0  0.40450  0.08360  0.40940  1.0000 0.1017379916
C   C265      1.0  0.07990  0.62770  0.60380  1.0000 -0.1413812754
C   C266      1.0  0.92010  0.87230  0.10380  1.0000 -0.1413812754
C   C267      1.0  0.57990  0.37230  0.89620  1.0000 -0.1413812754
C   C268      1.0  0.42010  0.12770  0.39620  1.0000 -0.1413812754
C   C269      1.0  0.05730  0.80040  0.63020  1.0000 0.0714867855
C   C270      1.0  0.94270  0.69960  0.13020  1.0000 0.0714867855
C   C271      1.0  0.55730  0.19960  0.86980  1.0000 0.0714867855
C   C272      1.0  0.44270  0.30040  0.36980  1.0000 0.0714867855
C   C273      1.0  0.08960  0.80040  0.60100  1.0000 -0.1709657359
C   C274      1.0  0.91040  0.69960  0.10100  1.0000 -0.1709657359
C   C275      1.0  0.58960  0.19960  0.89900  1.0000 -0.1709657359
C   C276      1.0  0.41040  0.30040  0.39900  1.0000 -0.1709657359
C   C277      1.0  0.10780  0.84370  0.58750  1.0000 0.089848623
C   C278      1.0  0.89220  0.65630  0.08750  1.0000 0.089848623
C   C279      1.0  0.60780  0.15630  0.91250  1.0000 0.089848623
C   C280      1.0  0.39220  0.34370  0.41250  1.0000 0.089848623
C   C281      1.0  0.06170  0.88410  0.62950  1.0000 0.0791046732
C   C282      1.0  0.93830  0.61590  0.12950  1.0000 0.0791046732
C   C283      1.0  0.56170  0.11590  0.87050  1.0000 0.0791046732
C   C284      1.0  0.43830  0.38410  0.37050  1.0000 0.0791046732
C   C285      1.0  0.04310  0.84350  0.64410  1.0000 -0.1635753146
C   C286      1.0  0.95690  0.65650  0.14410  1.0000 -0.1635753146
C   C287      1.0  0.54310  0.15650  0.85590  1.0000 -0.1635753146
C   C288      1.0  0.45690  0.34350  0.35590  1.0000 -0.1635753146
I   I1        1.0  0.94405  0.98726  0.38885  1.0000 -0.439734764
I   I2        1.0  0.05595  0.51274  0.88885  1.0000 -0.439734764
I   I3        1.0  0.44405  0.01274  0.11115  1.0000 -0.439734764
I   I4        1.0  0.55595  0.48726  0.61115  1.0000 -0.439734764
I   I5        1.0  0.67486  0.06467  0.42001  1.0000 -0.4572816692
I   I6        1.0  0.32514  0.43533  0.92001  1.0000 -0.4572816692
I   I7        1.0  0.17486  0.93533  0.07999  1.0000 -0.4572816692
I   I8        1.0  0.82514  0.56467  0.57999  1.0000 -0.4572816692
I   I9        1.0  0.66811  0.19388  0.68930  1.0000 -0.4572816692
I   I10       1.0  0.33189  0.30612  0.18930  1.0000 -0.4572816692
I   I11       1.0  0.16811  0.80612  0.81070  1.0000 -0.4572816692
I   I12       1.0  0.83189  0.69388  0.31070  1.0000 -0.4572816692
I   I13       1.0  0.82465  0.32405  0.66759  1.0000 -0.4572816692
I   I14       1.0  0.17535  0.17595  0.16759  1.0000 -0.4572816692
I   I15       1.0  0.32465  0.67595  0.83241  1.0000 -0.4572816692
I   I16       1.0  0.67535  0.82405  0.33241  1.0000 -0.4572816692
I   I17       1.0  0.70615  0.06877  0.62676  1.0000 -0.439734764
I   I18       1.0  0.29385  0.43123  0.12676  1.0000 -0.439734764
I   I19       1.0  0.20615  0.93123  0.87324  1.0000 -0.439734764
I   I20       1.0  0.79385  0.56877  0.37324  1.0000 -0.439734764
I   I21       1.0  0.70073  0.00625  0.53543  1.0000 -0.4785963199
I   I22       1.0  0.29927  0.49375  0.03543  1.0000 -0.4785963199
I   I23       1.0  0.20073  0.99375  0.96457  1.0000 -0.4785963199
I   I24       1.0  0.79927  0.50625  0.46457  1.0000 -0.4785963199
I   I25       1.0  0.05595  0.01274  0.61115  1.0000 -0.439734764
I   I26       1.0  0.94405  0.48726  0.11115  1.0000 -0.439734764
I   I27       1.0  0.55595  0.98726  0.88885  1.0000 -0.439734764
I   I28       1.0  0.44405  0.51274  0.38885  1.0000 -0.439734764
I   I29       1.0  0.32514  0.93533  0.57999  1.0000 -0.4572816692
I   I30       1.0  0.67486  0.56467  0.07999  1.0000 -0.4572816692
I   I31       1.0  0.82514  0.06467  0.92001  1.0000 -0.4572816692
I   I32       1.0  0.17486  0.43533  0.42001  1.0000 -0.4572816692
I   I33       1.0  0.33189  0.80612  0.31070  1.0000 -0.4572816692
I   I34       1.0  0.66811  0.69388  0.81070  1.0000 -0.4572816692
I   I35       1.0  0.83189  0.19388  0.18930  1.0000 -0.4572816692
I   I36       1.0  0.16811  0.30612  0.68930  1.0000 -0.4572816692
I   I37       1.0  0.17535  0.67595  0.33241  1.0000 -0.4572816692
I   I38       1.0  0.82465  0.82405  0.83241  1.0000 -0.4572816692
I   I39       1.0  0.67535  0.32405  0.16759  1.0000 -0.4572816692
I   I40       1.0  0.32465  0.17595  0.66759  1.0000 -0.4572816692
I   I41       1.0  0.29385  0.93123  0.37324  1.0000 -0.439734764
I   I42       1.0  0.70615  0.56877  0.87324  1.0000 -0.439734764
I   I43       1.0  0.79385  0.06877  0.12676  1.0000 -0.439734764
I   I44       1.0  0.20615  0.43123  0.62676  1.0000 -0.439734764
I   I45       1.0  0.29927  0.99375  0.46457  1.0000 -0.4785963199
I   I46       1.0  0.70073  0.50625  0.96457  1.0000 -0.4785963199
I   I47       1.0  0.79927  0.00625  0.03543  1.0000 -0.4785963199
I   I48       1.0  0.20073  0.49375  0.53543  1.0000 -0.4785963199
N   N1        1.0  0.91630  0.05670  0.45870  1.0000 -0.1798178867
N   N2        1.0  0.08370  0.44330  0.95870  1.0000 -0.1798178867
N   N3        1.0  0.41630  0.94330  0.04130  1.0000 -0.1798178867
N   N4        1.0  0.58370  0.55670  0.54130  1.0000 -0.1798178867
N   N5        1.0  0.15630  0.08160  0.54030  1.0000 -0.3869539588
N   N6        1.0  0.84370  0.41840  0.04030  1.0000 -0.3869539588
N   N7        1.0  0.65630  0.91840  0.95970  1.0000 -0.3869539588
N   N8        1.0  0.34370  0.58160  0.45970  1.0000 -0.3869539588
N   N9        1.0  0.15880  0.12510  0.58670  1.0000 -0.3742292016
N   N10       1.0  0.84120  0.37490  0.08670  1.0000 -0.3742292016
N   N11       1.0  0.65880  0.87490  0.91330  1.0000 -0.3742292016
N   N12       1.0  0.34120  0.62510  0.41330  1.0000 -0.3742292016
N   N13       1.0  0.01410  0.11900  0.55900  1.0000 -0.401143936
N   N14       1.0  0.98590  0.38100  0.05900  1.0000 -0.401143936
N   N15       1.0  0.51410  0.88100  0.94100  1.0000 -0.401143936
N   N16       1.0  0.48590  0.61900  0.44100  1.0000 -0.401143936
N   N17       1.0  0.49000  0.05110  0.57860  1.0000 -0.1709657359
N   N18       1.0  0.51000  0.44890  0.07860  1.0000 -0.1709657359
N   N19       1.0  0.99000  0.94890  0.92140  1.0000 -0.1709657359
N   N20       1.0  0.01000  0.55110  0.42140  1.0000 -0.1709657359
N   N21       1.0  0.90880  0.20000  0.65140  1.0000 -0.1798178867
N   N22       1.0  0.09120  0.30000  0.15140  1.0000 -0.1798178867
N   N23       1.0  0.40880  0.80000  0.84860  1.0000 -0.1798178867
N   N24       1.0  0.59120  0.70000  0.34860  1.0000 -0.1798178867
N   N25       1.0  0.09420  0.27030  0.22110  1.0000 -0.1798178867
N   N26       1.0  0.90580  0.22970  0.72110  1.0000 -0.1798178867
N   N27       1.0  0.59420  0.72970  0.27890  1.0000 -0.1798178867
N   N28       1.0  0.40580  0.77030  0.77890  1.0000 -0.1798178867
N   N29       1.0  0.98390  0.32500  0.32240  1.0000 -0.4189834125
N   N30       1.0  0.01610  0.17500  0.82240  1.0000 -0.4189834125
N   N31       1.0  0.48390  0.67500  0.17760  1.0000 -0.4189834125
N   N32       1.0  0.51610  0.82500  0.67760  1.0000 -0.4189834125
N   N33       1.0  0.94610  0.28620  0.36780  1.0000 -0.4107493251
N   N34       1.0  0.05390  0.21380  0.86780  1.0000 -0.4107493251
N   N35       1.0  0.44610  0.71380  0.13220  1.0000 -0.4107493251
N   N36       1.0  0.55390  0.78620  0.63220  1.0000 -0.4107493251
N   N37       1.0  0.98340  0.24120  0.32480  1.0000 -0.4189834125
N   N38       1.0  0.01660  0.25880  0.82480  1.0000 -0.4189834125
N   N39       1.0  0.48340  0.75880  0.17520  1.0000 -0.4189834125
N   N40       1.0  0.51660  0.74120  0.67520  1.0000 -0.4189834125
N   N41       1.0  0.91130  0.45660  0.39480  1.0000 -0.1798178867
N   N42       1.0  0.08870  0.04340  0.89480  1.0000 -0.1798178867
N   N43       1.0  0.41130  0.54340  0.10520  1.0000 -0.1798178867
N   N44       1.0  0.58870  0.95660  0.60520  1.0000 -0.1798178867
N   N45       1.0  0.90450  0.11550  0.39890  1.0000 -0.1798178867
N   N46       1.0  0.09550  0.38450  0.89890  1.0000 -0.1798178867
N   N47       1.0  0.40450  0.88450  0.10110  1.0000 -0.1798178867
N   N48       1.0  0.59550  0.61550  0.60110  1.0000 -0.1798178867
N   N49       1.0  0.08370  0.94330  0.54130  1.0000 -0.1798178867
N   N50       1.0  0.91630  0.55670  0.04130  1.0000 -0.1853214032
N   N51       1.0  0.58370  0.05670  0.95870  1.0000 -0.1798178867
N   N52       1.0  0.41630  0.44330  0.45870  1.0000 -0.1798178867
N   N53       1.0  0.84370  0.91840  0.45970  1.0000 -0.3869539588
N   N54       1.0  0.15630  0.58160  0.95970  1.0000 -0.3869539588
N   N55       1.0  0.34370  0.08160  0.04030  1.0000 -0.3869539588
N   N56       1.0  0.65630  0.41840  0.54030  1.0000 -0.3869539588
N   N57       1.0  0.84120  0.87490  0.41330  1.0000 -0.3742292016
N   N58       1.0  0.15880  0.62510  0.91330  1.0000 -0.3742292016
N   N59       1.0  0.34120  0.12510  0.08670  1.0000 -0.3742292016
N   N60       1.0  0.65880  0.37490  0.58670  1.0000 -0.3742292016
N   N61       1.0  0.98590  0.88100  0.44100  1.0000 -0.401143936
N   N62       1.0  0.01410  0.61900  0.94100  1.0000 -0.401143936
N   N63       1.0  0.48590  0.11900  0.05900  1.0000 -0.401143936
N   N64       1.0  0.51410  0.38100  0.55900  1.0000 -0.401143936
N   N65       1.0  0.51000  0.94890  0.42140  1.0000 -0.1709657359
N   N66       1.0  0.49000  0.55110  0.92140  1.0000 -0.1709657359
N   N67       1.0  0.01000  0.05110  0.07860  1.0000 -0.1709657359
N   N68       1.0  0.99000  0.44890  0.57860  1.0000 -0.1709657359
N   N69       1.0  0.09120  0.80000  0.34860  1.0000 -0.1798178867
N   N70       1.0  0.90880  0.70000  0.84860  1.0000 -0.1798178867
N   N71       1.0  0.59120  0.20000  0.15140  1.0000 -0.1798178867
N   N72       1.0  0.40880  0.30000  0.65140  1.0000 -0.1798178867
N   N73       1.0  0.90580  0.72970  0.77890  1.0000 -0.1798178867
N   N74       1.0  0.09420  0.77030  0.27890  1.0000 -0.1798178867
N   N75       1.0  0.40580  0.27030  0.72110  1.0000 -0.1798178867
N   N76       1.0  0.59420  0.22970  0.22110  1.0000 -0.1798178867
N   N77       1.0  0.01610  0.67500  0.67760  1.0000 -0.4189834125
N   N78       1.0  0.98390  0.82500  0.17760  1.0000 -0.4189834125
N   N79       1.0  0.51610  0.32500  0.82240  1.0000 -0.4189834125
N   N80       1.0  0.48390  0.17500  0.32240  1.0000 -0.4189834125
N   N81       1.0  0.05390  0.71380  0.63220  1.0000 -0.4107493251
N   N82       1.0  0.94610  0.78620  0.13220  1.0000 -0.4107493251
N   N83       1.0  0.55390  0.28620  0.86780  1.0000 -0.4107493251
N   N84       1.0  0.44610  0.21380  0.36780  1.0000 -0.4107493251
N   N85       1.0  0.01660  0.75880  0.67520  1.0000 -0.4189834125
N   N86       1.0  0.98340  0.74120  0.17520  1.0000 -0.4189834125
N   N87       1.0  0.51660  0.24120  0.82480  1.0000 -0.4189834125
N   N88       1.0  0.48340  0.25880  0.32480  1.0000 -0.4189834125
N   N89       1.0  0.08870  0.54340  0.60520  1.0000 -0.1798178867
N   N90       1.0  0.91130  0.95660  0.10520  1.0000 -0.1798178867
N   N91       1.0  0.58870  0.45660  0.89480  1.0000 -0.1798178867
N   N92       1.0  0.41130  0.04340  0.39480  1.0000 -0.1798178867
N   N93       1.0  0.09550  0.88450  0.60110  1.0000 -0.1798178867
N   N94       1.0  0.90450  0.61550  0.10110  1.0000 -0.1798178867
N   N95       1.0  0.59550  0.11550  0.89890  1.0000 -0.1798178867
N   N96       1.0  0.40450  0.38450  0.39890  1.0000 -0.1798178867
