# DDEC6 charges by PACMAN v1.1 (https://github.com/mtap-research/PACMAN-charge/)
data_2005[La][nan]3[ASR]1
_chemical_formula_sum              "La2 H18 C24 O12"
_cell_length_a       8.618
_cell_length_b       11.028
_cell_length_c       11.126
_cell_angle_alpha    64.06
_cell_angle_beta     80.57
_cell_angle_gamma    73.21

_symmetry_space_group_name_H-M    "P 1"
_symmetry_Int_Tables_number       1

loop_
  _symmetry_equiv_pos_as_xyz
  'x, y, z'

loop_
  _atom_site_type_symbol
  _atom_site_label
  _atom_site_symmetry_multiplicity
  _atom_site_fract_x
  _atom_site_fract_y
  _atom_site_fract_z
  _atom_site_occupancy
  _atom_site_charge
La  La1       1.0  0.24652  0.50634  0.00142  1.0000 1.8570823677
La  La2       1.0  0.75348  0.49366  0.99858  1.0000 1.8570823677
H   H1        1.0  0.25410  0.44760  0.52590  1.0000 0.1218498153
H   H2        1.0  0.74590  0.55240  0.47410  1.0000 0.1218498153
H   H3        1.0  0.59480  0.11060  0.51610  1.0000 0.1218498153
H   H4        1.0  0.40520  0.88940  0.48390  1.0000 0.1218498153
H   H5        1.0  0.25960  0.06550  0.82200  1.0000 0.12986108
H   H6        1.0  0.74040  0.93450  0.17800  1.0000 0.12986108
H   H7        1.0  0.01230  0.39960  0.68960  1.0000 0.1429765084
H   H8        1.0  0.98770  0.60040  0.31040  1.0000 0.1429765084
H   H9        1.0  0.03740  0.25510  0.81920  1.0000 0.1537819737
H   H10       1.0  0.96260  0.74490  0.18080  1.0000 0.1537819737
H   H11       1.0  0.62290  0.33160  0.36160  1.0000 0.1429765084
H   H12       1.0  0.37710  0.66840  0.63840  1.0000 0.1429765084
H   H13       1.0  0.51790  0.46750  0.38150  1.0000 0.1537819737
H   H14       1.0  0.48210  0.53250  0.61850  1.0000 0.1537819737
H   H15       1.0  0.56100  0.87880  0.66990  1.0000 0.1218498153
H   H16       1.0  0.43900  0.12120  0.33010  1.0000 0.1218498153
H   H17       1.0  0.43020  0.86060  0.79220  1.0000 0.1218498153
H   H18       1.0  0.56980  0.13940  0.20780  1.0000 0.1218498153
C   C1        1.0  0.23390  0.26500  0.68490  1.0000 0.1792505242
C   C2        1.0  0.76610  0.73500  0.31510  1.0000 0.1792505242
C   C3        1.0  0.30110  0.35030  0.56480  1.0000 -0.2334674775
C   C4        1.0  0.69890  0.64970  0.43520  1.0000 -0.2334674775
C   C5        1.0  0.43610  0.29300  0.50260  1.0000 0.1703891688
C   C6        1.0  0.56390  0.70700  0.49740  1.0000 0.1703891688
C   C7        1.0  0.50330  0.15000  0.55940  1.0000 -0.2334674775
C   C8        1.0  0.49670  0.85000  0.44060  1.0000 -0.2334674775
C   C9        1.0  0.43800  0.06360  0.67940  1.0000 0.1703891688
C   C10       1.0  0.56200  0.93640  0.32060  1.0000 0.1703891688
C   C11       1.0  0.30440  0.12320  0.74020  1.0000 -0.2193132184
C   C12       1.0  0.69560  0.87680  0.25980  1.0000 -0.2193132184
C   C13       1.0  0.09170  0.32850  0.75630  1.0000 -0.3915582172
C   C14       1.0  0.90830  0.67150  0.24370  1.0000 -0.3915582172
C   C15       1.0  0.14040  0.39520  0.83270  1.0000 0.6744297751
C   C16       1.0  0.85960  0.60480  0.16730  1.0000 0.6744297751
C   C17       1.0  0.51100  0.38310  0.37380  1.0000 -0.3915582172
C   C18       1.0  0.48900  0.61690  0.62620  1.0000 -0.3962188057
C   C19       1.0  0.41830  0.42740  0.25050  1.0000 0.6580201097
C   C20       1.0  0.58170  0.57260  0.74950  1.0000 0.6580201097
C   C21       1.0  0.51550  0.91010  0.74210  1.0000 -0.3915582172
C   C22       1.0  0.48450  0.08990  0.25790  1.0000 -0.3915582172
C   C23       1.0  0.65000  0.86780  0.83690  1.0000 0.6580201097
C   C24       1.0  0.35000  0.13220  0.16310  1.0000 0.6580201097
O   O1        1.0  0.28080  0.40900  0.82300  1.0000 -0.568562939
O   O2        1.0  0.71920  0.59100  0.17700  1.0000 -0.568562939
O   O3        1.0  0.03190  0.43780  0.90870  1.0000 -0.6975178114
O   O4        1.0  0.96810  0.56220  0.09130  1.0000 -0.6975178114
O   O5        1.0  0.49780  0.45160  0.13710  1.0000 -0.7117365591
O   O6        1.0  0.50220  0.54840  0.86290  1.0000 -0.7117365591
O   O7        1.0  0.26880  0.44210  0.25640  1.0000 -0.568562939
O   O8        1.0  0.73120  0.55790  0.74360  1.0000 -0.568562939
O   O9        1.0  0.72220  0.74020  0.88190  1.0000 -0.6653860203
O   O10       1.0  0.27780  0.25980  0.11810  1.0000 -0.6644362799
O   O11       1.0  0.68340  0.95420  0.86390  1.0000 -0.503814011
O   O12       1.0  0.31660  0.04580  0.13610  1.0000 -0.503814011
