# DDEC6 charges by PACMAN v1.1 (https://github.com/mtap-research/PACMAN-charge/)
data_2005[Zn][srs]3[ASR]3
_chemical_formula_sum              "Zn24 H192 C288 I48 N96"
_cell_length_a       13.7117
_cell_length_b       27.865
_cell_length_c       45.65
_cell_angle_alpha    90
_cell_angle_beta     90
_cell_angle_gamma    90

_symmetry_space_group_name_H-M    "P 1"
_symmetry_Int_Tables_number       1

loop_
  _symmetry_equiv_pos_as_xyz
  'x, y, z'

loop_
  _atom_site_type_symbol
  _atom_site_label
  _atom_site_symmetry_multiplicity
  _atom_site_fract_x
  _atom_site_fract_y
  _atom_site_fract_z
  _atom_site_occupancy
  _atom_site_charge
Zn  Zn1       1.0  0.83735  0.05678  0.42711  1.0000 0.4506615323
Zn  Zn2       1.0  0.16265  0.44322  0.92711  1.0000 0.4506615323
Zn  Zn3       1.0  0.33735  0.94322  0.07289  1.0000 0.4506615323
Zn  Zn4       1.0  0.66265  0.55678  0.57289  1.0000 0.4506615323
Zn  Zn5       1.0  0.85001  0.24251  0.68755  1.0000 0.4678103251
Zn  Zn6       1.0  0.14999  0.25749  0.18755  1.0000 0.4678103251
Zn  Zn7       1.0  0.35001  0.75749  0.81245  1.0000 0.4678103251
Zn  Zn8       1.0  0.64999  0.74251  0.31245  1.0000 0.4678103251
Zn  Zn9       1.0  0.64309  0.02628  0.58570  1.0000 0.4607287606
Zn  Zn10      1.0  0.35691  0.47372  0.08570  1.0000 0.4607287606
Zn  Zn11      1.0  0.14309  0.97372  0.91430  1.0000 0.4607287606
Zn  Zn12      1.0  0.85691  0.52628  0.41430  1.0000 0.4607287606
Zn  Zn13      1.0  0.16265  0.94322  0.57289  1.0000 0.4506615323
Zn  Zn14      1.0  0.83735  0.55678  0.07289  1.0000 0.4506615323
Zn  Zn15      1.0  0.66265  0.05678  0.92711  1.0000 0.4506615323
Zn  Zn16      1.0  0.33735  0.44322  0.42711  1.0000 0.4506615323
Zn  Zn17      1.0  0.14999  0.75749  0.31245  1.0000 0.4678103251
Zn  Zn18      1.0  0.85001  0.74251  0.81245  1.0000 0.4678103251
Zn  Zn19      1.0  0.64999  0.24251  0.18755  1.0000 0.4678103251
Zn  Zn20      1.0  0.35001  0.25749  0.68755  1.0000 0.4678103251
Zn  Zn21      1.0  0.35691  0.97372  0.41430  1.0000 0.4607287606
Zn  Zn22      1.0  0.64309  0.52628  0.91430  1.0000 0.4607287606
Zn  Zn23      1.0  0.85691  0.02628  0.08570  1.0000 0.4607287606
Zn  Zn24      1.0  0.14309  0.47372  0.58570  1.0000 0.4607287606
H   H1        1.0  0.03440  0.03760  0.45310  1.0000 0.1090312155
H   H2        1.0  0.96560  0.46240  0.95310  1.0000 0.1090312155
H   H3        1.0  0.53440  0.96240  0.04690  1.0000 0.1090312155
H   H4        1.0  0.46560  0.53760  0.54690  1.0000 0.1090312155
H   H5        1.0  0.12760  0.05650  0.49380  1.0000 0.1363652339
H   H6        1.0  0.87240  0.44350  0.99380  1.0000 0.1363652339
H   H7        1.0  0.62760  0.94350  0.00620  1.0000 0.1363652339
H   H8        1.0  0.37240  0.55650  0.50620  1.0000 0.1363652339
H   H9        1.0  0.89250  0.12370  0.52750  1.0000 0.1363652339
H   H10       1.0  0.10750  0.37630  0.02750  1.0000 0.1363652339
H   H11       1.0  0.39250  0.87630  0.97250  1.0000 0.1363652339
H   H12       1.0  0.60750  0.62370  0.47250  1.0000 0.1363652339
H   H13       1.0  0.80430  0.10070  0.48650  1.0000 0.1019350256
H   H14       1.0  0.19570  0.39930  0.98650  1.0000 0.1019350256
H   H15       1.0  0.30430  0.89930  0.01350  1.0000 0.1019350256
H   H16       1.0  0.69570  0.60070  0.51350  1.0000 0.1019350256
H   H17       1.0  0.33430  0.06090  0.53030  1.0000 0.1363652339
H   H18       1.0  0.66570  0.43910  0.03030  1.0000 0.1322363351
H   H19       1.0  0.83430  0.93910  0.96970  1.0000 0.1363652339
H   H20       1.0  0.16570  0.56090  0.46970  1.0000 0.1363652339
H   H21       1.0  0.49320  0.03260  0.53810  1.0000 0.1090312155
H   H22       1.0  0.50680  0.46740  0.03810  1.0000 0.1090312155
H   H23       1.0  0.99320  0.96740  0.96190  1.0000 0.1090312155
H   H24       1.0  0.00680  0.53260  0.46190  1.0000 0.1090312155
H   H25       1.0  0.49660  0.08660  0.61740  1.0000 0.1090312155
H   H26       1.0  0.50340  0.41340  0.11740  1.0000 0.1090312155
H   H27       1.0  0.99660  0.91340  0.88260  1.0000 0.1090312155
H   H28       1.0  0.00340  0.58660  0.38260  1.0000 0.1090312155
H   H29       1.0  0.33990  0.11770  0.61170  1.0000 0.1322363351
H   H30       1.0  0.66010  0.38230  0.11170  1.0000 0.1322363351
H   H31       1.0  0.83990  0.88230  0.88830  1.0000 0.1322363351
H   H32       1.0  0.16010  0.61770  0.38830  1.0000 0.1322363351
H   H33       1.0  0.14830  0.18590  0.63440  1.0000 0.1363652339
H   H34       1.0  0.85170  0.31410  0.13440  1.0000 0.1363652339
H   H35       1.0  0.64830  0.81410  0.86560  1.0000 0.1363652339
H   H36       1.0  0.35170  0.68590  0.36560  1.0000 0.1363652339
H   H37       1.0  0.06270  0.22010  0.67200  1.0000 0.1090312155
H   H38       1.0  0.93730  0.27990  0.17200  1.0000 0.1090312155
H   H39       1.0  0.56270  0.77990  0.82800  1.0000 0.1090312155
H   H40       1.0  0.43730  0.72010  0.32800  1.0000 0.1090312155
H   H41       1.0  0.81330  0.18300  0.63590  1.0000 0.1090312155
H   H42       1.0  0.18670  0.31700  0.13590  1.0000 0.1090312155
H   H43       1.0  0.31330  0.81700  0.86410  1.0000 0.1090312155
H   H44       1.0  0.68670  0.68300  0.36410  1.0000 0.1090312155
H   H45       1.0  0.89670  0.14820  0.59650  1.0000 0.1322363351
H   H46       1.0  0.10330  0.35180  0.09650  1.0000 0.1322363351
H   H47       1.0  0.39670  0.85180  0.90350  1.0000 0.1322363351
H   H48       1.0  0.60330  0.64820  0.40350  1.0000 0.1322363351
H   H49       1.0  0.07930  0.33600  0.22630  1.0000 0.1090312155
H   H50       1.0  0.92070  0.16400  0.72630  1.0000 0.1090312155
H   H51       1.0  0.57930  0.66400  0.27370  1.0000 0.1090312155
H   H52       1.0  0.42070  0.83600  0.77370  1.0000 0.1090312155
H   H53       1.0  0.02230  0.34760  0.27370  1.0000 0.1363652339
H   H54       1.0  0.97770  0.15240  0.77370  1.0000 0.1363652339
H   H55       1.0  0.52230  0.65240  0.22630  1.0000 0.1363652339
H   H56       1.0  0.47770  0.84760  0.72630  1.0000 0.1363652339
H   H57       1.0  0.98490  0.20460  0.27980  1.0000 0.1322363351
H   H58       1.0  0.01510  0.29540  0.77980  1.0000 0.1322363351
H   H59       1.0  0.48490  0.79540  0.22020  1.0000 0.1322363351
H   H60       1.0  0.51510  0.70460  0.72020  1.0000 0.1322363351
H   H61       1.0  0.04340  0.19690  0.23170  1.0000 0.1090312155
H   H62       1.0  0.95660  0.30310  0.73170  1.0000 0.1090312155
H   H63       1.0  0.54340  0.80310  0.26830  1.0000 0.1090312155
H   H64       1.0  0.45660  0.69690  0.76830  1.0000 0.1090312155
H   H65       1.0  0.94380  0.41520  0.33120  1.0000 0.1322363351
H   H66       1.0  0.05620  0.08480  0.83120  1.0000 0.1322363351
H   H67       1.0  0.44380  0.58480  0.16880  1.0000 0.1322363351
H   H68       1.0  0.55620  0.91520  0.66880  1.0000 0.1322363351
H   H69       1.0  0.91730  0.48800  0.35530  1.0000 0.1019350256
H   H70       1.0  0.08270  0.01200  0.85530  1.0000 0.1019350256
H   H71       1.0  0.41730  0.51200  0.14470  1.0000 0.1019350256
H   H72       1.0  0.58270  0.98800  0.64470  1.0000 0.1019350256
H   H73       1.0  0.87520  0.42250  0.43020  1.0000 0.1090312155
H   H74       1.0  0.12480  0.07750  0.93020  1.0000 0.1090312155
H   H75       1.0  0.37520  0.57750  0.06980  1.0000 0.1090312155
H   H76       1.0  0.62480  0.92250  0.56980  1.0000 0.1090312155
H   H77       1.0  0.89940  0.34780  0.40860  1.0000 0.1322363351
H   H78       1.0  0.10060  0.15220  0.90860  1.0000 0.1322363351
H   H79       1.0  0.39940  0.65220  0.09140  1.0000 0.1322363351
H   H80       1.0  0.60060  0.84780  0.59140  1.0000 0.1322363351
H   H81       1.0  0.87760  0.23410  0.41210  1.0000 0.1363652339
H   H82       1.0  0.12240  0.26590  0.91210  1.0000 0.1363652339
H   H83       1.0  0.37760  0.76590  0.08790  1.0000 0.1363652339
H   H84       1.0  0.62240  0.73410  0.58790  1.0000 0.1363652339
H   H85       1.0  0.84470  0.16300  0.43660  1.0000 0.1019350256
H   H86       1.0  0.15530  0.33700  0.93660  1.0000 0.1019350256
H   H87       1.0  0.34470  0.83700  0.06340  1.0000 0.1019350256
H   H88       1.0  0.65530  0.66300  0.56340  1.0000 0.1019350256
H   H89       1.0  0.92390  0.08580  0.36890  1.0000 0.1019350256
H   H90       1.0  0.07610  0.41420  0.86890  1.0000 0.1019350256
H   H91       1.0  0.42390  0.91420  0.13110  1.0000 0.1019350256
H   H92       1.0  0.57610  0.58580  0.63110  1.0000 0.1019350256
H   H93       1.0  0.95070  0.15360  0.34090  1.0000 0.1322363351
H   H94       1.0  0.04930  0.34640  0.84090  1.0000 0.1322363351
H   H95       1.0  0.45070  0.84640  0.15910  1.0000 0.1322363351
H   H96       1.0  0.54930  0.65360  0.65910  1.0000 0.1322363351
H   H97       1.0  0.96560  0.96240  0.54690  1.0000 0.1090312155
H   H98       1.0  0.03440  0.53760  0.04690  1.0000 0.1090312155
H   H99       1.0  0.46560  0.03760  0.95310  1.0000 0.1090312155
H   H100      1.0  0.53440  0.46240  0.45310  1.0000 0.1090312155
H   H101      1.0  0.87240  0.94350  0.50620  1.0000 0.1363652339
H   H102      1.0  0.12760  0.55650  0.00620  1.0000 0.1363652339
H   H103      1.0  0.37240  0.05650  0.99380  1.0000 0.1322363351
H   H104      1.0  0.62760  0.44350  0.49380  1.0000 0.1363652339
H   H105      1.0  0.10750  0.87630  0.47250  1.0000 0.1363652339
H   H106      1.0  0.89250  0.62370  0.97250  1.0000 0.1363652339
H   H107      1.0  0.60750  0.12370  0.02750  1.0000 0.1363652339
H   H108      1.0  0.39250  0.37630  0.52750  1.0000 0.1363652339
H   H109      1.0  0.19570  0.89930  0.51350  1.0000 0.1019350256
H   H110      1.0  0.80430  0.60070  0.01350  1.0000 0.1019350256
H   H111      1.0  0.69570  0.10070  0.98650  1.0000 0.1019350256
H   H112      1.0  0.30430  0.39930  0.48650  1.0000 0.1019350256
H   H113      1.0  0.66570  0.93910  0.46970  1.0000 0.1363652339
H   H114      1.0  0.33430  0.56090  0.96970  1.0000 0.1363652339
H   H115      1.0  0.16570  0.06090  0.03030  1.0000 0.1363652339
H   H116      1.0  0.83430  0.43910  0.53030  1.0000 0.1322363351
H   H117      1.0  0.50680  0.96740  0.46190  1.0000 0.1090312155
H   H118      1.0  0.49320  0.53260  0.96190  1.0000 0.1090312155
H   H119      1.0  0.00680  0.03260  0.03810  1.0000 0.1090312155
H   H120      1.0  0.99320  0.46740  0.53810  1.0000 0.1090312155
H   H121      1.0  0.50340  0.91340  0.38260  1.0000 0.1090312155
H   H122      1.0  0.49660  0.58660  0.88260  1.0000 0.1090312155
H   H123      1.0  0.00340  0.08660  0.11740  1.0000 0.1090312155
H   H124      1.0  0.99660  0.41340  0.61740  1.0000 0.1090312155
H   H125      1.0  0.66010  0.88230  0.38830  1.0000 0.1322363351
H   H126      1.0  0.33990  0.61770  0.88830  1.0000 0.1322363351
H   H127      1.0  0.16010  0.11770  0.11170  1.0000 0.1322363351
H   H128      1.0  0.83990  0.38230  0.61170  1.0000 0.1322363351
H   H129      1.0  0.85170  0.81410  0.36560  1.0000 0.1363652339
H   H130      1.0  0.14830  0.68590  0.86560  1.0000 0.1363652339
H   H131      1.0  0.35170  0.18590  0.13440  1.0000 0.1363652339
H   H132      1.0  0.64830  0.31410  0.63440  1.0000 0.1363652339
H   H133      1.0  0.93730  0.77990  0.32800  1.0000 0.1090312155
H   H134      1.0  0.06270  0.72010  0.82800  1.0000 0.1090312155
H   H135      1.0  0.43730  0.22010  0.17200  1.0000 0.1090312155
H   H136      1.0  0.56270  0.27990  0.67200  1.0000 0.1090312155
H   H137      1.0  0.18670  0.81700  0.36410  1.0000 0.1090312155
H   H138      1.0  0.81330  0.68300  0.86410  1.0000 0.1090312155
H   H139      1.0  0.68670  0.18300  0.13590  1.0000 0.1090312155
H   H140      1.0  0.31330  0.31700  0.63590  1.0000 0.1090312155
H   H141      1.0  0.10330  0.85180  0.40350  1.0000 0.1322363351
H   H142      1.0  0.89670  0.64820  0.90350  1.0000 0.1322363351
H   H143      1.0  0.60330  0.14820  0.09650  1.0000 0.1322363351
H   H144      1.0  0.39670  0.35180  0.59650  1.0000 0.1322363351
H   H145      1.0  0.92070  0.66400  0.77370  1.0000 0.1090312155
H   H146      1.0  0.07930  0.83600  0.27370  1.0000 0.1090312155
H   H147      1.0  0.42070  0.33600  0.72630  1.0000 0.1090312155
H   H148      1.0  0.57930  0.16400  0.22630  1.0000 0.1090312155
H   H149      1.0  0.97770  0.65240  0.72630  1.0000 0.1363652339
H   H150      1.0  0.02230  0.84760  0.22630  1.0000 0.1363652339
H   H151      1.0  0.47770  0.34760  0.77370  1.0000 0.1363652339
H   H152      1.0  0.52230  0.15240  0.27370  1.0000 0.1363652339
H   H153      1.0  0.01510  0.79540  0.72020  1.0000 0.1322363351
H   H154      1.0  0.98490  0.70460  0.22020  1.0000 0.1322363351
H   H155      1.0  0.51510  0.20460  0.77980  1.0000 0.1322363351
H   H156      1.0  0.48490  0.29540  0.27980  1.0000 0.1322363351
H   H157      1.0  0.95660  0.80310  0.76830  1.0000 0.1090312155
H   H158      1.0  0.04340  0.69690  0.26830  1.0000 0.1090312155
H   H159      1.0  0.45660  0.19690  0.73170  1.0000 0.1090312155
H   H160      1.0  0.54340  0.30310  0.23170  1.0000 0.1090312155
H   H161      1.0  0.05620  0.58480  0.66880  1.0000 0.1322363351
H   H162      1.0  0.94380  0.91520  0.16880  1.0000 0.1322363351
H   H163      1.0  0.55620  0.41520  0.83120  1.0000 0.1322363351
H   H164      1.0  0.44380  0.08480  0.33120  1.0000 0.1322363351
H   H165      1.0  0.08270  0.51200  0.64470  1.0000 0.1019350256
H   H166      1.0  0.91730  0.98800  0.14470  1.0000 0.1019350256
H   H167      1.0  0.58270  0.48800  0.85530  1.0000 0.1019350256
H   H168      1.0  0.41730  0.01200  0.35530  1.0000 0.1019350256
H   H169      1.0  0.12480  0.57750  0.56980  1.0000 0.1090312155
H   H170      1.0  0.87520  0.92250  0.06980  1.0000 0.1090312155
H   H171      1.0  0.62480  0.42250  0.93020  1.0000 0.1090312155
H   H172      1.0  0.37520  0.07750  0.43020  1.0000 0.1090312155
H   H173      1.0  0.10060  0.65220  0.59140  1.0000 0.1322363351
H   H174      1.0  0.89940  0.84780  0.09140  1.0000 0.1322363351
H   H175      1.0  0.60060  0.34780  0.90860  1.0000 0.1322363351
H   H176      1.0  0.39940  0.15220  0.40860  1.0000 0.1322363351
H   H177      1.0  0.12240  0.76590  0.58790  1.0000 0.1363652339
H   H178      1.0  0.87760  0.73410  0.08790  1.0000 0.1363652339
H   H179      1.0  0.62240  0.23410  0.91210  1.0000 0.1363652339
H   H180      1.0  0.37760  0.26590  0.41210  1.0000 0.1363652339
H   H181      1.0  0.15530  0.83700  0.56340  1.0000 0.1019350256
H   H182      1.0  0.84470  0.66300  0.06340  1.0000 0.1019350256
H   H183      1.0  0.65530  0.16300  0.93660  1.0000 0.1019350256
H   H184      1.0  0.34470  0.33700  0.43660  1.0000 0.1019350256
H   H185      1.0  0.07610  0.91420  0.63110  1.0000 0.1019350256
H   H186      1.0  0.92390  0.58580  0.13110  1.0000 0.1019350256
H   H187      1.0  0.57610  0.08580  0.86890  1.0000 0.1019350256
H   H188      1.0  0.42390  0.41420  0.36890  1.0000 0.1019350256
H   H189      1.0  0.04930  0.84640  0.65910  1.0000 0.1322363351
H   H190      1.0  0.95070  0.65360  0.15910  1.0000 0.1322363351
H   H191      1.0  0.54930  0.15360  0.84090  1.0000 0.1322363351
H   H192      1.0  0.45070  0.34640  0.34090  1.0000 0.1322363351
C   C1        1.0  0.00510  0.05530  0.46850  1.0000 0.0780951015
C   C2        1.0  0.99490  0.44470  0.96850  1.0000 0.0780951015
C   C3        1.0  0.50510  0.94470  0.03150  1.0000 0.0780951015
C   C4        1.0  0.49490  0.55530  0.53150  1.0000 0.0780951015
C   C5        1.0  0.06170  0.06680  0.49260  1.0000 -0.141811119
C   C6        1.0  0.93830  0.43320  0.99260  1.0000 -0.141811119
C   C7        1.0  0.56170  0.93320  0.00740  1.0000 -0.141811119
C   C8        1.0  0.43830  0.56680  0.50740  1.0000 -0.141811119
C   C9        1.0  0.02050  0.09370  0.51480  1.0000 0.052183451
C   C10       1.0  0.97950  0.40630  0.01480  1.0000 0.052183451
C   C11       1.0  0.52050  0.90630  0.98520  1.0000 0.052183451
C   C12       1.0  0.47950  0.59370  0.48520  1.0000 0.052183451
C   C13       1.0  0.92340  0.10590  0.51240  1.0000 -0.141811119
C   C14       1.0  0.07660  0.39410  0.01240  1.0000 -0.141811119
C   C15       1.0  0.42340  0.89410  0.98760  1.0000 -0.141811119
C   C16       1.0  0.57660  0.60590  0.48760  1.0000 -0.141811119
C   C17       1.0  0.87120  0.09220  0.48780  1.0000 0.0780951015
C   C18       1.0  0.12880  0.40780  0.98780  1.0000 0.0780951015
C   C19       1.0  0.37120  0.90780  0.01220  1.0000 0.0780951015
C   C20       1.0  0.62880  0.59220  0.51220  1.0000 0.0780951015
C   C21       1.0  0.07790  0.10800  0.54100  1.0000 0.3791005006
C   C22       1.0  0.92210  0.39200  0.04100  1.0000 0.3791005006
C   C23       1.0  0.57790  0.89200  0.95900  1.0000 0.3791005006
C   C24       1.0  0.42210  0.60800  0.45900  1.0000 0.3791005006
C   C25       1.0  0.21790  0.10830  0.56660  1.0000 0.3791005006
C   C26       1.0  0.78210  0.39170  0.06660  1.0000 0.3861380567
C   C27       1.0  0.71790  0.89170  0.93340  1.0000 0.3861380567
C   C28       1.0  0.28210  0.60830  0.43340  1.0000 0.3791005006
C   C29       1.0  0.08320  0.14110  0.58620  1.0000 0.3791005006
C   C30       1.0  0.91680  0.35890  0.08620  1.0000 0.3791005006
C   C31       1.0  0.58320  0.85890  0.91380  1.0000 0.3791005006
C   C32       1.0  0.41680  0.64110  0.41380  1.0000 0.3791005006
C   C33       1.0  0.32220  0.09240  0.57020  1.0000 0.0613657867
C   C34       1.0  0.67780  0.40760  0.07020  1.0000 0.0613657867
C   C35       1.0  0.82220  0.90760  0.92980  1.0000 0.0613657867
C   C36       1.0  0.17780  0.59240  0.42980  1.0000 0.0613657867
C   C37       1.0  0.36670  0.06690  0.54830  1.0000 -0.1208391133
C   C38       1.0  0.63330  0.43310  0.04830  1.0000 -0.1208391133
C   C39       1.0  0.86670  0.93310  0.95170  1.0000 -0.1208391133
C   C40       1.0  0.13330  0.56690  0.45170  1.0000 -0.1208391133
C   C41       1.0  0.46120  0.04980  0.55330  1.0000 0.0896892548
C   C42       1.0  0.53880  0.45020  0.05330  1.0000 0.0896892548
C   C43       1.0  0.96120  0.95020  0.94670  1.0000 0.0896892548
C   C44       1.0  0.03880  0.54980  0.44670  1.0000 0.0896892548
C   C45       1.0  0.46320  0.08150  0.59950  1.0000 0.0896892548
C   C46       1.0  0.53680  0.41850  0.09950  1.0000 0.0896892548
C   C47       1.0  0.96320  0.91850  0.90050  1.0000 0.0896892548
C   C48       1.0  0.03680  0.58150  0.40050  1.0000 0.0896892548
C   C49       1.0  0.36990  0.10010  0.59630  1.0000 -0.1208391133
C   C50       1.0  0.63010  0.39990  0.09630  1.0000 -0.1208391133
C   C51       1.0  0.86990  0.89990  0.90370  1.0000 -0.1208391133
C   C52       1.0  0.13010  0.60010  0.40370  1.0000 -0.1208391133
C   C53       1.0  0.03130  0.16340  0.61100  1.0000 0.052183451
C   C54       1.0  0.96870  0.33660  0.11100  1.0000 0.052183451
C   C55       1.0  0.53130  0.83660  0.88900  1.0000 0.052183451
C   C56       1.0  0.46870  0.66340  0.38900  1.0000 0.052183451
C   C57       1.0  0.07900  0.18510  0.63400  1.0000 -0.1316364913
C   C58       1.0  0.92100  0.31490  0.13400  1.0000 -0.1316364913
C   C59       1.0  0.57900  0.81490  0.86600  1.0000 -0.1316364913
C   C60       1.0  0.42100  0.68510  0.36600  1.0000 -0.1316364913
C   C61       1.0  0.02780  0.20550  0.65630  1.0000 0.0738582236
C   C62       1.0  0.97220  0.29450  0.15630  1.0000 0.0738582236
C   C63       1.0  0.52780  0.79450  0.84370  1.0000 0.0738582236
C   C64       1.0  0.47220  0.70550  0.34370  1.0000 0.0738582236
C   C65       1.0  0.88250  0.18420  0.63550  1.0000 0.1019350256
C   C66       1.0  0.11750  0.31580  0.13550  1.0000 0.1019350256
C   C67       1.0  0.38250  0.81580  0.86450  1.0000 0.1019350256
C   C68       1.0  0.61750  0.68420  0.36450  1.0000 0.1019350256
C   C69       1.0  0.93250  0.16300  0.61190  1.0000 -0.1208391133
C   C70       1.0  0.06750  0.33700  0.11190  1.0000 -0.1208391133
C   C71       1.0  0.43250  0.83700  0.88810  1.0000 -0.1208391133
C   C72       1.0  0.56750  0.66300  0.38810  1.0000 -0.1208391133
C   C73       1.0  0.06160  0.30870  0.23750  1.0000 0.0896892548
C   C74       1.0  0.93840  0.19130  0.73750  1.0000 0.0896892548
C   C75       1.0  0.56160  0.69130  0.26250  1.0000 0.0896892548
C   C76       1.0  0.43840  0.80870  0.76250  1.0000 0.0896892548
C   C77       1.0  0.02740  0.31610  0.26580  1.0000 -0.165921435
C   C78       1.0  0.97260  0.18390  0.76580  1.0000 -0.165921435
C   C79       1.0  0.52740  0.68390  0.23420  1.0000 -0.165921435
C   C80       1.0  0.47260  0.81610  0.73420  1.0000 -0.165921435
C   C81       1.0  0.00130  0.27660  0.28180  1.0000 0.0613657867
C   C82       1.0  0.99870  0.22340  0.78180  1.0000 0.0613657867
C   C83       1.0  0.50130  0.72340  0.21820  1.0000 0.0613657867
C   C84       1.0  0.49870  0.77660  0.71820  1.0000 0.0613657867
C   C85       1.0  0.00560  0.23210  0.26920  1.0000 -0.141811119
C   C86       1.0  0.99440  0.26790  0.76920  1.0000 -0.141811119
C   C87       1.0  0.50560  0.76790  0.23080  1.0000 -0.141811119
C   C88       1.0  0.49440  0.73210  0.73080  1.0000 -0.141811119
C   C89       1.0  0.04070  0.22770  0.24060  1.0000 0.1019350256
C   C90       1.0  0.95930  0.27230  0.74060  1.0000 0.1019350256
C   C91       1.0  0.54070  0.77230  0.25940  1.0000 0.1019350256
C   C92       1.0  0.45930  0.72770  0.75940  1.0000 0.1019350256
C   C93       1.0  0.97030  0.28130  0.31330  1.0000 0.3861380567
C   C94       1.0  0.02970  0.21870  0.81330  1.0000 0.3861380567
C   C95       1.0  0.47030  0.71870  0.18670  1.0000 0.3861380567
C   C96       1.0  0.52970  0.78130  0.68670  1.0000 0.3861380567
C   C97       1.0  0.93580  0.32650  0.35290  1.0000 0.3861380567
C   C98       1.0  0.06420  0.17350  0.85290  1.0000 0.3861380567
C   C99       1.0  0.43580  0.67350  0.14710  1.0000 0.3861380567
C   C100      1.0  0.56420  0.82650  0.64710  1.0000 0.3861380567
C   C101      1.0  0.93290  0.24510  0.35604  1.0000 0.3745455814
C   C102      1.0  0.06710  0.25490  0.85604  1.0000 0.3745455814
C   C103      1.0  0.43290  0.75490  0.14396  1.0000 0.3745455814
C   C104      1.0  0.56710  0.74510  0.64396  1.0000 0.3745455814
C   C105      1.0  0.92350  0.37360  0.36720  1.0000 0.052183451
C   C106      1.0  0.07650  0.12640  0.86720  1.0000 0.052183451
C   C107      1.0  0.42350  0.62640  0.13280  1.0000 0.052183451
C   C108      1.0  0.57650  0.87360  0.63280  1.0000 0.052183451
C   C109      1.0  0.92920  0.41560  0.35160  1.0000 -0.1500717702
C   C110      1.0  0.07080  0.08440  0.85160  1.0000 -0.1500717702
C   C111      1.0  0.42920  0.58440  0.14840  1.0000 -0.1500717702
C   C112      1.0  0.57080  0.91560  0.64840  1.0000 -0.1500717702
C   C113      1.0  0.91330  0.45900  0.36620  1.0000 0.0896892548
C   C114      1.0  0.08670  0.04100  0.86620  1.0000 0.0896892548
C   C115      1.0  0.41330  0.54100  0.13380  1.0000 0.0896892548
C   C116      1.0  0.58670  0.95900  0.63380  1.0000 0.0896892548
C   C117      1.0  0.88860  0.42100  0.40980  1.0000 0.0896892548
C   C118      1.0  0.11140  0.07900  0.90980  1.0000 0.0896892548
C   C119      1.0  0.38860  0.57900  0.09020  1.0000 0.0896892548
C   C120      1.0  0.61140  0.92100  0.59020  1.0000 0.0896892548
C   C121      1.0  0.90320  0.37620  0.39710  1.0000 -0.1316364913
C   C122      1.0  0.09680  0.12380  0.89710  1.0000 -0.1316364913
C   C123      1.0  0.40320  0.62380  0.10290  1.0000 -0.1316364913
C   C124      1.0  0.59680  0.87620  0.60290  1.0000 -0.1316364913
C   C125      1.0  0.91610  0.20170  0.37330  1.0000 0.052183451
C   C126      1.0  0.08390  0.29830  0.87330  1.0000 0.052183451
C   C127      1.0  0.41610  0.79830  0.12670  1.0000 0.052183451
C   C128      1.0  0.58390  0.70170  0.62670  1.0000 0.052183451
C   C129      1.0  0.88540  0.20410  0.40250  1.0000 -0.1614339913
C   C130      1.0  0.11460  0.29590  0.90250  1.0000 -0.1614339913
C   C131      1.0  0.38540  0.79590  0.09750  1.0000 -0.1614339913
C   C132      1.0  0.61460  0.70410  0.59750  1.0000 -0.1614339913
C   C133      1.0  0.86700  0.16150  0.41690  1.0000 0.0896892548
C   C134      1.0  0.13300  0.33850  0.91690  1.0000 0.0896892548
C   C135      1.0  0.36700  0.83850  0.08310  1.0000 0.0896892548
C   C136      1.0  0.63300  0.66150  0.58310  1.0000 0.0896892548
C   C137      1.0  0.91190  0.11640  0.37730  1.0000 0.0896892548
C   C138      1.0  0.08810  0.38360  0.87730  1.0000 0.0896892548
C   C139      1.0  0.41190  0.88360  0.12270  1.0000 0.0896892548
C   C140      1.0  0.58810  0.61640  0.62270  1.0000 0.0896892548
C   C141      1.0  0.92960  0.15650  0.36070  1.0000 -0.1614339913
C   C142      1.0  0.07040  0.34350  0.86070  1.0000 -0.1614339913
C   C143      1.0  0.42960  0.84350  0.13930  1.0000 -0.1614339913
C   C144      1.0  0.57040  0.65650  0.63930  1.0000 -0.1614339913
C   C145      1.0  0.99490  0.94470  0.53150  1.0000 0.0780951015
C   C146      1.0  0.00510  0.55530  0.03150  1.0000 0.0780951015
C   C147      1.0  0.49490  0.05530  0.96850  1.0000 0.0780951015
C   C148      1.0  0.50510  0.44470  0.46850  1.0000 0.0780951015
C   C149      1.0  0.93830  0.93320  0.50740  1.0000 -0.141811119
C   C150      1.0  0.06170  0.56680  0.00740  1.0000 -0.141811119
C   C151      1.0  0.43830  0.06680  0.99260  1.0000 -0.141811119
C   C152      1.0  0.56170  0.43320  0.49260  1.0000 -0.141811119
C   C153      1.0  0.97950  0.90630  0.48520  1.0000 0.052183451
C   C154      1.0  0.02050  0.59370  0.98520  1.0000 0.052183451
C   C155      1.0  0.47950  0.09370  0.01480  1.0000 0.052183451
C   C156      1.0  0.52050  0.40630  0.51480  1.0000 0.052183451
C   C157      1.0  0.07660  0.89410  0.48760  1.0000 -0.141811119
C   C158      1.0  0.92340  0.60590  0.98760  1.0000 -0.141811119
C   C159      1.0  0.57660  0.10590  0.01240  1.0000 -0.141811119
C   C160      1.0  0.42340  0.39410  0.51240  1.0000 -0.141811119
C   C161      1.0  0.12880  0.90780  0.51220  1.0000 0.0780951015
C   C162      1.0  0.87120  0.59220  0.01220  1.0000 0.0780951015
C   C163      1.0  0.62880  0.09220  0.98780  1.0000 0.0780951015
C   C164      1.0  0.37120  0.40780  0.48780  1.0000 0.0780951015
C   C165      1.0  0.92210  0.89200  0.45900  1.0000 0.3791005006
C   C166      1.0  0.07790  0.60800  0.95900  1.0000 0.3791005006
C   C167      1.0  0.42210  0.10800  0.04100  1.0000 0.3791005006
C   C168      1.0  0.57790  0.39200  0.54100  1.0000 0.3791005006
C   C169      1.0  0.78210  0.89170  0.43340  1.0000 0.3861380567
C   C170      1.0  0.21790  0.60830  0.93340  1.0000 0.3791005006
C   C171      1.0  0.28210  0.10830  0.06660  1.0000 0.3791005006
C   C172      1.0  0.71790  0.39170  0.56660  1.0000 0.3861380567
C   C173      1.0  0.91680  0.85890  0.41380  1.0000 0.3791005006
C   C174      1.0  0.08320  0.64110  0.91380  1.0000 0.3791005006
C   C175      1.0  0.41680  0.14110  0.08620  1.0000 0.3791005006
C   C176      1.0  0.58320  0.35890  0.58620  1.0000 0.3791005006
C   C177      1.0  0.67780  0.90760  0.42980  1.0000 0.0613657867
C   C178      1.0  0.32220  0.59240  0.92980  1.0000 0.0613657867
C   C179      1.0  0.17780  0.09240  0.07020  1.0000 0.0613657867
C   C180      1.0  0.82220  0.40760  0.57020  1.0000 0.0613657867
C   C181      1.0  0.63330  0.93310  0.45170  1.0000 -0.1208391133
C   C182      1.0  0.36670  0.56690  0.95170  1.0000 -0.1208391133
C   C183      1.0  0.13330  0.06690  0.04830  1.0000 -0.1208391133
C   C184      1.0  0.86670  0.43310  0.54830  1.0000 -0.1208391133
C   C185      1.0  0.53880  0.95020  0.44670  1.0000 0.0896892548
C   C186      1.0  0.46120  0.54980  0.94670  1.0000 0.0896892548
C   C187      1.0  0.03880  0.04980  0.05330  1.0000 0.0896892548
C   C188      1.0  0.96120  0.45020  0.55330  1.0000 0.0896892548
C   C189      1.0  0.53680  0.91850  0.40050  1.0000 0.0896892548
C   C190      1.0  0.46320  0.58150  0.90050  1.0000 0.0896892548
C   C191      1.0  0.03680  0.08150  0.09950  1.0000 0.0896892548
C   C192      1.0  0.96320  0.41850  0.59950  1.0000 0.0896892548
C   C193      1.0  0.63010  0.89990  0.40370  1.0000 -0.1208391133
C   C194      1.0  0.36990  0.60010  0.90370  1.0000 -0.1208391133
C   C195      1.0  0.13010  0.10010  0.09630  1.0000 -0.1208391133
C   C196      1.0  0.86990  0.39990  0.59630  1.0000 -0.1208391133
C   C197      1.0  0.96870  0.83660  0.38900  1.0000 0.052183451
C   C198      1.0  0.03130  0.66340  0.88900  1.0000 0.052183451
C   C199      1.0  0.46870  0.16340  0.11100  1.0000 0.052183451
C   C200      1.0  0.53130  0.33660  0.61100  1.0000 0.052183451
C   C201      1.0  0.92100  0.81490  0.36600  1.0000 -0.1316364913
C   C202      1.0  0.07900  0.68510  0.86600  1.0000 -0.1316364913
C   C203      1.0  0.42100  0.18510  0.13400  1.0000 -0.1316364913
C   C204      1.0  0.57900  0.31490  0.63400  1.0000 -0.1316364913
C   C205      1.0  0.97220  0.79450  0.34370  1.0000 0.0738582236
C   C206      1.0  0.02780  0.70550  0.84370  1.0000 0.0738582236
C   C207      1.0  0.47220  0.20550  0.15630  1.0000 0.0738582236
C   C208      1.0  0.52780  0.29450  0.65630  1.0000 0.0738582236
C   C209      1.0  0.11750  0.81580  0.36450  1.0000 0.1019350256
C   C210      1.0  0.88250  0.68420  0.86450  1.0000 0.1019350256
C   C211      1.0  0.61750  0.18420  0.13550  1.0000 0.1019350256
C   C212      1.0  0.38250  0.31580  0.63550  1.0000 0.1019350256
C   C213      1.0  0.06750  0.83700  0.38810  1.0000 -0.1208391133
C   C214      1.0  0.93250  0.66300  0.88810  1.0000 -0.1208391133
C   C215      1.0  0.56750  0.16300  0.11190  1.0000 -0.1208391133
C   C216      1.0  0.43250  0.33700  0.61190  1.0000 -0.1208391133
C   C217      1.0  0.93840  0.69130  0.76250  1.0000 0.0896892548
C   C218      1.0  0.06160  0.80870  0.26250  1.0000 0.0896892548
C   C219      1.0  0.43840  0.30870  0.73750  1.0000 0.0896892548
C   C220      1.0  0.56160  0.19130  0.23750  1.0000 0.0896892548
C   C221      1.0  0.97260  0.68390  0.73420  1.0000 -0.165921435
C   C222      1.0  0.02740  0.81610  0.23420  1.0000 -0.165921435
C   C223      1.0  0.47260  0.31610  0.76580  1.0000 -0.165921435
C   C224      1.0  0.52740  0.18390  0.26580  1.0000 -0.165921435
C   C225      1.0  0.99870  0.72340  0.71820  1.0000 0.0613657867
C   C226      1.0  0.00130  0.77660  0.21820  1.0000 0.0613657867
C   C227      1.0  0.49870  0.27660  0.78180  1.0000 0.0613657867
C   C228      1.0  0.50130  0.22340  0.28180  1.0000 0.0613657867
C   C229      1.0  0.99440  0.76790  0.73080  1.0000 -0.141811119
C   C230      1.0  0.00560  0.73210  0.23080  1.0000 -0.141811119
C   C231      1.0  0.49440  0.23210  0.76920  1.0000 -0.141811119
C   C232      1.0  0.50560  0.26790  0.26920  1.0000 -0.141811119
C   C233      1.0  0.95930  0.77230  0.75940  1.0000 0.1019350256
C   C234      1.0  0.04070  0.72770  0.25940  1.0000 0.1019350256
C   C235      1.0  0.45930  0.22770  0.74060  1.0000 0.1019350256
C   C236      1.0  0.54070  0.27230  0.24060  1.0000 0.1019350256
C   C237      1.0  0.02970  0.71870  0.68670  1.0000 0.3861380567
C   C238      1.0  0.97030  0.78130  0.18670  1.0000 0.3861380567
C   C239      1.0  0.52970  0.28130  0.81330  1.0000 0.3861380567
C   C240      1.0  0.47030  0.21870  0.31330  1.0000 0.3861380567
C   C241      1.0  0.06420  0.67350  0.64710  1.0000 0.3861380567
C   C242      1.0  0.93580  0.82650  0.14710  1.0000 0.3861380567
C   C243      1.0  0.56420  0.32650  0.85290  1.0000 0.3861380567
C   C244      1.0  0.43580  0.17350  0.35290  1.0000 0.3861380567
C   C245      1.0  0.06710  0.75490  0.64396  1.0000 0.3745455814
C   C246      1.0  0.93290  0.74510  0.14396  1.0000 0.3745455814
C   C247      1.0  0.56710  0.24510  0.85604  1.0000 0.3745455814
C   C248      1.0  0.43290  0.25490  0.35604  1.0000 0.3745455814
C   C249      1.0  0.07650  0.62640  0.63280  1.0000 0.052183451
C   C250      1.0  0.92350  0.87360  0.13280  1.0000 0.052183451
C   C251      1.0  0.57650  0.37360  0.86720  1.0000 0.052183451
C   C252      1.0  0.42350  0.12640  0.36720  1.0000 0.052183451
C   C253      1.0  0.07080  0.58440  0.64840  1.0000 -0.1500717702
C   C254      1.0  0.92920  0.91560  0.14840  1.0000 -0.1500717702
C   C255      1.0  0.57080  0.41560  0.85160  1.0000 -0.1500717702
C   C256      1.0  0.42920  0.08440  0.35160  1.0000 -0.1500717702
C   C257      1.0  0.08670  0.54100  0.63380  1.0000 0.0896892548
C   C258      1.0  0.91330  0.95900  0.13380  1.0000 0.0896892548
C   C259      1.0  0.58670  0.45900  0.86620  1.0000 0.0896892548
C   C260      1.0  0.41330  0.04100  0.36620  1.0000 0.0896892548
C   C261      1.0  0.11140  0.57900  0.59020  1.0000 0.0896892548
C   C262      1.0  0.88860  0.92100  0.09020  1.0000 0.0896892548
C   C263      1.0  0.61140  0.42100  0.90980  1.0000 0.0896892548
C   C264      1.0  0.38860  0.07900  0.40980  1.0000 0.0896892548
C   C265      1.0  0.09680  0.62380  0.60290  1.0000 -0.1316364913
C   C266      1.0  0.90320  0.87620  0.10290  1.0000 -0.1316364913
C   C267      1.0  0.59680  0.37620  0.89710  1.0000 -0.1316364913
C   C268      1.0  0.40320  0.12380  0.39710  1.0000 -0.1316364913
C   C269      1.0  0.08390  0.79830  0.62670  1.0000 0.052183451
C   C270      1.0  0.91610  0.70170  0.12670  1.0000 0.052183451
C   C271      1.0  0.58390  0.20170  0.87330  1.0000 0.052183451
C   C272      1.0  0.41610  0.29830  0.37330  1.0000 0.052183451
C   C273      1.0  0.11460  0.79590  0.59750  1.0000 -0.1614339913
C   C274      1.0  0.88540  0.70410  0.09750  1.0000 -0.1614339913
C   C275      1.0  0.61460  0.20410  0.90250  1.0000 -0.1614339913
C   C276      1.0  0.38540  0.29590  0.40250  1.0000 -0.1614339913
C   C277      1.0  0.13300  0.83850  0.58310  1.0000 0.0896892548
C   C278      1.0  0.86700  0.66150  0.08310  1.0000 0.0896892548
C   C279      1.0  0.63300  0.16150  0.91690  1.0000 0.0896892548
C   C280      1.0  0.36700  0.33850  0.41690  1.0000 0.0896892548
C   C281      1.0  0.08810  0.88360  0.62270  1.0000 0.0896892548
C   C282      1.0  0.91190  0.61640  0.12270  1.0000 0.0896892548
C   C283      1.0  0.58810  0.11640  0.87730  1.0000 0.0896892548
C   C284      1.0  0.41190  0.38360  0.37730  1.0000 0.0896892548
C   C285      1.0  0.07040  0.84350  0.63930  1.0000 -0.1614339913
C   C286      1.0  0.92960  0.65650  0.13930  1.0000 -0.1614339913
C   C287      1.0  0.57040  0.15650  0.86070  1.0000 -0.1614339913
C   C288      1.0  0.42960  0.34350  0.36070  1.0000 -0.1614339913
I   I1        1.0  0.91799  0.98845  0.39974  1.0000 -0.4325342031
I   I2        1.0  0.08201  0.51155  0.89974  1.0000 -0.4325342031
I   I3        1.0  0.41799  0.01155  0.10026  1.0000 -0.4325342031
I   I4        1.0  0.58201  0.48845  0.60026  1.0000 -0.4325342031
I   I5        1.0  0.65610  0.07129  0.43622  1.0000 -0.4714631875
I   I6        1.0  0.34390  0.42871  0.93622  1.0000 -0.4714631875
I   I7        1.0  0.15610  0.92871  0.06378  1.0000 -0.4714631875
I   I8        1.0  0.84390  0.57129  0.56378  1.0000 -0.4714631875
I   I9        1.0  0.69184  0.19586  0.69551  1.0000 -0.4714631875
I   I10       1.0  0.30816  0.30414  0.19551  1.0000 -0.4714631875
I   I11       1.0  0.19184  0.80414  0.80449  1.0000 -0.4714631875
I   I12       1.0  0.80816  0.69586  0.30449  1.0000 -0.4714631875
I   I13       1.0  0.84346  0.33090  0.67392  1.0000 -0.4607422391
I   I14       1.0  0.15654  0.16910  0.17392  1.0000 -0.4607422391
I   I15       1.0  0.34346  0.66910  0.82608  1.0000 -0.4607422391
I   I16       1.0  0.65654  0.83090  0.32608  1.0000 -0.4607422391
I   I17       1.0  0.72880  0.07341  0.62593  1.0000 -0.4504463191
I   I18       1.0  0.27120  0.42659  0.12593  1.0000 -0.4504463191
I   I19       1.0  0.22880  0.92659  0.87407  1.0000 -0.4504463191
I   I20       1.0  0.77120  0.57341  0.37407  1.0000 -0.4504463191
I   I21       1.0  0.71916  0.00899  0.53577  1.0000 -0.4714631875
I   I22       1.0  0.28084  0.49101  0.03577  1.0000 -0.4714631875
I   I23       1.0  0.21916  0.99101  0.96423  1.0000 -0.4714631875
I   I24       1.0  0.78084  0.50899  0.46423  1.0000 -0.4714631875
I   I25       1.0  0.08201  0.01155  0.60026  1.0000 -0.4325342031
I   I26       1.0  0.91799  0.48845  0.10026  1.0000 -0.4325342031
I   I27       1.0  0.58201  0.98845  0.89974  1.0000 -0.4325342031
I   I28       1.0  0.41799  0.51155  0.39974  1.0000 -0.4325342031
I   I29       1.0  0.34390  0.92871  0.56378  1.0000 -0.4714631875
I   I30       1.0  0.65610  0.57129  0.06378  1.0000 -0.4714631875
I   I31       1.0  0.84390  0.07129  0.93622  1.0000 -0.4714631875
I   I32       1.0  0.15610  0.42871  0.43622  1.0000 -0.4714631875
I   I33       1.0  0.30816  0.80414  0.30449  1.0000 -0.4714631875
I   I34       1.0  0.69184  0.69586  0.80449  1.0000 -0.4714631875
I   I35       1.0  0.80816  0.19586  0.19551  1.0000 -0.4714631875
I   I36       1.0  0.19184  0.30414  0.69551  1.0000 -0.4714631875
I   I37       1.0  0.15654  0.66910  0.32608  1.0000 -0.4607422391
I   I38       1.0  0.84346  0.83090  0.82608  1.0000 -0.4607422391
I   I39       1.0  0.65654  0.33090  0.17392  1.0000 -0.4607422391
I   I40       1.0  0.34346  0.16910  0.67392  1.0000 -0.4607422391
I   I41       1.0  0.27120  0.92659  0.37407  1.0000 -0.4504463191
I   I42       1.0  0.72880  0.57341  0.87407  1.0000 -0.4504463191
I   I43       1.0  0.77120  0.07341  0.12593  1.0000 -0.4504463191
I   I44       1.0  0.22880  0.42659  0.62593  1.0000 -0.4504463191
I   I45       1.0  0.28084  0.99101  0.46423  1.0000 -0.4714631875
I   I46       1.0  0.71916  0.50899  0.96423  1.0000 -0.4714631875
I   I47       1.0  0.78084  0.00899  0.03577  1.0000 -0.4714631875
I   I48       1.0  0.21916  0.49101  0.53577  1.0000 -0.4714631875
N   N1        1.0  0.91140  0.06760  0.46587  1.0000 -0.1801751952
N   N2        1.0  0.08860  0.43240  0.96587  1.0000 -0.1801751952
N   N3        1.0  0.41140  0.93240  0.03413  1.0000 -0.1801751952
N   N4        1.0  0.58860  0.56760  0.53413  1.0000 -0.1801751952
N   N5        1.0  0.17190  0.09600  0.54223  1.0000 -0.3809585276
N   N6        1.0  0.82810  0.40400  0.04223  1.0000 -0.3809585276
N   N7        1.0  0.67190  0.90400  0.95777  1.0000 -0.3809585276
N   N8        1.0  0.32810  0.59600  0.45777  1.0000 -0.3809585276
N   N9        1.0  0.17870  0.13190  0.58932  1.0000 -0.3809585276
N   N10       1.0  0.82130  0.36810  0.08932  1.0000 -0.3809585276
N   N11       1.0  0.67870  0.86810  0.91068  1.0000 -0.3809585276
N   N12       1.0  0.32130  0.63190  0.41068  1.0000 -0.3809585276
N   N13       1.0  0.02960  0.13010  0.56289  1.0000 -0.3898310552
N   N14       1.0  0.97040  0.36990  0.06289  1.0000 -0.3898310552
N   N15       1.0  0.52960  0.86990  0.93711  1.0000 -0.3898310552
N   N16       1.0  0.47040  0.63010  0.43711  1.0000 -0.3898310552
N   N17       1.0  0.50790  0.05680  0.57839  1.0000 -0.1801751952
N   N18       1.0  0.49210  0.44320  0.07839  1.0000 -0.1801751952
N   N19       1.0  0.00790  0.94320  0.92161  1.0000 -0.1801751952
N   N20       1.0  0.99210  0.55680  0.42161  1.0000 -0.1801751952
N   N21       1.0  0.92910  0.20590  0.65719  1.0000 -0.1801751952
N   N22       1.0  0.07090  0.29410  0.15719  1.0000 -0.1801751952
N   N23       1.0  0.42910  0.79410  0.84281  1.0000 -0.1801751952
N   N24       1.0  0.57090  0.70590  0.34281  1.0000 -0.1801751952
N   N25       1.0  0.07090  0.26630  0.22543  1.0000 -0.1801751952
N   N26       1.0  0.92910  0.23370  0.72543  1.0000 -0.1801751952
N   N27       1.0  0.57090  0.73370  0.27457  1.0000 -0.1801751952
N   N28       1.0  0.42910  0.76630  0.77457  1.0000 -0.1801751952
N   N29       1.0  0.96060  0.32560  0.32456  1.0000 -0.4195291683
N   N30       1.0  0.03940  0.17440  0.82456  1.0000 -0.4195291683
N   N31       1.0  0.46060  0.67440  0.17544  1.0000 -0.4195291683
N   N32       1.0  0.53940  0.82560  0.67544  1.0000 -0.4195291683
N   N33       1.0  0.92090  0.28780  0.36923  1.0000 -0.4195291683
N   N34       1.0  0.07910  0.21220  0.86923  1.0000 -0.4195291683
N   N35       1.0  0.42090  0.71220  0.13077  1.0000 -0.4195291683
N   N36       1.0  0.57910  0.78780  0.63077  1.0000 -0.4195291683
N   N37       1.0  0.95750  0.24050  0.32806  1.0000 -0.4195291683
N   N38       1.0  0.04250  0.25950  0.82806  1.0000 -0.4149680624
N   N39       1.0  0.45750  0.75950  0.17194  1.0000 -0.4195291683
N   N40       1.0  0.54250  0.74050  0.67194  1.0000 -0.4149680624
N   N41       1.0  0.89250  0.46180  0.39487  1.0000 -0.1868596191
N   N42       1.0  0.10750  0.03820  0.89487  1.0000 -0.1868596191
N   N43       1.0  0.39250  0.53820  0.10513  1.0000 -0.1868596191
N   N44       1.0  0.60750  0.96180  0.60513  1.0000 -0.1868596191
N   N45       1.0  0.87860  0.11850  0.40488  1.0000 -0.1868596191
N   N46       1.0  0.12140  0.38150  0.90488  1.0000 -0.1868596191
N   N47       1.0  0.37860  0.88150  0.09512  1.0000 -0.1868596191
N   N48       1.0  0.62140  0.61850  0.59512  1.0000 -0.1868596191
N   N49       1.0  0.08860  0.93240  0.53413  1.0000 -0.1801751952
N   N50       1.0  0.91140  0.56760  0.03413  1.0000 -0.1801751952
N   N51       1.0  0.58860  0.06760  0.96587  1.0000 -0.1801751952
N   N52       1.0  0.41140  0.43240  0.46587  1.0000 -0.1801751952
N   N53       1.0  0.82810  0.90400  0.45777  1.0000 -0.3809585276
N   N54       1.0  0.17190  0.59600  0.95777  1.0000 -0.3809585276
N   N55       1.0  0.32810  0.09600  0.04223  1.0000 -0.3809585276
N   N56       1.0  0.67190  0.40400  0.54223  1.0000 -0.3809585276
N   N57       1.0  0.82130  0.86810  0.41068  1.0000 -0.3809585276
N   N58       1.0  0.17870  0.63190  0.91068  1.0000 -0.3809585276
N   N59       1.0  0.32130  0.13190  0.08932  1.0000 -0.3809585276
N   N60       1.0  0.67870  0.36810  0.58932  1.0000 -0.3809585276
N   N61       1.0  0.97040  0.86990  0.43711  1.0000 -0.3898310552
N   N62       1.0  0.02960  0.63010  0.93711  1.0000 -0.3898310552
N   N63       1.0  0.47040  0.13010  0.06289  1.0000 -0.3898310552
N   N64       1.0  0.52960  0.36990  0.56289  1.0000 -0.3898310552
N   N65       1.0  0.49210  0.94320  0.42161  1.0000 -0.1801751952
N   N66       1.0  0.50790  0.55680  0.92161  1.0000 -0.1801751952
N   N67       1.0  0.99210  0.05680  0.07839  1.0000 -0.1801751952
N   N68       1.0  0.00790  0.44320  0.57839  1.0000 -0.1801751952
N   N69       1.0  0.07090  0.79410  0.34281  1.0000 -0.1801751952
N   N70       1.0  0.92910  0.70590  0.84281  1.0000 -0.1801751952
N   N71       1.0  0.57090  0.20590  0.15719  1.0000 -0.1801751952
N   N72       1.0  0.42910  0.29410  0.65719  1.0000 -0.1801751952
N   N73       1.0  0.92910  0.73370  0.77457  1.0000 -0.1801751952
N   N74       1.0  0.07090  0.76630  0.27457  1.0000 -0.1801751952
N   N75       1.0  0.42910  0.26630  0.72543  1.0000 -0.1801751952
N   N76       1.0  0.57090  0.23370  0.22543  1.0000 -0.1801751952
N   N77       1.0  0.03940  0.67440  0.67544  1.0000 -0.4195291683
N   N78       1.0  0.96060  0.82560  0.17544  1.0000 -0.4195291683
N   N79       1.0  0.53940  0.32560  0.82456  1.0000 -0.4195291683
N   N80       1.0  0.46060  0.17440  0.32456  1.0000 -0.4195291683
N   N81       1.0  0.07910  0.71220  0.63077  1.0000 -0.4195291683
N   N82       1.0  0.92090  0.78780  0.13077  1.0000 -0.4195291683
N   N83       1.0  0.57910  0.28780  0.86923  1.0000 -0.4195291683
N   N84       1.0  0.42090  0.21220  0.36923  1.0000 -0.4195291683
N   N85       1.0  0.04250  0.75950  0.67194  1.0000 -0.4149680624
N   N86       1.0  0.95750  0.74050  0.17194  1.0000 -0.4149680624
N   N87       1.0  0.54250  0.24050  0.82806  1.0000 -0.4149680624
N   N88       1.0  0.45750  0.25950  0.32806  1.0000 -0.4195291683
N   N89       1.0  0.10750  0.53820  0.60513  1.0000 -0.1868596191
N   N90       1.0  0.89250  0.96180  0.10513  1.0000 -0.1868596191
N   N91       1.0  0.60750  0.46180  0.89487  1.0000 -0.1868596191
N   N92       1.0  0.39250  0.03820  0.39487  1.0000 -0.1868596191
N   N93       1.0  0.12140  0.88150  0.59512  1.0000 -0.1868596191
N   N94       1.0  0.87860  0.61850  0.09512  1.0000 -0.1868596191
N   N95       1.0  0.62140  0.11850  0.90488  1.0000 -0.1868596191
N   N96       1.0  0.37860  0.38150  0.40488  1.0000 -0.1868596191
