# DDEC6 charges by PACMAN v1.1 (https://github.com/mtap-research/PACMAN-charge/)
data_2005[Ag][dia]3[ASR]2
_chemical_formula_sum              "Ag12 H24 C16 N32"
_cell_length_a       19.598
_cell_length_b       19.598
_cell_length_c       3.5015
_cell_angle_alpha    90
_cell_angle_beta     90
_cell_angle_gamma    90

_symmetry_space_group_name_H-M    "P 1"
_symmetry_Int_Tables_number       1

loop_
  _symmetry_equiv_pos_as_xyz
  'x, y, z'

loop_
  _atom_site_type_symbol
  _atom_site_label
  _atom_site_symmetry_multiplicity
  _atom_site_fract_x
  _atom_site_fract_y
  _atom_site_fract_z
  _atom_site_occupancy
  _atom_site_charge
Ag  Ag1       1.0  0.46241  0.62232  0.00414  1.0000 0.2412873567
Ag  Ag2       1.0  0.53759  0.37768  0.00414  1.0000 0.2412873567
Ag  Ag3       1.0  0.62232  0.53759  0.99586  1.0000 0.2412873567
Ag  Ag4       1.0  0.37768  0.46241  0.99586  1.0000 0.2412873567
Ag  Ag5       1.0  0.96244  0.87774  0.50418  1.0000 0.2412873567
Ag  Ag6       1.0  0.03756  0.12226  0.50418  1.0000 0.2412873567
Ag  Ag7       1.0  0.12226  0.96244  0.49582  1.0000 0.2412873567
Ag  Ag8       1.0  0.87774  0.03756  0.49582  1.0000 0.2412873567
Ag  Ag9       1.0  0.17724  0.67721  0.25008  1.0000 0.2762320586
Ag  Ag10      1.0  0.82276  0.32279  0.25008  1.0000 0.2762320586
Ag  Ag11      1.0  0.67721  0.82276  0.74992  1.0000 0.2762320586
Ag  Ag12      1.0  0.32279  0.17724  0.74992  1.0000 0.2762320586
H   H1        1.0  0.37927  0.74080  0.71079  1.0000 0.2733184345
H   H2        1.0  0.30724  0.75797  0.50220  1.0000 0.2619457665
H   H3        1.0  0.23638  0.52363  0.55459  1.0000 0.0786185064
H   H4        1.0  0.62073  0.25920  0.71079  1.0000 0.2733184345
H   H5        1.0  0.69276  0.24203  0.50220  1.0000 0.2619457665
H   H6        1.0  0.76362  0.47637  0.55459  1.0000 0.0786185064
H   H7        1.0  0.74080  0.62073  0.28921  1.0000 0.2733184345
H   H8        1.0  0.75797  0.69276  0.49780  1.0000 0.2619457665
H   H9        1.0  0.52363  0.76362  0.44541  1.0000 0.0786185064
H   H10       1.0  0.25920  0.37927  0.28921  1.0000 0.2733184345
H   H11       1.0  0.24203  0.30724  0.49780  1.0000 0.2619457665
H   H12       1.0  0.47637  0.23638  0.44541  1.0000 0.0786185064
H   H13       1.0  0.88010  0.75854  0.21237  1.0000 0.2619457665
H   H14       1.0  0.80688  0.74112  0.00054  1.0000 0.2619457665
H   H15       1.0  0.73620  0.97671  0.05435  1.0000 0.0733706341
H   H16       1.0  0.11990  0.24146  0.21237  1.0000 0.2619457665
H   H17       1.0  0.19312  0.25888  0.00054  1.0000 0.2619457665
H   H18       1.0  0.26380  0.02329  0.05435  1.0000 0.0733706341
H   H19       1.0  0.24146  0.88010  0.78763  1.0000 0.2619457665
H   H20       1.0  0.25888  0.80688  0.99946  1.0000 0.2619457665
H   H21       1.0  0.02329  0.73620  0.94565  1.0000 0.0733706341
H   H22       1.0  0.75854  0.11990  0.78763  1.0000 0.2619457665
H   H23       1.0  0.74112  0.19312  0.99946  1.0000 0.2619457665
H   H24       1.0  0.97671  0.26380  0.94565  1.0000 0.0733706341
C   C1        1.0  0.27131  0.56214  0.62486  1.0000 0.108343827
C   C2        1.0  0.31986  0.65675  0.62713  1.0000 0.4547811695
C   C3        1.0  0.72869  0.43786  0.62486  1.0000 0.108343827
C   C4        1.0  0.68014  0.34325  0.62713  1.0000 0.4547811695
C   C5        1.0  0.56214  0.72869  0.37514  1.0000 0.108343827
C   C6        1.0  0.65675  0.68014  0.37287  1.0000 0.4547811695
C   C7        1.0  0.43786  0.27131  0.37514  1.0000 0.108343827
C   C8        1.0  0.34325  0.31986  0.37287  1.0000 0.4547811695
C   C9        1.0  0.77154  0.93760  0.12528  1.0000 0.108343827
C   C10       1.0  0.81990  0.84327  0.12711  1.0000 0.4570802175
C   C11       1.0  0.22846  0.06240  0.12528  1.0000 0.108343827
C   C12       1.0  0.18010  0.15673  0.12711  1.0000 0.4570802175
C   C13       1.0  0.06240  0.77154  0.87472  1.0000 0.108343827
C   C14       1.0  0.15673  0.81990  0.87289  1.0000 0.4570802175
C   C15       1.0  0.93760  0.22846  0.87472  1.0000 0.108343827
C   C16       1.0  0.84327  0.18010  0.87289  1.0000 0.4570802175
N   N1        1.0  0.36258  0.61208  0.77772  1.0000 -0.2944369666
N   N2        1.0  0.25979  0.62682  0.53368  1.0000 -0.4198292955
N   N3        1.0  0.32973  0.55046  0.78220  1.0000 -0.1945862896
N   N4        1.0  0.33584  0.72200  0.61054  1.0000 -0.6494917325
N   N5        1.0  0.63742  0.38792  0.77772  1.0000 -0.2944369666
N   N6        1.0  0.74021  0.37318  0.53368  1.0000 -0.4198292955
N   N7        1.0  0.67027  0.44954  0.78220  1.0000 -0.1945862896
N   N8        1.0  0.66416  0.27800  0.61054  1.0000 -0.6494917325
N   N9        1.0  0.61208  0.63742  0.22228  1.0000 -0.2944369666
N   N10       1.0  0.62682  0.74021  0.46632  1.0000 -0.4198292955
N   N11       1.0  0.55046  0.67027  0.21780  1.0000 -0.1945862896
N   N12       1.0  0.72200  0.66416  0.38946  1.0000 -0.6494917325
N   N13       1.0  0.38792  0.36258  0.22228  1.0000 -0.2944369666
N   N14       1.0  0.37318  0.25979  0.46632  1.0000 -0.4198292955
N   N15       1.0  0.44954  0.32973  0.21780  1.0000 -0.1945862896
N   N16       1.0  0.27800  0.33584  0.38946  1.0000 -0.6494917325
N   N17       1.0  0.86254  0.88798  0.27786  1.0000 -0.2974569998
N   N18       1.0  0.75966  0.87306  0.03328  1.0000 -0.4198292955
N   N19       1.0  0.82975  0.94950  0.28222  1.0000 -0.1945862896
N   N20       1.0  0.83539  0.77955  0.11063  1.0000 -0.6282838188
N   N21       1.0  0.13746  0.11202  0.27786  1.0000 -0.2974569998
N   N22       1.0  0.24034  0.12694  0.03328  1.0000 -0.4198292955
N   N23       1.0  0.17025  0.05050  0.28222  1.0000 -0.1945862896
N   N24       1.0  0.16461  0.22045  0.11063  1.0000 -0.6282838188
N   N25       1.0  0.11202  0.86254  0.72214  1.0000 -0.2974569998
N   N26       1.0  0.12694  0.75966  0.96672  1.0000 -0.4198292955
N   N27       1.0  0.05050  0.82975  0.71778  1.0000 -0.1945862896
N   N28       1.0  0.22045  0.83539  0.88937  1.0000 -0.6282838188
N   N29       1.0  0.88798  0.13746  0.72214  1.0000 -0.2974569998
N   N30       1.0  0.87306  0.24034  0.96672  1.0000 -0.4198292955
N   N31       1.0  0.94950  0.17025  0.71778  1.0000 -0.1945862896
N   N32       1.0  0.77955  0.16461  0.88937  1.0000 -0.6282838188
