# DDEC6 charges by PACMAN v1.1 (https://github.com/mtap-research/PACMAN-charge/)
data_2005[Eu][nan]3[ASR]1
_chemical_formula_sum              "Eu16 H144 C288 O96"
_cell_length_a       22.8856
_cell_length_b       22.8856
_cell_length_c       22.8856
_cell_angle_alpha    96.7889
_cell_angle_beta     96.7889
_cell_angle_gamma    139.781

_symmetry_space_group_name_H-M    "P 1"
_symmetry_Int_Tables_number       1

loop_
  _symmetry_equiv_pos_as_xyz
  'x, y, z'

loop_
  _atom_site_type_symbol
  _atom_site_label
  _atom_site_symmetry_multiplicity
  _atom_site_fract_x
  _atom_site_fract_y
  _atom_site_fract_z
  _atom_site_occupancy
  _atom_site_charge
Eu  Eu1       1.0  0.15908  0.95372  0.74744  1.0000 2.0659213779
Eu  Eu2       1.0  0.20628  0.41164  0.25256  1.0000 2.0659213779
Eu  Eu3       1.0  0.66164  0.90908  0.70536  1.0000 2.0659213779
Eu  Eu4       1.0  0.20372  0.95628  0.29464  1.0000 2.0659213779
Eu  Eu5       1.0  0.65908  0.91164  0.20536  1.0000 2.0659213779
Eu  Eu6       1.0  0.70628  0.45372  0.79464  1.0000 2.0659213779
Eu  Eu7       1.0  0.16164  0.45628  0.75256  1.0000 2.0659213779
Eu  Eu8       1.0  0.70372  0.40908  0.24744  1.0000 2.0659213779
Eu  Eu9       1.0  0.40805  0.21350  0.75027  1.0000 2.0479294178
Eu  Eu10      1.0  0.46323  0.65778  0.24973  1.0000 2.0479294178
Eu  Eu11      1.0  0.90778  0.15805  0.69455  1.0000 2.0479294178
Eu  Eu12      1.0  0.46350  0.21323  0.30545  1.0000 2.0479294178
Eu  Eu13      1.0  0.90805  0.15778  0.19455  1.0000 2.0479294178
Eu  Eu14      1.0  0.96323  0.71350  0.80545  1.0000 2.0479294178
Eu  Eu15      1.0  0.40778  0.71323  0.74973  1.0000 2.0479294178
Eu  Eu16      1.0  0.96350  0.65805  0.25027  1.0000 2.0479294178
H   H1        1.0  0.08710  0.08920  0.67810  1.0000 0.1218684665
H   H2        1.0  0.41110  0.40900  0.32190  1.0000 0.1218684665
H   H3        1.0  0.65900  0.83710  0.49790  1.0000 0.1218684665
H   H4        1.0  0.33920  0.16110  0.50210  1.0000 0.1218684665
H   H5        1.0  0.58710  0.90900  0.99790  1.0000 0.1218684665
H   H6        1.0  0.91110  0.58920  0.00210  1.0000 0.1218684665
H   H7        1.0  0.15900  0.66110  0.82190  1.0000 0.1218684665
H   H8        1.0  0.83920  0.33710  0.17810  1.0000 0.1218684665
H   H9        1.0  0.07480  0.18140  0.68280  1.0000 0.1218684665
H   H10       1.0  0.49860  0.39200  0.31720  1.0000 0.1218684665
H   H11       1.0  0.64200  0.82480  0.39340  1.0000 0.1218684665
H   H12       1.0  0.43140  0.24860  0.60660  1.0000 0.1218684665
H   H13       1.0  0.57480  0.89200  0.89340  1.0000 0.1218684665
H   H14       1.0  0.99860  0.68140  0.10660  1.0000 0.1218684665
H   H15       1.0  0.14200  0.74860  0.81720  1.0000 0.1218684665
H   H16       1.0  0.93140  0.32480  0.18280  1.0000 0.1218684665
H   H17       1.0  0.30980  0.43400  0.86980  1.0000 0.1354653803
H   H18       1.0  0.56420  0.44000  0.13020  1.0000 0.1285633711
H   H19       1.0  0.69000  0.05980  0.37580  1.0000 0.1285633711
H   H20       1.0  0.68400  0.31420  0.62420  1.0000 0.1285633711
H   H21       1.0  0.80980  0.94000  0.87580  1.0000 0.1354653803
H   H22       1.0  0.06420  0.93400  0.12420  1.0000 0.1354653803
H   H23       1.0  0.19000  0.81420  0.63020  1.0000 0.1354653803
H   H24       1.0  0.18400  0.55980  0.36980  1.0000 0.1354653803
H   H25       1.0  0.41860  0.47660  0.94660  1.0000 0.1092571333
H   H26       1.0  0.53000  0.47200  0.05340  1.0000 0.1092571333
H   H27       1.0  0.72200  0.16860  0.44200  1.0000 0.1092571333
H   H28       1.0  0.72660  0.28000  0.55800  1.0000 0.1092571333
H   H29       1.0  0.91860  0.97200  0.94200  1.0000 0.1092571333
H   H30       1.0  0.03000  0.97660  0.05800  1.0000 0.1092571333
H   H31       1.0  0.22200  0.78000  0.55340  1.0000 0.1092571333
H   H32       1.0  0.22660  0.66860  0.44660  1.0000 0.1092571333
H   H33       1.0  0.42310  0.37880  0.94410  1.0000 0.1092571333
H   H34       1.0  0.43470  0.47900  0.05590  1.0000 0.1092571333
H   H35       1.0  0.72900  0.17310  0.54430  1.0000 0.1092571333
H   H36       1.0  0.62880  0.18470  0.45570  1.0000 0.1092571333
H   H37       1.0  0.92310  0.97900  0.04430  1.0000 0.1092571333
H   H38       1.0  0.93470  0.87880  0.95570  1.0000 0.1092571333
H   H39       1.0  0.22900  0.68470  0.55590  1.0000 0.1092571333
H   H40       1.0  0.12880  0.67310  0.44410  1.0000 0.1092571333
H   H41       1.0  0.32170  0.24160  0.86410  1.0000 0.1285633711
H   H42       1.0  0.37750  0.45760  0.13590  1.0000 0.1285633711
H   H43       1.0  0.70760  0.07170  0.58010  1.0000 0.1285633711
H   H44       1.0  0.49160  0.12750  0.41990  1.0000 0.1285633711
H   H45       1.0  0.82170  0.95760  0.08010  1.0000 0.1285633711
H   H46       1.0  0.87750  0.74160  0.91990  1.0000 0.1285633711
H   H47       1.0  0.20760  0.62750  0.63590  1.0000 0.1285633711
H   H48       1.0  0.99160  0.57170  0.36410  1.0000 0.1285633711
H   H49       1.0  0.44230  0.93490  0.70660  1.0000 0.1218684665
H   H50       1.0  0.22830  0.73570  0.29340  1.0000 0.1218684665
H   H51       1.0  0.98570  0.19230  0.00740  1.0000 0.1218684665
H   H52       1.0  0.18490  0.97830  0.99260  1.0000 0.1218684665
H   H53       1.0  0.94230  0.23570  0.50740  1.0000 0.1218684665
H   H54       1.0  0.72830  0.43490  0.49260  1.0000 0.1218684665
H   H55       1.0  0.48570  0.47830  0.79340  1.0000 0.1218684665
H   H56       1.0  0.68490  0.69230  0.20660  1.0000 0.1218684665
H   H57       1.0  0.43560  0.03030  0.70710  1.0000 0.1285633711
H   H58       1.0  0.32320  0.72850  0.29290  1.0000 0.1285633711
H   H59       1.0  0.97850  0.18560  0.90530  1.0000 0.1285633711
H   H60       1.0  0.28030  0.07320  0.09470  1.0000 0.1285633711
H   H61       1.0  0.93560  0.22850  0.40530  1.0000 0.1285633711
H   H62       1.0  0.82320  0.53030  0.59470  1.0000 0.1285633711
H   H63       1.0  0.47850  0.57320  0.79290  1.0000 0.1285633711
H   H64       1.0  0.78030  0.68560  0.20710  1.0000 0.1285633711
H   H65       1.0  0.36660  0.04490  0.88570  1.0000 0.1285633711
H   H66       1.0  0.15920  0.48090  0.11430  1.0000 0.1285633711
H   H67       1.0  0.73090  0.11660  0.82170  1.0000 0.1285633711
H   H68       1.0  0.29490  0.90920  0.17830  1.0000 0.1285633711
H   H69       1.0  0.86660  0.98090  0.32170  1.0000 0.1285633711
H   H70       1.0  0.65920  0.54490  0.67830  1.0000 0.1285633711
H   H71       1.0  0.23090  0.40920  0.61430  1.0000 0.1285633711
H   H72       1.0  0.79490  0.61660  0.38570  1.0000 0.1285633711
H   H73       1.0  0.34570  0.98630  0.96480  1.0000 0.1092571333
H   H74       1.0  0.02150  0.38090  0.03520  1.0000 0.1092571333
H   H75       1.0  0.63090  0.09570  0.85940  1.0000 0.1092571333
H   H76       1.0  0.23630  0.77150  0.14060  1.0000 0.1092571333
H   H77       1.0  0.84570  0.88090  0.35940  1.0000 0.1092571333
H   H78       1.0  0.52150  0.48630  0.64060  1.0000 0.1092571333
H   H79       1.0  0.13090  0.27150  0.53520  1.0000 0.1092571333
H   H80       1.0  0.73630  0.59570  0.46480  1.0000 0.1092571333
H   H81       1.0  0.36990  0.90720  0.97290  1.0000 0.1218684665
H   H82       1.0  0.93430  0.39700  0.02710  1.0000 0.1092571333
H   H83       1.0  0.64700  0.11990  0.96270  1.0000 0.1092571333
H   H84       1.0  0.15720  0.68430  0.03730  1.0000 0.1092571333
H   H85       1.0  0.86990  0.89700  0.46270  1.0000 0.1092571333
H   H86       1.0  0.43430  0.40720  0.53730  1.0000 0.1092571333
H   H87       1.0  0.14700  0.18430  0.52710  1.0000 0.1218684665
H   H88       1.0  0.65720  0.61990  0.47290  1.0000 0.1092571333
H   H89       1.0  0.39540  0.86500  0.89160  1.0000 0.1285633711
H   H90       1.0  0.97340  0.50380  0.10840  1.0000 0.1285633711
H   H91       1.0  0.75380  0.14540  0.03040  1.0000 0.1285633711
H   H92       1.0  0.11500  0.72340  0.96960  1.0000 0.1285633711
H   H93       1.0  0.89540  0.00380  0.53040  1.0000 0.1285633711
H   H94       1.0  0.47340  0.36500  0.46960  1.0000 0.1285633711
H   H95       1.0  0.25380  0.22340  0.60840  1.0000 0.1285633711
H   H96       1.0  0.61500  0.64540  0.39160  1.0000 0.1285633711
H   H97       1.0  0.09970  0.91750  0.55500  1.0000 0.1285633711
H   H98       1.0  0.36250  0.54470  0.44500  1.0000 0.1285633711
H   H99       1.0  0.79470  0.84970  0.68220  1.0000 0.1285633711
H   H100      1.0  0.16750  0.11250  0.31780  1.0000 0.1285633711
H   H101      1.0  0.59970  0.04470  0.18220  1.0000 0.1285633711
H   H102      1.0  0.86250  0.41750  0.81780  1.0000 0.1285633711
H   H103      1.0  0.29470  0.61250  0.94500  1.0000 0.1285633711
H   H104      1.0  0.66750  0.34970  0.05500  1.0000 0.1285633711
H   H105      1.0  0.02510  0.82610  0.45180  1.0000 0.1285633711
H   H106      1.0  0.37430  0.57330  0.54820  1.0000 0.1285633711
H   H107      1.0  0.82330  0.77510  0.69900  1.0000 0.1285633711
H   H108      1.0  0.07610  0.12430  0.30100  1.0000 0.1285633711
H   H109      1.0  0.52510  0.07330  0.19900  1.0000 0.1285633711
H   H110      1.0  0.87430  0.32610  0.80100  1.0000 0.1285633711
H   H111      1.0  0.32330  0.62430  0.04820  1.0000 0.1285633711
H   H112      1.0  0.57610  0.27510  0.95180  1.0000 0.1285633711
H   H113      1.0  0.23350  0.84880  0.40870  1.0000 0.1285633711
H   H114      1.0  0.44010  0.82480  0.59130  1.0000 0.1285633711
H   H115      1.0  0.07480  0.98350  0.88470  1.0000 0.1285633711
H   H116      1.0  0.09880  0.19010  0.11530  1.0000 0.1285633711
H   H117      1.0  0.73350  0.32480  0.38470  1.0000 0.1285633711
H   H118      1.0  0.94010  0.34880  0.61530  1.0000 0.1285633711
H   H119      1.0  0.57480  0.69010  0.09130  1.0000 0.1285633711
H   H120      1.0  0.59880  0.48350  0.90870  1.0000 0.1285633711
H   H121      1.0  0.38020  0.92990  0.46110  1.0000 0.1092571333
H   H122      1.0  0.46880  0.91910  0.53890  1.0000 0.1092571333
H   H123      1.0  0.16910  0.13020  0.95030  1.0000 0.1092571333
H   H124      1.0  0.17990  0.21880  0.04970  1.0000 0.1092571333
H   H125      1.0  0.88020  0.41910  0.45030  1.0000 0.1092571333
H   H126      1.0  0.96880  0.42990  0.54970  1.0000 0.1092571333
H   H127      1.0  0.66910  0.71880  0.03890  1.0000 0.1092571333
H   H128      1.0  0.67990  0.63020  0.96110  1.0000 0.1092571333
H   H129      1.0  0.46050  0.03230  0.56320  1.0000 0.1092571333
H   H130      1.0  0.46910  0.89730  0.43680  1.0000 0.1092571333
H   H131      1.0  0.14730  0.21050  0.92820  1.0000 0.1092571333
H   H132      1.0  0.28230  0.21910  0.07180  1.0000 0.1092571333
H   H133      1.0  0.96050  0.39730  0.42820  1.0000 0.1092571333
H   H134      1.0  0.96910  0.53230  0.57180  1.0000 0.1092571333
H   H135      1.0  0.64730  0.71910  0.93680  1.0000 0.1092571333
H   H136      1.0  0.78230  0.71050  0.06320  1.0000 0.1092571333
H   H137      1.0  0.38550  0.04220  0.61330  1.0000 0.1218684665
H   H138      1.0  0.42890  0.77220  0.38670  1.0000 0.1218684665
H   H139      1.0  0.02220  0.13550  0.84330  1.0000 0.1218684665
H   H140      1.0  0.29220  0.17890  0.15670  1.0000 0.1218684665
H   H141      1.0  0.88550  0.27220  0.34330  1.0000 0.1218684665
H   H142      1.0  0.92890  0.54220  0.65670  1.0000 0.1218684665
H   H143      1.0  0.52220  0.67890  0.88670  1.0000 0.1218684665
H   H144      1.0  0.79220  0.63550  0.11330  1.0000 0.1218684665
C   C1        1.0  0.18980  0.16770  0.76010  1.0000 -0.0570998522
C   C2        1.0  0.40760  0.42970  0.23990  1.0000 -0.0570998522
C   C3        1.0  0.67970  0.93980  0.52210  1.0000 -0.0570998522
C   C4        1.0  0.41770  0.15760  0.47790  1.0000 -0.0570998522
C   C5        1.0  0.68980  0.92970  0.02210  1.0000 -0.0570998522
C   C6        1.0  0.90760  0.66770  0.97790  1.0000 -0.0570998522
C   C7        1.0  0.17970  0.65760  0.73990  1.0000 -0.0570998522
C   C8        1.0  0.91770  0.43980  0.26010  1.0000 -0.0570998522
C   C9        1.0  0.12610  0.14330  0.71260  1.0000 -0.0985106718
C   C10       1.0  0.43070  0.41350  0.28740  1.0000 -0.0985106718
C   C11       1.0  0.66350  0.87610  0.48280  1.0000 -0.0985106718
C   C12       1.0  0.39330  0.18070  0.51720  1.0000 -0.0985106718
C   C13       1.0  0.62610  0.91350  0.98280  1.0000 -0.0985106718
C   C14       1.0  0.93070  0.64330  0.01720  1.0000 -0.0985106718
C   C15       1.0  0.16350  0.68070  0.78740  1.0000 -0.0985106718
C   C16       1.0  0.89330  0.37610  0.21260  1.0000 -0.0985106718
C   C17       1.0  0.11900  0.19930  0.71550  1.0000 -0.0801411725
C   C18       1.0  0.48380  0.40350  0.28450  1.0000 -0.0801411725
C   C19       1.0  0.65350  0.86900  0.41970  1.0000 -0.0801411725
C   C20       1.0  0.44930  0.23380  0.58030  1.0000 -0.0801411725
C   C21       1.0  0.61900  0.90350  0.91970  1.0000 -0.0801411725
C   C22       1.0  0.98380  0.69930  0.08030  1.0000 -0.0801411725
C   C23       1.0  0.15350  0.73380  0.78450  1.0000 -0.0801411725
C   C24       1.0  0.94930  0.36900  0.21550  1.0000 -0.0801411725
C   C25       1.0  0.17540  0.27940  0.76520  1.0000 -0.0801411725
C   C26       1.0  0.51420  0.41020  0.23480  1.0000 -0.0801411725
C   C27       1.0  0.66020  0.92540  0.39600  1.0000 -0.0801411725
C   C28       1.0  0.52940  0.26420  0.60400  1.0000 -0.0801411725
C   C29       1.0  0.67540  0.91020  0.89600  1.0000 -0.0801411725
C   C30       1.0  0.01420  0.77940  0.10400  1.0000 -0.0801411725
C   C31       1.0  0.16020  0.76420  0.73480  1.0000 -0.0801411725
C   C32       1.0  0.02940  0.42540  0.26520  1.0000 -0.0801411725
C   C33       1.0  0.24660  0.31010  0.81510  1.0000 0.060500139
C   C34       1.0  0.49500  0.43150  0.18490  1.0000 0.060500139
C   C35       1.0  0.68150  0.99660  0.43650  1.0000 0.060500139
C   C36       1.0  0.56010  0.24500  0.56350  1.0000 0.060500139
C   C37       1.0  0.74660  0.93150  0.93650  1.0000 0.060500139
C   C38       1.0  0.99500  0.81010  0.06350  1.0000 0.060500139
C   C39       1.0  0.18150  0.74500  0.68490  1.0000 0.060500139
C   C40       1.0  0.06010  0.49660  0.31510  1.0000 0.060500139
C   C41       1.0  0.31180  0.39470  0.86750  1.0000 -0.1371852223
C   C42       1.0  0.52720  0.44430  0.13250  1.0000 -0.1371852223
C   C43       1.0  0.69430  0.06180  0.41710  1.0000 -0.1371852223
C   C44       1.0  0.64470  0.27720  0.58290  1.0000 -0.1371852223
C   C45       1.0  0.81180  0.94430  0.91710  1.0000 -0.1371852223
C   C46       1.0  0.02720  0.89470  0.08290  1.0000 -0.1371852223
C   C47       1.0  0.19430  0.77720  0.63250  1.0000 -0.1371852223
C   C48       1.0  0.14470  0.56180  0.36750  1.0000 -0.1371852223
C   C49       1.0  0.37610  0.42000  0.91350  1.0000 -0.109831786
C   C50       1.0  0.50650  0.46260  0.08650  1.0000 -0.109831786
C   C51       1.0  0.71260  0.12610  0.45610  1.0000 -0.109831786
C   C52       1.0  0.67000  0.25650  0.54390  1.0000 -0.109831786
C   C53       1.0  0.87610  0.96260  0.95610  1.0000 -0.109831786
C   C54       1.0  0.00650  0.92000  0.04390  1.0000 -0.109831786
C   C55       1.0  0.21260  0.75650  0.58650  1.0000 -0.109831786
C   C56       1.0  0.17000  0.62610  0.41350  1.0000 -0.109831786
C   C57       1.0  0.37900  0.36150  0.91170  1.0000 -0.0985106718
C   C58       1.0  0.44980  0.46730  0.08830  1.0000 -0.0985106718
C   C59       1.0  0.71730  0.12900  0.51750  1.0000 -0.0985106718
C   C60       1.0  0.61150  0.19980  0.48250  1.0000 -0.0985106718
C   C61       1.0  0.87900  0.96730  0.01750  1.0000 -0.0985106718
C   C62       1.0  0.94980  0.86150  0.98250  1.0000 -0.0985106718
C   C63       1.0  0.21730  0.69980  0.58830  1.0000 -0.0985106718
C   C64       1.0  0.11150  0.62900  0.41170  1.0000 -0.0985106718
C   C65       1.0  0.31880  0.27990  0.86370  1.0000 -0.1201878743
C   C66       1.0  0.41620  0.45510  0.13630  1.0000 -0.1201878743
C   C67       1.0  0.70510  0.06880  0.53890  1.0000 -0.1201878743
C   C68       1.0  0.52990  0.16620  0.46110  1.0000 -0.1201878743
C   C69       1.0  0.81880  0.95510  0.03890  1.0000 -0.1201878743
C   C70       1.0  0.91620  0.77990  0.96110  1.0000 -0.1201878743
C   C71       1.0  0.20510  0.66620  0.63630  1.0000 -0.1201878743
C   C72       1.0  0.02990  0.56880  0.36370  1.0000 -0.1201878743
C   C73       1.0  0.25150  0.25080  0.81290  1.0000 0.0497099918
C   C74       1.0  0.43790  0.43860  0.18710  1.0000 0.0497099918
C   C75       1.0  0.68860  0.00150  0.50070  1.0000 0.0497099918
C   C76       1.0  0.50080  0.18790  0.49930  1.0000 0.0497099918
C   C77       1.0  0.75150  0.93860  0.00070  1.0000 0.0497099918
C   C78       1.0  0.93790  0.75080  0.99930  1.0000 0.0497099918
C   C79       1.0  0.18860  0.68790  0.68710  1.0000 0.0497099918
C   C80       1.0  0.00080  0.50150  0.31290  1.0000 0.0497099918
C   C81       1.0  0.18750  0.10020  0.75430  1.0000 0.6099657645
C   C82       1.0  0.34590  0.43320  0.24570  1.0000 0.6099657645
C   C83       1.0  0.68320  0.93750  0.58730  1.0000 0.6099657645
C   C84       1.0  0.35020  0.09590  0.41270  1.0000 0.6099657645
C   C85       1.0  0.68750  0.93320  0.08730  1.0000 0.6099657645
C   C86       1.0  0.84590  0.60020  0.91270  1.0000 0.6099657645
C   C87       1.0  0.18320  0.59590  0.74570  1.0000 0.6099657645
C   C88       1.0  0.85020  0.43750  0.25430  1.0000 0.6099657645
C   C89       1.0  0.15930  0.33140  0.76510  1.0000 0.6167271664
C   C90       1.0  0.56630  0.39420  0.23490  1.0000 0.6167271664
C   C91       1.0  0.64420  0.90930  0.32790  1.0000 0.6167271664
C   C92       1.0  0.58140  0.31630  0.67210  1.0000 0.6167271664
C   C93       1.0  0.65930  0.89420  0.82790  1.0000 0.6167271664
C   C94       1.0  0.06630  0.83140  0.17210  1.0000 0.6167271664
C   C95       1.0  0.14420  0.81630  0.73490  1.0000 0.6167271664
C   C96       1.0  0.08140  0.40930  0.26510  1.0000 0.6167271664
C   C97       1.0  0.42020  0.91340  0.78780  1.0000 -0.0715716587
C   C98       1.0  0.12560  0.63240  0.21220  1.0000 -0.0715716587
C   C99       1.0  0.88240  0.17020  0.00680  1.0000 -0.0715716587
C   C100      1.0  0.16340  0.87560  0.99320  1.0000 -0.0715716587
C   C101      1.0  0.92020  0.13240  0.50680  1.0000 -0.0715716587
C   C102      1.0  0.62560  0.41340  0.49320  1.0000 -0.0715716587
C   C103      1.0  0.38240  0.37560  0.71220  1.0000 -0.0715716587
C   C104      1.0  0.66340  0.67020  0.28780  1.0000 -0.0715716587
C   C105      1.0  0.43110  0.94910  0.73980  1.0000 -0.109831786
C   C106      1.0  0.20930  0.69130  0.26020  1.0000 -0.109831786
C   C107      1.0  0.94130  0.18110  0.98200  1.0000 -0.109831786
C   C108      1.0  0.19910  0.95930  0.01800  1.0000 -0.109831786
C   C109      1.0  0.93110  0.19130  0.48200  1.0000 -0.109831786
C   C110      1.0  0.70930  0.44910  0.51800  1.0000 -0.109831786
C   C111      1.0  0.44130  0.45930  0.76020  1.0000 -0.109831786
C   C112      1.0  0.69910  0.68110  0.23980  1.0000 -0.109831786
C   C113      1.0  0.42610  0.00600  0.73970  1.0000 -0.109831786
C   C114      1.0  0.26630  0.68640  0.26030  1.0000 -0.109831786
C   C115      1.0  0.93640  0.17610  0.92010  1.0000 -0.109831786
C   C116      1.0  0.25600  0.01630  0.07990  1.0000 -0.109831786
C   C117      1.0  0.92610  0.18640  0.42010  1.0000 -0.109831786
C   C118      1.0  0.76630  0.50600  0.57990  1.0000 -0.109831786
C   C119      1.0  0.43640  0.51630  0.76030  1.0000 -0.109831786
C   C120      1.0  0.75600  0.67610  0.23970  1.0000 -0.109831786
C   C121      1.0  0.40730  0.02620  0.78690  1.0000 -0.0490084643
C   C122      1.0  0.23930  0.62040  0.21310  1.0000 -0.0490084643
C   C123      1.0  0.87040  0.15730  0.88110  1.0000 -0.0490084643
C   C124      1.0  0.27620  0.98930  0.11890  1.0000 -0.0490084643
C   C125      1.0  0.90730  0.12040  0.38110  1.0000 -0.0490084643
C   C126      1.0  0.73930  0.52620  0.61890  1.0000 -0.0490084643
C   C127      1.0  0.37040  0.48930  0.71310  1.0000 -0.0490084643
C   C128      1.0  0.77620  0.65730  0.28690  1.0000 -0.0490084643
C   C129      1.0  0.39370  0.99100  0.83650  1.0000 0.0497099918
C   C130      1.0  0.15450  0.55720  0.16350  1.0000 0.0497099918
C   C131      1.0  0.80720  0.14370  0.90270  1.0000 0.0497099918
C   C132      1.0  0.24100  0.90450  0.09730  1.0000 0.0497099918
C   C133      1.0  0.89370  0.05720  0.40270  1.0000 0.0497099918
C   C134      1.0  0.65450  0.49100  0.59730  1.0000 0.0497099918
C   C135      1.0  0.30720  0.40450  0.66350  1.0000 0.0497099918
C   C136      1.0  0.74100  0.64370  0.33650  1.0000 0.0497099918
C   C137      1.0  0.37280  0.00920  0.88600  1.0000 -0.1371852223
C   C138      1.0  0.12320  0.48680  0.11400  1.0000 -0.1371852223
C   C139      1.0  0.73680  0.12280  0.86360  1.0000 -0.1371852223
C   C140      1.0  0.25920  0.87320  0.13640  1.0000 -0.1371852223
C   C141      1.0  0.87280  0.98680  0.36360  1.0000 -0.1371852223
C   C142      1.0  0.62320  0.50920  0.63640  1.0000 -0.1371852223
C   C143      1.0  0.23680  0.37320  0.61400  1.0000 -0.1371852223
C   C144      1.0  0.75920  0.62280  0.38600  1.0000 -0.1371852223
C   C145      1.0  0.36180  0.97530  0.93370  1.0000 -0.0912144083
C   C146      1.0  0.04160  0.42810  0.06630  1.0000 -0.0912144083
C   C147      1.0  0.67810  0.11180  0.88650  1.0000 -0.0912144083
C   C148      1.0  0.22530  0.79160  0.11350  1.0000 -0.0912144083
C   C149      1.0  0.86180  0.92810  0.38650  1.0000 -0.0912144083
C   C150      1.0  0.54160  0.47530  0.61350  1.0000 -0.0912144083
C   C151      1.0  0.17810  0.29160  0.56630  1.0000 -0.0912144083
C   C152      1.0  0.72530  0.61180  0.43370  1.0000 -0.0912144083
C   C153      1.0  0.37350  0.92550  0.93780  1.0000 -0.109831786
C   C154      1.0  0.98770  0.43570  0.06220  1.0000 -0.109831786
C   C155      1.0  0.68570  0.12350  0.94800  1.0000 -0.109831786
C   C156      1.0  0.17550  0.73770  0.05200  1.0000 -0.109831786
C   C157      1.0  0.87350  0.93570  0.44800  1.0000 -0.109831786
C   C158      1.0  0.48770  0.42550  0.55200  1.0000 -0.109831786
C   C159      1.0  0.18570  0.23770  0.56220  1.0000 -0.109831786
C   C160      1.0  0.67550  0.62350  0.43780  1.0000 -0.109831786
C   C161      1.0  0.39110  0.90200  0.88970  1.0000 -0.1371852223
C   C162      1.0  0.01230  0.50140  0.11030  1.0000 -0.1371852223
C   C163      1.0  0.75140  0.14110  0.98910  1.0000 -0.1371852223
C   C164      1.0  0.15200  0.76230  0.01090  1.0000 -0.1371852223
C   C165      1.0  0.89110  0.00140  0.48910  1.0000 -0.1371852223
C   C166      1.0  0.51230  0.40200  0.51090  1.0000 -0.1371852223
C   C167      1.0  0.25140  0.26230  0.61030  1.0000 -0.1371852223
C   C168      1.0  0.65200  0.64110  0.38970  1.0000 -0.1371852223
C   C169      1.0  0.40200  0.93450  0.83830  1.0000 0.0497099918
C   C170      1.0  0.09620  0.56370  0.16170  1.0000 0.0497099918
C   C171      1.0  0.81370  0.15200  0.96750  1.0000 0.0497099918
C   C172      1.0  0.18450  0.84620  0.03250  1.0000 0.0497099918
C   C173      1.0  0.90200  0.06370  0.46750  1.0000 0.0497099918
C   C174      1.0  0.59620  0.43450  0.53250  1.0000 0.0497099918
C   C175      1.0  0.31370  0.34620  0.66170  1.0000 0.0497099918
C   C176      1.0  0.68450  0.65200  0.33830  1.0000 0.0497099918
C   C177      1.0  0.42290  0.84940  0.78050  1.0000 0.5683365283
C   C178      1.0  0.06890  0.64240  0.21950  1.0000 0.5683365283
C   C179      1.0  0.89240  0.17290  0.07350  1.0000 0.5683365283
C   C180      1.0  0.09940  0.81890  0.92650  1.0000 0.5683365283
C   C181      1.0  0.92290  0.14240  0.57350  1.0000 0.5683365283
C   C182      1.0  0.56890  0.34940  0.42650  1.0000 0.5683365283
C   C183      1.0  0.39240  0.31890  0.71950  1.0000 0.5683365283
C   C184      1.0  0.59940  0.67290  0.28050  1.0000 0.5683365283
C   C185      1.0  0.40220  0.08800  0.78120  1.0000 0.6167271664
C   C186      1.0  0.30680  0.62100  0.21880  1.0000 0.6167271664
C   C187      1.0  0.87100  0.15220  0.81420  1.0000 0.6167271664
C   C188      1.0  0.33800  0.05680  0.18580  1.0000 0.6167271664
C   C189      1.0  0.90220  0.12100  0.31420  1.0000 0.6167271664
C   C190      1.0  0.80680  0.58800  0.68580  1.0000 0.6167271664
C   C191      1.0  0.37100  0.55680  0.71880  1.0000 0.6167271664
C   C192      1.0  0.83800  0.65220  0.28120  1.0000 0.6167271664
C   C193      1.0  0.21950  0.96740  0.57010  1.0000 -0.0801411725
C   C194      1.0  0.39730  0.64940  0.42990  1.0000 -0.0801411725
C   C195      1.0  0.89940  0.96950  0.75210  1.0000 -0.0801411725
C   C196      1.0  0.21740  0.14730  0.24790  1.0000 -0.0801411725
C   C197      1.0  0.71950  0.14940  0.25210  1.0000 -0.0801411725
C   C198      1.0  0.89730  0.46740  0.74790  1.0000 -0.0801411725
C   C199      1.0  0.39940  0.64730  0.92990  1.0000 -0.0801411725
C   C200      1.0  0.71740  0.46950  0.07010  1.0000 -0.0801411725
C   C201      1.0  0.13140  0.91500  0.53560  1.0000 -0.0985106718
C   C202      1.0  0.37940  0.59580  0.46440  1.0000 -0.0985106718
C   C203      1.0  0.84580  0.88140  0.71640  1.0000 -0.0985106718
C   C204      1.0  0.16500  0.12940  0.28360  1.0000 -0.0912144083
C   C205      1.0  0.63140  0.09580  0.21640  1.0000 -0.0985106718
C   C206      1.0  0.87940  0.41500  0.78360  1.0000 -0.0985106718
C   C207      1.0  0.34580  0.62940  0.96440  1.0000 -0.0985106718
C   C208      1.0  0.66500  0.38140  0.03560  1.0000 -0.0985106718
C   C209      1.0  0.08420  0.85740  0.47320  1.0000 -0.109831786
C   C210      1.0  0.38420  0.61100  0.52680  1.0000 -0.109831786
C   C211      1.0  0.86100  0.83420  0.72680  1.0000 -0.109831786
C   C212      1.0  0.10740  0.13420  0.27320  1.0000 -0.109831786
C   C213      1.0  0.58420  0.11100  0.22680  1.0000 -0.109831786
C   C214      1.0  0.88420  0.35740  0.77320  1.0000 -0.109831786
C   C215      1.0  0.36100  0.63420  0.02680  1.0000 -0.109831786
C   C216      1.0  0.60740  0.33420  0.97320  1.0000 -0.109831786
C   C217      1.0  0.12740  0.84860  0.44460  1.0000 -0.0570998522
C   C218      1.0  0.40400  0.68280  0.55540  1.0000 -0.0570998522
C   C219      1.0  0.93280  0.87740  0.77880  1.0000 -0.0570998522
C   C220      1.0  0.09860  0.15400  0.22120  1.0000 -0.0570998522
C   C221      1.0  0.62740  0.18280  0.27880  1.0000 -0.0570998522
C   C222      1.0  0.90400  0.34860  0.72120  1.0000 -0.0570998522
C   C223      1.0  0.43280  0.65400  0.05540  1.0000 -0.0570998522
C   C224      1.0  0.59860  0.37740  0.94460  1.0000 -0.0570998522
C   C225      1.0  0.22060  0.89970  0.47870  1.0000 0.060500139
C   C226      1.0  0.42100  0.74190  0.52130  1.0000 0.060500139
C   C227      1.0  0.99190  0.97060  0.82090  1.0000 0.060500139
C   C228      1.0  0.14970  0.17100  0.17910  1.0000 0.060500139
C   C229      1.0  0.72060  0.24190  0.32090  1.0000 0.060500139
C   C230      1.0  0.92100  0.39970  0.67910  1.0000 0.060500139
C   C231      1.0  0.49190  0.67100  0.02130  1.0000 0.060500139
C   C232      1.0  0.64970  0.47060  0.97870  1.0000 0.060500139
C   C233      1.0  0.26470  0.88900  0.44950  1.0000 -0.1490369024
C   C234      1.0  0.43950  0.81520  0.55050  1.0000 -0.1490369024
C   C235      1.0  0.06520  0.01470  0.87570  1.0000 -0.1490369024
C   C236      1.0  0.13900  0.18950  0.12430  1.0000 -0.1490369024
C   C237      1.0  0.76470  0.31520  0.37570  1.0000 -0.1490369024
C   C238      1.0  0.93950  0.38900  0.62430  1.0000 -0.1490369024
C   C239      1.0  0.56520  0.68950  0.05050  1.0000 -0.1490369024
C   C240      1.0  0.63900  0.51470  0.94950  1.0000 -0.1490369024
C   C241      1.0  0.35180  0.93710  0.48070  1.0000 -0.0985106718
C   C242      1.0  0.45640  0.87110  0.51930  1.0000 -0.0985106718
C   C243      1.0  0.12110  0.10180  0.91470  1.0000 -0.0985106718
C   C244      1.0  0.18710  0.20640  0.08530  1.0000 -0.0985106718
C   C245      1.0  0.85180  0.37110  0.41470  1.0000 -0.0985106718
C   C246      1.0  0.95640  0.43710  0.58530  1.0000 -0.0985106718
C   C247      1.0  0.62110  0.70640  0.01930  1.0000 -0.0985106718
C   C248      1.0  0.68710  0.60180  0.98070  1.0000 -0.0985106718
C   C249      1.0  0.39950  0.99750  0.54220  1.0000 -0.109831786
C   C250      1.0  0.45530  0.85730  0.45780  1.0000 -0.109831786
C   C251      1.0  0.10730  0.14950  0.90200  1.0000 -0.109831786
C   C252      1.0  0.24750  0.20530  0.09800  1.0000 -0.109831786
C   C253      1.0  0.89950  0.35730  0.40200  1.0000 -0.109831786
C   C254      1.0  0.95530  0.49750  0.59800  1.0000 -0.109831786
C   C255      1.0  0.60730  0.70530  0.95780  1.0000 -0.109831786
C   C256      1.0  0.74750  0.64950  0.04220  1.0000 -0.109831786
C   C257      1.0  0.35440  0.00460  0.57160  1.0000 -0.1326739
C   C258      1.0  0.43300  0.78280  0.42840  1.0000 -0.1326739
C   C259      1.0  0.03280  0.10440  0.84980  1.0000 -0.1326739
C   C260      1.0  0.25460  0.18300  0.15020  1.0000 -0.1326739
C   C261      1.0  0.85440  0.28280  0.34980  1.0000 -0.1326739
C   C262      1.0  0.93300  0.50460  0.65020  1.0000 -0.1326739
C   C263      1.0  0.53280  0.68300  0.92840  1.0000 -0.1326739
C   C264      1.0  0.75460  0.60440  0.07160  1.0000 -0.1326739
C   C265      1.0  0.26440  0.95830  0.54190  1.0000 0.060500139
C   C266      1.0  0.41640  0.72250  0.45810  1.0000 0.060500139
C   C267      1.0  0.97250  0.01440  0.80610  1.0000 0.060500139
C   C268      1.0  0.20830  0.16640  0.19390  1.0000 0.060500139
C   C269      1.0  0.76440  0.22250  0.30610  1.0000 0.060500139
C   C270      1.0  0.91640  0.45830  0.69390  1.0000 0.060500139
C   C271      1.0  0.47250  0.66640  0.95810  1.0000 0.060500139
C   C272      1.0  0.70830  0.51440  0.04190  1.0000 0.060500139
C   C273      1.0  0.26320  0.02980  0.63460  1.0000 0.630193737
C   C274      1.0  0.39520  0.62860  0.36540  1.0000 0.630193737
C   C275      1.0  0.87860  0.01320  0.73340  1.0000 0.630193737
C   C276      1.0  0.27980  0.14520  0.26660  1.0000 0.630193737
C   C277      1.0  0.76320  0.12860  0.23340  1.0000 0.630193737
C   C278      1.0  0.89520  0.52980  0.76660  1.0000 0.630193737
C   C279      1.0  0.37860  0.64520  0.86540  1.0000 0.630193737
C   C280      1.0  0.77980  0.51320  0.13460  1.0000 0.630193737
C   C281      1.0  0.07770  0.78720  0.37850  1.0000 0.6099657645
C   C282      1.0  0.40870  0.69920  0.62150  1.0000 0.6099657645
C   C283      1.0  0.94920  0.82770  0.79050  1.0000 0.6099657645
C   C284      1.0  0.03720  0.15870  0.20950  1.0000 0.6099657645
C   C285      1.0  0.57770  0.19920  0.29050  1.0000 0.6099657645
C   C286      1.0  0.90870  0.28720  0.70950  1.0000 0.6099657645
C   C287      1.0  0.44920  0.65870  0.12150  1.0000 0.6099657645
C   C288      1.0  0.53720  0.32770  0.87850  1.0000 0.6099657645
O   O1        1.0  0.26396  0.12991  0.77407  1.0000 -0.7500377776
O   O2        1.0  0.35584  0.48989  0.22593  1.0000 -0.7500377776
O   O3        1.0  0.73989  0.01396  0.63405  1.0000 -0.7500377776
O   O4        1.0  0.37991  0.10584  0.36595  1.0000 -0.7500377776
O   O5        1.0  0.76396  0.98989  0.13405  1.0000 -0.7500377776
O   O6        1.0  0.85584  0.62991  0.86595  1.0000 -0.7500377776
O   O7        1.0  0.23989  0.60584  0.72593  1.0000 -0.7500377776
O   O8        1.0  0.87991  0.51396  0.27407  1.0000 -0.7500377776
O   O9        1.0  0.10910  0.01334  0.72804  1.0000 -0.5971682849
O   O10       1.0  0.28530  0.38106  0.27196  1.0000 -0.5971682849
O   O11       1.0  0.63106  0.85910  0.59576  1.0000 -0.5971682849
O   O12       1.0  0.26334  0.03530  0.40424  1.0000 -0.5971682849
O   O13       1.0  0.60910  0.88106  0.09576  1.0000 -0.5971682849
O   O14       1.0  0.78530  0.51334  0.90424  1.0000 -0.5971682849
O   O15       1.0  0.13106  0.53530  0.77196  1.0000 -0.5971682849
O   O16       1.0  0.76334  0.35910  0.22804  1.0000 -0.5971682849
O   O17       1.0  0.08274  0.29113  0.72647  1.0000 -0.7608353677
O   O18       1.0  0.56466  0.35627  0.27353  1.0000 -0.7608353677
O   O19       1.0  0.60627  0.83274  0.29161  1.0000 -0.7608353677
O   O20       1.0  0.54113  0.31466  0.70839  1.0000 -0.7608353677
O   O21       1.0  0.58274  0.85627  0.79161  1.0000 -0.7608353677
O   O22       1.0  0.06466  0.79113  0.20839  1.0000 -0.7608353677
O   O23       1.0  0.10627  0.81466  0.77353  1.0000 -0.7608353677
O   O24       1.0  0.04113  0.33274  0.22647  1.0000 -0.7608353677
O   O25       1.0  0.22098  0.41540  0.80058  1.0000 -0.6092832307
O   O26       1.0  0.61482  0.42040  0.19942  1.0000 -0.6092832307
O   O27       1.0  0.67040  0.97098  0.30558  1.0000 -0.6092832307
O   O28       1.0  0.66540  0.36482  0.69442  1.0000 -0.6092832307
O   O29       1.0  0.72098  0.92040  0.80558  1.0000 -0.6092832307
O   O30       1.0  0.11482  0.91540  0.19442  1.0000 -0.6092832307
O   O31       1.0  0.17040  0.86482  0.69942  1.0000 -0.6092832307
O   O32       1.0  0.16540  0.47098  0.30058  1.0000 -0.6092832307
O   O33       1.0  0.41063  0.80846  0.81949  1.0000 -0.6155355456
O   O34       1.0  0.98897  0.59114  0.18051  1.0000 -0.6155355456
O   O35       1.0  0.84114  0.16063  0.10217  1.0000 -0.6155355456
O   O36       1.0  0.05846  0.73897  0.89783  1.0000 -0.6155355456
O   O37       1.0  0.91063  0.09114  0.60217  1.0000 -0.6155355456
O   O38       1.0  0.48897  0.30846  0.39783  1.0000 -0.6155355456
O   O39       1.0  0.34114  0.23897  0.68051  1.0000 -0.6155355456
O   O40       1.0  0.55846  0.66063  0.31949  1.0000 -0.6155355456
O   O41       1.0  0.43530  0.83290  0.73120  1.0000 -0.634842019
O   O42       1.0  0.10170  0.70410  0.26880  1.0000 -0.634842019
O   O43       1.0  0.95410  0.18530  0.10240  1.0000 -0.634842019
O   O44       1.0  0.08290  0.85170  0.89760  1.0000 -0.634842019
O   O45       1.0  0.93530  0.20410  0.60240  1.0000 -0.634842019
O   O46       1.0  0.60170  0.33290  0.39760  1.0000 -0.634842019
O   O47       1.0  0.45410  0.35170  0.76880  1.0000 -0.634842019
O   O48       1.0  0.58290  0.68530  0.23120  1.0000 -0.634842019
O   O49       1.0  0.32914  0.06020  0.78014  1.0000 -0.7101262467
O   O50       1.0  0.28006  0.54900  0.21986  1.0000 -0.7101262467
O   O51       1.0  0.79900  0.07914  0.76894  1.0000 -0.7101262467
O   O52       1.0  0.31020  0.03006  0.23106  1.0000 -0.7101262467
O   O53       1.0  0.82914  0.04900  0.26894  1.0000 -0.7101262467
O   O54       1.0  0.78006  0.56020  0.73106  1.0000 -0.7101262467
O   O55       1.0  0.29900  0.53006  0.71986  1.0000 -0.7101262467
O   O56       1.0  0.81020  0.57914  0.28014  1.0000 -0.7101262467
O   O57       1.0  0.47351  0.16710  0.77561  1.0000 -0.582101691
O   O58       1.0  0.39149  0.69790  0.22439  1.0000 -0.582101691
O   O59       1.0  0.94790  0.22351  0.80641  1.0000 -0.582101691
O   O60       1.0  0.41710  0.14149  0.19359  1.0000 -0.582101691
O   O61       1.0  0.97351  0.19790  0.30641  1.0000 -0.582101691
O   O62       1.0  0.89149  0.66710  0.69359  1.0000 -0.582101691
O   O63       1.0  0.44790  0.64149  0.72439  1.0000 -0.582101691
O   O64       1.0  0.91710  0.72351  0.27561  1.0000 -0.582101691
O   O65       1.0  0.20790  0.00740  0.66330  1.0000 -0.6961534204
O   O66       1.0  0.34410  0.54460  0.33670  1.0000 -0.6961534204
O   O67       1.0  0.79460  0.95790  0.70050  1.0000 -0.6961534204
O   O68       1.0  0.25740  0.09410  0.29950  1.0000 -0.6961534204
O   O69       1.0  0.70790  0.04460  0.20050  1.0000 -0.6961534204
O   O70       1.0  0.84410  0.50740  0.79950  1.0000 -0.6961534204
O   O71       1.0  0.29460  0.59410  0.83670  1.0000 -0.6961534204
O   O72       1.0  0.75740  0.45790  0.16330  1.0000 -0.6961534204
O   O73       1.0  0.35110  0.10480  0.65770  1.0000 -0.6092832307
O   O74       1.0  0.44710  0.69340  0.34230  1.0000 -0.6092832307
O   O75       1.0  0.94340  0.10110  0.74630  1.0000 -0.6092832307
O   O76       1.0  0.35480  0.19710  0.25370  1.0000 -0.6092832307
O   O77       1.0  0.85110  0.19340  0.24630  1.0000 -0.6092832307
O   O78       1.0  0.94710  0.60480  0.75370  1.0000 -0.6092832307
O   O79       1.0  0.44340  0.69710  0.84230  1.0000 -0.6092832307
O   O80       1.0  0.85480  0.60110  0.15770  1.0000 -0.6092832307
O   O81       1.0  0.00418  0.69940  0.36518  1.0000 -0.5559825482
O   O82       1.0  0.33422  0.63900  0.63482  1.0000 -0.5559825482
O   O83       1.0  0.88900  0.75418  0.80478  1.0000 -0.5559825482
O   O84       1.0  0.94940  0.08422  0.19522  1.0000 -0.5559825482
O   O85       1.0  0.50418  0.13900  0.30478  1.0000 -0.5559825482
O   O86       1.0  0.83422  0.19940  0.69522  1.0000 -0.5559825482
O   O87       1.0  0.38900  0.58422  0.13482  1.0000 -0.5559825482
O   O88       1.0  0.44940  0.25418  0.86518  1.0000 -0.5559825482
O   O89       1.0  0.10591  0.82286  0.33557  1.0000 -0.7220447096
O   O90       1.0  0.48729  0.77034  0.66443  1.0000 -0.7220447096
O   O91       1.0  0.02034  0.85591  0.78305  1.0000 -0.7220447096
O   O92       1.0  0.07286  0.23729  0.21695  1.0000 -0.7220447096
O   O93       1.0  0.60591  0.27034  0.28305  1.0000 -0.7220447096
O   O94       1.0  0.98729  0.32286  0.71695  1.0000 -0.7220447096
O   O95       1.0  0.52034  0.73729  0.16443  1.0000 -0.7220447096
O   O96       1.0  0.57286  0.35591  0.83557  1.0000 -0.7220447096
