# DDEC6 charges by PACMAN v1.1 (https://github.com/mtap-research/PACMAN-charge/)
data_2005[Nd][nan]3[ASR]1
_chemical_formula_sum              "Nd2 H18 C24 O12"
_cell_length_a       8.4735
_cell_length_b       10.8836
_cell_length_c       11.1301
_cell_angle_alpha    64.333
_cell_angle_beta     80.33
_cell_angle_gamma    73.76

_symmetry_space_group_name_H-M    "P 1"
_symmetry_Int_Tables_number       1

loop_
  _symmetry_equiv_pos_as_xyz
  'x, y, z'

loop_
  _atom_site_type_symbol
  _atom_site_label
  _atom_site_symmetry_multiplicity
  _atom_site_fract_x
  _atom_site_fract_y
  _atom_site_fract_z
  _atom_site_occupancy
  _atom_site_charge
Nd  Nd1       1.0  0.74826  0.00318  0.50269  1.0000 2.0812920375
Nd  Nd2       1.0  0.25174  0.99682  0.49731  1.0000 2.0812920375
H   H1        1.0  0.74960  0.94880  0.02330  1.0000 0.1197800828
H   H2        1.0  0.25040  0.05120  0.97670  1.0000 0.1197800828
H   H3        1.0  0.75860  0.56700  0.32420  1.0000 0.1297349078
H   H4        1.0  0.24140  0.43300  0.67580  1.0000 0.1297349078
H   H5        1.0  0.09520  0.60810  0.01440  1.0000 0.1197800828
H   H6        1.0  0.90480  0.39190  0.98560  1.0000 0.1197800828
H   H7        1.0  0.01690  0.96930  0.87490  1.0000 0.1530837012
H   H8        1.0  0.98310  0.03070  0.12510  1.0000 0.1530837012
H   H9        1.0  0.12350  0.83190  0.85580  1.0000 0.142626003
H   H10       1.0  0.87650  0.16810  0.14420  1.0000 0.142626003
H   H11       1.0  0.53200  0.75780  0.31710  1.0000 0.1530837012
H   H12       1.0  0.46800  0.24220  0.68290  1.0000 0.1530837012
H   H13       1.0  0.51130  0.90370  0.18890  1.0000 0.142626003
H   H14       1.0  0.48870  0.09630  0.81110  1.0000 0.142626003
H   H15       1.0  0.06180  0.37590  0.17130  1.0000 0.1197800828
H   H16       1.0  0.93820  0.62410  0.82870  1.0000 0.1197800828
H   H17       1.0  0.92860  0.35860  0.29390  1.0000 0.1197800828
H   H18       1.0  0.07140  0.64140  0.70610  1.0000 0.1197800828
C   C1        1.0  0.93390  0.79270  0.99840  1.0000 0.1774676783
C   C2        1.0  0.06610  0.20730  0.00160  1.0000 0.1774676783
C   C3        1.0  0.79790  0.85120  0.06280  1.0000 -0.2415339532
C   C4        1.0  0.20210  0.14880  0.93720  1.0000 -0.2415339532
C   C5        1.0  0.73310  0.76700  0.18440  1.0000 0.1774676783
C   C6        1.0  0.26690  0.23300  0.81560  1.0000 0.1774676783
C   C7        1.0  0.80370  0.62430  0.24120  1.0000 -0.2229484575
C   C8        1.0  0.19630  0.37570  0.75880  1.0000 -0.2229484575
C   C9        1.0  0.93820  0.56370  0.17970  1.0000 0.1727644769
C   C10       1.0  0.06180  0.43630  0.82030  1.0000 0.1727644769
C   C11       1.0  0.00300  0.64860  0.05770  1.0000 -0.2415339532
C   C12       1.0  0.99700  0.35140  0.94230  1.0000 -0.2415339532
C   C13       1.0  0.00980  0.88310  0.86840  1.0000 -0.4020907538
C   C14       1.0  0.99020  0.11690  0.13160  1.0000 -0.4020907538
C   C15       1.0  0.91710  0.92440  0.74750  1.0000 0.6783027095
C   C16       1.0  0.08290  0.07560  0.25250  1.0000 0.6783027095
C   C17       1.0  0.58970  0.83140  0.25560  1.0000 -0.3827128666
C   C18       1.0  0.41030  0.16860  0.74440  1.0000 -0.3827128666
C   C19       1.0  0.63770  0.89770  0.33480  1.0000 0.6895362181
C   C20       1.0  0.36230  0.10230  0.66520  1.0000 0.6895362181
C   C21       1.0  0.01590  0.40850  0.24320  1.0000 -0.3860711413
C   C22       1.0  0.98410  0.59150  0.75680  1.0000 -0.3860711413
C   C23       1.0  0.15140  0.36730  0.33630  1.0000 0.6783027095
C   C24       1.0  0.84860  0.63270  0.66370  1.0000 0.6783027095
O   O1        1.0  0.99680  0.95150  0.63300  1.0000 -0.7962977844
O   O2        1.0  0.00320  0.04850  0.36700  1.0000 -0.7962977844
O   O3        1.0  0.76200  0.94080  0.75190  1.0000 -0.6090334164
O   O4        1.0  0.23800  0.05920  0.24810  1.0000 -0.6090334164
O   O5        1.0  0.78270  0.90980  0.32580  1.0000 -0.6090334164
O   O6        1.0  0.21730  0.09020  0.67420  1.0000 -0.6090334164
O   O7        1.0  0.53040  0.93740  0.41300  1.0000 -0.7649893718
O   O8        1.0  0.46960  0.06260  0.58700  1.0000 -0.7649893718
O   O9        1.0  0.22160  0.24070  0.38470  1.0000 -0.6891109901
O   O10       1.0  0.77840  0.75930  0.61530  1.0000 -0.6891109901
O   O11       1.0  0.18890  0.45910  0.35700  1.0000 -0.5100520509
O   O12       1.0  0.81110  0.54090  0.64300  1.0000 -0.5100520509
