# DDEC6 charges by PACMAN v1.1 (https://github.com/mtap-research/PACMAN-charge/)
data_2005[Co][cds]3[ASR]1
_chemical_formula_sum              "Co2 H18 C22 N4 O4"
_cell_length_a       11.4194
_cell_length_b       11.4194
_cell_length_c       8.1309
_cell_angle_alpha    84.4085
_cell_angle_beta     95.5915
_cell_angle_gamma    54.8021

_symmetry_space_group_name_H-M    "P 1"
_symmetry_Int_Tables_number       1

loop_
  _symmetry_equiv_pos_as_xyz
  'x, y, z'

loop_
  _atom_site_type_symbol
  _atom_site_label
  _atom_site_symmetry_multiplicity
  _atom_site_fract_x
  _atom_site_fract_y
  _atom_site_fract_z
  _atom_site_occupancy
  _atom_site_charge
Co  Co1       1.0  0.80417  0.68825  0.48993  1.0000 0.483099791
Co  Co2       1.0  0.31175  0.19583  0.98993  1.0000 0.483099791
H   H1        1.0  0.63110  0.56990  0.58780  1.0000 0.0995267181
H   H2        1.0  0.43010  0.36890  0.08780  1.0000 0.0995267181
H   H3        1.0  0.98690  0.37810  0.40550  1.0000 0.092205555
H   H4        1.0  0.62190  0.01310  0.90550  1.0000 0.092205555
H   H5        1.0  0.62530  0.37330  0.58350  1.0000 0.1243939202
H   H6        1.0  0.62670  0.37470  0.08350  1.0000 0.1243939202
H   H7        1.0  0.99120  0.17880  0.39860  1.0000 0.1243939202
H   H8        1.0  0.82120  0.00880  0.89860  1.0000 0.1243939202
H   H9        1.0  0.60250  0.21190  0.53810  1.0000 0.1243939202
H   H10       1.0  0.78810  0.39750  0.03810  1.0000 0.1243939202
H   H11       1.0  0.00210  0.98670  0.42300  1.0000 0.1264229741
H   H12       1.0  0.01330  0.99790  0.92300  1.0000 0.1264229741
H   H13       1.0  0.60660  0.00960  0.53670  1.0000 0.0995267181
H   H14       1.0  0.99040  0.39340  0.03670  1.0000 0.0995267181
H   H15       1.0  0.99110  0.79290  0.41900  1.0000 0.0995267181
H   H16       1.0  0.20710  0.00890  0.91900  1.0000 0.0995267181
H   H17       1.0  0.06410  0.39430  0.70240  1.0000 0.0740951177
H   H18       1.0  0.60570  0.93590  0.20240  1.0000 0.0740951177
C   C1        1.0  0.70459  0.49039  0.54810  1.0000 0.0833479602
C   C2        1.0  0.50961  0.29541  0.04810  1.0000 0.0833479602
C   C3        1.0  0.91248  0.37768  0.44190  1.0000 0.0198767938
C   C4        1.0  0.62232  0.08752  0.94190  1.0000 0.0198767938
C   C5        1.0  0.70047  0.37167  0.54600  1.0000 -0.2107966218
C   C6        1.0  0.62833  0.29953  0.04600  1.0000 -0.2107966218
C   C7        1.0  0.91562  0.25762  0.43710  1.0000 -0.1985302243
C   C8        1.0  0.74238  0.08438  0.93710  1.0000 -0.1985302243
C   C9        1.0  0.80705  0.25145  0.48900  1.0000 0.092205555
C   C10       1.0  0.74855  0.19295  0.98900  1.0000 0.092205555
C   C11       1.0  0.80470  0.12310  0.48320  1.0000 0.0995267181
C   C12       1.0  0.87690  0.19530  0.98320  1.0000 0.0995267181
C   C13       1.0  0.68401  0.12721  0.51560  1.0000 -0.2107966218
C   C14       1.0  0.87279  0.31599  0.01560  1.0000 -0.2107966218
C   C15       1.0  0.92003  0.99463  0.44670  1.0000 -0.2107966218
C   C16       1.0  0.00537  0.07997  0.94670  1.0000 -0.2107966218
C   C17       1.0  0.68723  0.00503  0.51370  1.0000 0.0502696175
C   C18       1.0  0.99497  0.31277  0.01370  1.0000 0.0502696175
C   C19       1.0  0.91271  0.87771  0.44570  1.0000 0.0833479602
C   C20       1.0  0.12229  0.08729  0.94570  1.0000 0.0833479602
C   C21       1.0  0.08857  0.45657  0.72530  1.0000 0.4370539512
C   C22       1.0  0.54343  0.91143  0.22530  1.0000 0.4370539512
N   N1        1.0  0.80761  0.49661  0.49650  1.0000 -0.2589933772
N   N2        1.0  0.50339  0.19239  0.99650  1.0000 -0.2589933772
N   N3        1.0  0.79991  0.87971  0.48080  1.0000 -0.2589933772
N   N4        1.0  0.12029  0.20009  0.98080  1.0000 -0.2589933772
O   O1        1.0  0.01231  0.58271  0.63880  1.0000 -0.4821535323
O   O2        1.0  0.41729  0.98769  0.13880  1.0000 -0.4821535323
O   O3        1.0  0.19539  0.40799  0.84050  1.0000 -0.4821535323
O   O4        1.0  0.59201  0.80461  0.34050  1.0000 -0.4821535323
